MODEL 1
REMARK VINA RESULT:      -6.9      0.000      0.000
REMARK  Name = 
REMARK  9 active torsions:
REMARK  status: ('A' for Active; 'I' for Inactive)
REMARK    1  A    between atoms: C_1  and  C_2
REMARK    2  A    between atoms: C_2  and  N_3
REMARK    3  A    between atoms: C_7  and  O_8
REMARK    4  A    between atoms: C_9  and  N_10
REMARK    5  A    between atoms: C_11  and  C_13
REMARK    6  A    between atoms: C_18  and  C_19
REMARK    7  A    between atoms: C_23  and  C_24
REMARK    8  A    between atoms: C_24  and  C_25
REMARK    9  A    between atoms: C_24  and  C_26
REMARK                            x       y       z     vdW  Elec       q    Type
REMARK                         _______ _______ _______ _____ _____    ______ ____
ROOT
ATOM      1  N   UNL     1       3.270   4.730  18.236  0.00  0.00    +0.000 NA
ATOM      2  C   UNL     1       3.896   5.704  19.427  0.00  0.00    +0.000 C 
ATOM      3  C   UNL     1       2.998   6.776  18.859  0.00  0.00    +0.000 C 
ATOM      4  C   UNL     1       2.185   6.617  20.216  0.00  0.00    +0.000 C 
ATOM      5  C   UNL     1       1.520   7.910  20.572  0.00  0.00    +0.000 C 
ATOM      6  C   UNL     1       1.612   8.787  19.350  0.00  0.00    +0.000 C 
ATOM      7  C   UNL     1       2.512   8.102  18.291  0.00  0.00    +0.000 C 
ATOM      8  C   UNL     1       4.007   5.839  17.511  0.00  0.00    +0.000 C 
ENDROOT
BRANCH   6   9
ATOM      9  N   UNL     1       0.261   9.197  18.935  0.00  0.00    +0.000 N 
ATOM     10  C   UNL     1      -0.070  10.542  18.701  0.00  0.00    +0.000 C 
ATOM     11  O   UNL     1       0.626  11.485  18.957  0.00  0.00    +0.000 OA
ATOM     12  H   UNL     1      -0.202   8.525  18.352  0.00  0.00    +0.000 HD
BRANCH  10  13
ATOM     13  C   UNL     1      -1.427  10.722  18.079  0.00  0.00    +0.000 A 
ATOM     14  C   UNL     1      -1.772   9.815  17.064  0.00  0.00    +0.000 A 
ATOM     15  C   UNL     1      -3.029   9.868  16.484  0.00  0.00    +0.000 A 
ATOM     16  C   UNL     1      -3.909  10.819  16.947  0.00  0.00    +0.000 A 
ATOM     17  N   UNL     1      -3.607  11.706  17.923  0.00  0.00    +0.000 NA
ATOM     18  C   UNL     1      -2.371  11.660  18.510  0.00  0.00    +0.000 A 
BRANCH  18  19
ATOM     19  C   UNL     1      -2.214  12.662  19.653  0.00  0.00    +0.000 C 
ATOM     20  C   UNL     1      -2.351  12.120  21.069  0.00  0.00    +0.000 C 
ATOM     21  C   UNL     1      -3.311  13.148  20.558  0.00  0.00    +0.000 C 
ENDBRANCH  18  19
ENDBRANCH  10  13
ENDBRANCH   6   9
BRANCH   8  22
ATOM     22  C   UNL     1       5.503   5.110  17.361  0.00  0.00    +0.000 C 
ATOM     23  C   UNL     1       5.584   4.004  16.305  0.00  0.00    +0.000 C 
ATOM     24  C   UNL     1       6.710   6.084  17.105  0.00  0.00    +0.000 C 
ENDBRANCH   8  22
BRANCH   1  26
ATOM     25  C   UNL     1       1.018   3.619  18.088  0.00  0.00    +0.000 C 
ATOM     26  C   UNL     1       1.855   4.844  17.755  0.00  0.00    +0.000 C 
ENDBRANCH   1  26
BRANCH   5  27
ATOM     27  O   UNL     1       2.153   8.538  21.687  0.00  0.00    +0.000 OA
ATOM     28  H   UNL     1       1.464   8.897  22.270  0.00  0.00    +0.000 HD
ENDBRANCH   5  27
TORSDOF 6
ENDMDL
MODEL 2
REMARK VINA RESULT:      -6.8      2.166      8.428
REMARK  Name = 
REMARK  9 active torsions:
REMARK  status: ('A' for Active; 'I' for Inactive)
REMARK    1  A    between atoms: C_1  and  C_2
REMARK    2  A    between atoms: C_2  and  N_3
REMARK    3  A    between atoms: C_7  and  O_8
REMARK    4  A    between atoms: C_9  and  N_10
REMARK    5  A    between atoms: C_11  and  C_13
REMARK    6  A    between atoms: C_18  and  C_19
REMARK    7  A    between atoms: C_23  and  C_24
REMARK    8  A    between atoms: C_24  and  C_25
REMARK    9  A    between atoms: C_24  and  C_26
REMARK                            x       y       z     vdW  Elec       q    Type
REMARK                         _______ _______ _______ _____ _____    ______ ____
ROOT
ATOM      1  N   UNL     1       0.820  10.892  19.140  0.00  0.00    +0.000 NA
ATOM      2  C   UNL     1       0.262   9.544  19.934  0.00  0.00    +0.000 C 
ATOM      3  C   UNL     1       1.007   8.760  18.880  0.00  0.00    +0.000 C 
ATOM      4  C   UNL     1       1.979   8.353  20.072  0.00  0.00    +0.000 C 
ATOM      5  C   UNL     1       2.582   7.009  19.807  0.00  0.00    +0.000 C 
ATOM      6  C   UNL     1       2.286   6.684  18.365  0.00  0.00    +0.000 C 
ATOM      7  C   UNL     1       1.325   7.752  17.784  0.00  0.00    +0.000 C 
ATOM      8  C   UNL     1      -0.076  10.175  18.147  0.00  0.00    +0.000 C 
ENDROOT
BRANCH   6   9
ATOM      9  N   UNL     1       3.546   6.438  17.647  0.00  0.00    +0.000 N 
ATOM     10  C   UNL     1       4.112   5.156  17.555  0.00  0.00    +0.000 C 
ATOM     11  O   UNL     1       3.741   4.187  18.158  0.00  0.00    +0.000 OA
ATOM     12  H   UNL     1       3.679   7.033  16.851  0.00  0.00    +0.000 HD
BRANCH  10  13
ATOM     13  C   UNL     1       5.273   5.084  16.602  0.00  0.00    +0.000 A 
ATOM     14  C   UNL     1       5.087   4.297  15.454  0.00  0.00    +0.000 A 
ATOM     15  C   UNL     1       6.081   4.230  14.491  0.00  0.00    +0.000 A 
ATOM     16  C   UNL     1       7.226   4.963  14.699  0.00  0.00    +0.000 A 
ATOM     17  N   UNL     1       7.435   5.730  15.795  0.00  0.00    +0.000 NA
ATOM     18  C   UNL     1       6.458   5.811  16.750  0.00  0.00    +0.000 A 
BRANCH  18  19
ATOM     19  C   UNL     1       6.803   6.785  17.876  0.00  0.00    +0.000 C 
ATOM     20  C   UNL     1       7.675   7.979  17.513  0.00  0.00    +0.000 C 
ATOM     21  C   UNL     1       8.156   6.966  18.504  0.00  0.00    +0.000 C 
ENDBRANCH  18  19
ENDBRANCH  10  13
ENDBRANCH   6   9
BRANCH   8  22
ATOM     22  C   UNL     1      -1.520  10.941  18.493  0.00  0.00    +0.000 C 
ATOM     23  C   UNL     1      -1.484  12.469  18.398  0.00  0.00    +0.000 C 
ATOM     24  C   UNL     1      -2.762  10.454  17.661  0.00  0.00    +0.000 C 
ENDBRANCH   8  22
BRANCH   1  26
ATOM     25  C   UNL     1       2.555  12.348  18.043  0.00  0.00    +0.000 C 
ATOM     26  C   UNL     1       2.159  10.941  18.467  0.00  0.00    +0.000 C 
ENDBRANCH   1  26
BRANCH   5  27
ATOM     27  O   UNL     1       2.034   6.008  20.666  0.00  0.00    +0.000 OA
ATOM     28  H   UNL     1       2.629   5.895  21.426  0.00  0.00    +0.000 HD
ENDBRANCH   5  27
TORSDOF 6
ENDMDL
MODEL 3
REMARK VINA RESULT:      -6.7      1.477      8.187
REMARK  Name = 
REMARK  9 active torsions:
REMARK  status: ('A' for Active; 'I' for Inactive)
REMARK    1  A    between atoms: C_1  and  C_2
REMARK    2  A    between atoms: C_2  and  N_3
REMARK    3  A    between atoms: C_7  and  O_8
REMARK    4  A    between atoms: C_9  and  N_10
REMARK    5  A    between atoms: C_11  and  C_13
REMARK    6  A    between atoms: C_18  and  C_19
REMARK    7  A    between atoms: C_23  and  C_24
REMARK    8  A    between atoms: C_24  and  C_25
REMARK    9  A    between atoms: C_24  and  C_26
REMARK                            x       y       z     vdW  Elec       q    Type
REMARK                         _______ _______ _______ _____ _____    ______ ____
ROOT
ATOM      1  N   UNL     1      -3.175  11.580  16.995  0.00  0.00    +0.000 NA
ATOM      2  C   UNL     1      -2.624  12.232  18.420  0.00  0.00    +0.000 C 
ATOM      3  C   UNL     1      -1.826  10.958  18.558  0.00  0.00    +0.000 C 
ATOM      4  C   UNL     1      -0.561  11.889  18.311  0.00  0.00    +0.000 C 
ATOM      5  C   UNL     1       0.640  11.318  18.997  0.00  0.00    +0.000 C 
ATOM      6  C   UNL     1       0.273   9.913  19.401  0.00  0.00    +0.000 C 
ATOM      7  C   UNL     1      -1.235   9.678  19.133  0.00  0.00    +0.000 C 
ATOM      8  C   UNL     1      -3.669  10.650  18.087  0.00  0.00    +0.000 C 
ENDROOT
BRANCH   6   9
ATOM      9  N   UNL     1       1.227   8.964  18.806  0.00  0.00    +0.000 N 
ATOM     10  C   UNL     1       1.852   7.961  19.565  0.00  0.00    +0.000 C 
ATOM     11  O   UNL     1       1.809   7.866  20.761  0.00  0.00    +0.000 OA
ATOM     12  H   UNL     1       1.018   8.726  17.855  0.00  0.00    +0.000 HD
BRANCH  10  13
ATOM     13  C   UNL     1       2.615   6.970  18.731  0.00  0.00    +0.000 A 
ATOM     14  C   UNL     1       3.565   7.503  17.845  0.00  0.00    +0.000 A 
ATOM     15  C   UNL     1       4.358   6.656  17.088  0.00  0.00    +0.000 A 
ATOM     16  C   UNL     1       4.189   5.301  17.252  0.00  0.00    +0.000 A 
ATOM     17  N   UNL     1       3.283   4.757  18.098  0.00  0.00    +0.000 NA
ATOM     18  C   UNL     1       2.497   5.582  18.856  0.00  0.00    +0.000 A 
BRANCH  18  19
ATOM     19  C   UNL     1       1.593   4.821  19.825  0.00  0.00    +0.000 C 
ATOM     20  C   UNL     1       2.200   4.412  21.159  0.00  0.00    +0.000 C 
ATOM     21  C   UNL     1       1.719   3.371  20.198  0.00  0.00    +0.000 C 
ENDBRANCH  18  19
ENDBRANCH  10  13
ENDBRANCH   6   9
BRANCH   8  22
ATOM     22  C   UNL     1      -5.158  11.350  18.376  0.00  0.00    +0.000 C 
ATOM     23  C   UNL     1      -5.726  12.173  17.215  0.00  0.00    +0.000 C 
ATOM     24  C   UNL     1      -6.292  10.365  18.842  0.00  0.00    +0.000 C 
ENDBRANCH   8  22
BRANCH   1  26
ATOM     25  C   UNL     1      -3.103  10.093  14.966  0.00  0.00    +0.000 C 
ATOM     26  C   UNL     1      -2.325  10.708  16.119  0.00  0.00    +0.000 C 
ENDBRANCH   1  26
BRANCH   5  27
ATOM     27  O   UNL     1       1.007  12.087  20.143  0.00  0.00    +0.000 OA
ATOM     28  H   UNL     1       1.445  12.901  19.840  0.00  0.00    +0.000 HD
ENDBRANCH   5  27
TORSDOF 6
ENDMDL
MODEL 4
REMARK VINA RESULT:      -6.5      2.199      7.871
REMARK  Name = 
REMARK  9 active torsions:
REMARK  status: ('A' for Active; 'I' for Inactive)
REMARK    1  A    between atoms: C_1  and  C_2
REMARK    2  A    between atoms: C_2  and  N_3
REMARK    3  A    between atoms: C_7  and  O_8
REMARK    4  A    between atoms: C_9  and  N_10
REMARK    5  A    between atoms: C_11  and  C_13
REMARK    6  A    between atoms: C_18  and  C_19
REMARK    7  A    between atoms: C_23  and  C_24
REMARK    8  A    between atoms: C_24  and  C_25
REMARK    9  A    between atoms: C_24  and  C_26
REMARK                            x       y       z     vdW  Elec       q    Type
REMARK                         _______ _______ _______ _____ _____    ______ ____
ROOT
ATOM      1  N   UNL     1      -0.665  11.510  21.923  0.00  0.00    +0.000 NA
ATOM      2  C   UNL     1      -1.338  11.960  20.473  0.00  0.00    +0.000 C 
ATOM      3  C   UNL     1      -0.086  11.390  19.849  0.00  0.00    +0.000 C 
ATOM      4  C   UNL     1      -1.050  10.257  19.288  0.00  0.00    +0.000 C 
ATOM      5  C   UNL     1      -0.514   9.717  17.999  0.00  0.00    +0.000 C 
ATOM      6  C   UNL     1       0.898  10.230  17.877  0.00  0.00    +0.000 C 
ATOM      7  C   UNL     1       1.175  11.252  19.007  0.00  0.00    +0.000 C 
ATOM      8  C   UNL     1       0.273  12.552  21.344  0.00  0.00    +0.000 C 
ENDROOT
BRANCH   6   9
ATOM      9  N   UNL     1       1.824   9.094  17.743  0.00  0.00    +0.000 N 
ATOM     10  C   UNL     1       2.032   8.176  18.786  0.00  0.00    +0.000 C 
ATOM     11  O   UNL     1       1.626   8.295  19.909  0.00  0.00    +0.000 OA
ATOM     12  H   UNL     1       1.869   8.718  16.815  0.00  0.00    +0.000 HD
BRANCH  10  13
ATOM     13  C   UNL     1       2.841   6.978  18.374  0.00  0.00    +0.000 A 
ATOM     14  C   UNL     1       3.916   7.222  17.504  0.00  0.00    +0.000 A 
ATOM     15  C   UNL     1       4.753   6.184  17.128  0.00  0.00    +0.000 A 
ATOM     16  C   UNL     1       4.498   4.935  17.645  0.00  0.00    +0.000 A 
ATOM     17  N   UNL     1       3.470   4.668  18.484  0.00  0.00    +0.000 NA
ATOM     18  C   UNL     1       2.640   5.686  18.869  0.00  0.00    +0.000 A 
BRANCH  18  19
ATOM     19  C   UNL     1       1.588   5.246  19.886  0.00  0.00    +0.000 C 
ATOM     20  C   UNL     1       2.097   4.707  21.216  0.00  0.00    +0.000 C 
ATOM     21  C   UNL     1       1.298   3.831  20.303  0.00  0.00    +0.000 C 
ENDBRANCH  18  19
ENDBRANCH  10  13
ENDBRANCH   6   9
BRANCH   8  22
ATOM     22  C   UNL     1      -0.389  13.919  22.042  0.00  0.00    +0.000 C 
ATOM     23  C   UNL     1      -1.070  13.693  23.395  0.00  0.00    +0.000 C 
ATOM     24  C   UNL     1       0.593  15.135  22.216  0.00  0.00    +0.000 C 
ENDBRANCH   8  22
BRANCH   1  26
ATOM     25  C   UNL     1      -0.377   9.296  23.085  0.00  0.00    +0.000 C 
ATOM     26  C   UNL     1       0.188  10.286  22.077  0.00  0.00    +0.000 C 
ENDBRANCH   1  26
BRANCH   5  27
ATOM     27  O   UNL     1      -1.298  10.144  16.884  0.00  0.00    +0.000 OA
ATOM     28  H   UNL     1      -0.785  10.796  16.379  0.00  0.00    +0.000 HD
ENDBRANCH   5  27
TORSDOF 6
ENDMDL
MODEL 5
REMARK VINA RESULT:      -6.0      2.424      8.413
REMARK  Name = 
REMARK  9 active torsions:
REMARK  status: ('A' for Active; 'I' for Inactive)
REMARK    1  A    between atoms: C_1  and  C_2
REMARK    2  A    between atoms: C_2  and  N_3
REMARK    3  A    between atoms: C_7  and  O_8
REMARK    4  A    between atoms: C_9  and  N_10
REMARK    5  A    between atoms: C_11  and  C_13
REMARK    6  A    between atoms: C_18  and  C_19
REMARK    7  A    between atoms: C_23  and  C_24
REMARK    8  A    between atoms: C_24  and  C_25
REMARK    9  A    between atoms: C_24  and  C_26
REMARK                            x       y       z     vdW  Elec       q    Type
REMARK                         _______ _______ _______ _____ _____    ______ ____
ROOT
ATOM      1  N   UNL     1      -0.756  12.892  21.602  0.00  0.00    +0.000 NA
ATOM      2  C   UNL     1      -1.094  13.056  19.984  0.00  0.00    +0.000 C 
ATOM      3  C   UNL     1      -0.029  12.007  19.775  0.00  0.00    +0.000 C 
ATOM      4  C   UNL     1      -1.237  11.067  19.345  0.00  0.00    +0.000 C 
ATOM      5  C   UNL     1      -0.766  10.042  18.360  0.00  0.00    +0.000 C 
ATOM      6  C   UNL     1       0.740  10.087  18.385  0.00  0.00    +0.000 C 
ATOM      7  C   UNL     1       1.205  11.284  19.253  0.00  0.00    +0.000 C 
ATOM      8  C   UNL     1       0.519  13.417  20.969  0.00  0.00    +0.000 C 
ENDROOT
BRANCH   6   9
ATOM      9  N   UNL     1       1.267   8.756  18.722  0.00  0.00    +0.000 N 
ATOM     10  C   UNL     1       2.360   8.193  18.042  0.00  0.00    +0.000 C 
ATOM     11  O   UNL     1       2.865   8.638  17.048  0.00  0.00    +0.000 OA
ATOM     12  H   UNL     1       1.194   8.528  19.696  0.00  0.00    +0.000 HD
BRANCH  10  13
ATOM     13  C   UNL     1       2.874   6.932  18.679  0.00  0.00    +0.000 A 
ATOM     14  C   UNL     1       2.011   6.297  19.587  0.00  0.00    +0.000 A 
ATOM     15  C   UNL     1       2.379   5.095  20.168  0.00  0.00    +0.000 A 
ATOM     16  C   UNL     1       3.594   4.556  19.812  0.00  0.00    +0.000 A 
ATOM     17  N   UNL     1       4.447   5.144  18.942  0.00  0.00    +0.000 NA
ATOM     18  C   UNL     1       4.093   6.329  18.355  0.00  0.00    +0.000 A 
BRANCH  18  19
ATOM     19  C   UNL     1       5.116   6.817  17.330  0.00  0.00    +0.000 C 
ATOM     20  C   UNL     1       5.101   6.142  15.965  0.00  0.00    +0.000 C 
ATOM     21  C   UNL     1       6.312   6.050  16.841  0.00  0.00    +0.000 C 
ENDBRANCH  18  19
ENDBRANCH  10  13
ENDBRANCH   6   9
BRANCH   8  22
ATOM     22  C   UNL     1       0.255  15.055  21.160  0.00  0.00    +0.000 C 
ATOM     23  C   UNL     1       0.669  15.626  22.520  0.00  0.00    +0.000 C 
ATOM     24  C   UNL     1       0.892  15.978  20.058  0.00  0.00    +0.000 C 
ENDBRANCH   8  22
BRANCH   1  26
ATOM     25  C   UNL     1      -1.408  11.038  23.173  0.00  0.00    +0.000 C 
ATOM     26  C   UNL     1      -0.357  11.586  22.219  0.00  0.00    +0.000 C 
ENDBRANCH   1  26
BRANCH   5  27
ATOM     27  O   UNL     1      -1.252  10.314  17.045  0.00  0.00    +0.000 OA
ATOM     28  H   UNL     1      -0.769   9.753  16.416  0.00  0.00    +0.000 HD
ENDBRANCH   5  27
TORSDOF 6
ENDMDL
MODEL 6
REMARK VINA RESULT:      -5.9      3.442      8.249
REMARK  Name = 
REMARK  9 active torsions:
REMARK  status: ('A' for Active; 'I' for Inactive)
REMARK    1  A    between atoms: C_1  and  C_2
REMARK    2  A    between atoms: C_2  and  N_3
REMARK    3  A    between atoms: C_7  and  O_8
REMARK    4  A    between atoms: C_9  and  N_10
REMARK    5  A    between atoms: C_11  and  C_13
REMARK    6  A    between atoms: C_18  and  C_19
REMARK    7  A    between atoms: C_23  and  C_24
REMARK    8  A    between atoms: C_24  and  C_25
REMARK    9  A    between atoms: C_24  and  C_26
REMARK                            x       y       z     vdW  Elec       q    Type
REMARK                         _______ _______ _______ _____ _____    ______ ____
ROOT
ATOM      1  N   UNL     1       0.511  15.767  20.499  0.00  0.00    +0.000 NA
ATOM      2  C   UNL     1      -1.041  15.606  19.928  0.00  0.00    +0.000 C 
ATOM      3  C   UNL     1      -0.517  14.400  19.186  0.00  0.00    +0.000 C 
ATOM      4  C   UNL     1      -1.416  13.563  20.196  0.00  0.00    +0.000 C 
ATOM      5  C   UNL     1      -1.862  12.288  19.553  0.00  0.00    +0.000 C 
ATOM      6  C   UNL     1      -1.036  12.129  18.302  0.00  0.00    +0.000 C 
ATOM      7  C   UNL     1      -0.203  13.415  18.068  0.00  0.00    +0.000 C 
ATOM      8  C   UNL     1       0.607  15.954  18.997  0.00  0.00    +0.000 C 
ENDROOT
BRANCH   6   9
ATOM      9  N   UNL     1      -0.313  10.848  18.349  0.00  0.00    +0.000 N 
ATOM     10  C   UNL     1       0.937  10.721  18.976  0.00  0.00    +0.000 C 
ATOM     11  O   UNL     1       1.606  11.629  19.386  0.00  0.00    +0.000 OA
ATOM     12  H   UNL     1      -0.915  10.049  18.407  0.00  0.00    +0.000 HD
BRANCH  10  13
ATOM     13  C   UNL     1       1.398   9.295  19.103  0.00  0.00    +0.000 A 
ATOM     14  C   UNL     1       1.949   8.715  17.949  0.00  0.00    +0.000 A 
ATOM     15  C   UNL     1       2.460   7.428  17.997  0.00  0.00    +0.000 A 
ATOM     16  C   UNL     1       2.417   6.765  19.202  0.00  0.00    +0.000 A 
ATOM     17  N   UNL     1       1.893   7.297  20.330  0.00  0.00    +0.000 NA
ATOM     18  C   UNL     1       1.391   8.571  20.299  0.00  0.00    +0.000 A 
BRANCH  18  19
ATOM     19  C   UNL     1       0.921   9.061  21.667  0.00  0.00    +0.000 C 
ATOM     20  C   UNL     1      -0.489   8.675  22.092  0.00  0.00    +0.000 C 
ATOM     21  C   UNL     1      -0.120  10.115  21.919  0.00  0.00    +0.000 C 
ENDBRANCH  18  19
ENDBRANCH  10  13
ENDBRANCH   6   9
BRANCH   8  22
ATOM     22  C   UNL     1       0.430  17.614  18.925  0.00  0.00    +0.000 C 
ATOM     23  C   UNL     1       1.468  18.413  19.718  0.00  0.00    +0.000 C 
ATOM     24  C   UNL     1       0.381  18.228  17.478  0.00  0.00    +0.000 C 
ENDBRANCH   8  22
BRANCH   1  26
ATOM     25  C   UNL     1       2.861  14.870  20.492  0.00  0.00    +0.000 C 
ATOM     26  C   UNL     1       1.395  14.592  20.787  0.00  0.00    +0.000 C 
ENDBRANCH   1  26
BRANCH   5  27
ATOM     27  O   UNL     1      -3.253  12.320  19.231  0.00  0.00    +0.000 OA
ATOM     28  H   UNL     1      -3.473  13.210  18.905  0.00  0.00    +0.000 HD
ENDBRANCH   5  27
TORSDOF 6
ENDMDL
MODEL 7
REMARK VINA RESULT:      -5.8      2.332      4.006
REMARK  Name = 
REMARK  9 active torsions:
REMARK  status: ('A' for Active; 'I' for Inactive)
REMARK    1  A    between atoms: C_1  and  C_2
REMARK    2  A    between atoms: C_2  and  N_3
REMARK    3  A    between atoms: C_7  and  O_8
REMARK    4  A    between atoms: C_9  and  N_10
REMARK    5  A    between atoms: C_11  and  C_13
REMARK    6  A    between atoms: C_18  and  C_19
REMARK    7  A    between atoms: C_23  and  C_24
REMARK    8  A    between atoms: C_24  and  C_25
REMARK    9  A    between atoms: C_24  and  C_26
REMARK                            x       y       z     vdW  Elec       q    Type
REMARK                         _______ _______ _______ _____ _____    ______ ____
ROOT
ATOM      1  N   UNL     1       4.238   5.304  16.777  0.00  0.00    +0.000 NA
ATOM      2  C   UNL     1       3.698   3.922  17.525  0.00  0.00    +0.000 C 
ATOM      3  C   UNL     1       3.458   4.807  18.725  0.00  0.00    +0.000 C 
ATOM      4  C   UNL     1       1.916   4.557  18.424  0.00  0.00    +0.000 C 
ATOM      5  C   UNL     1       1.125   4.636  19.692  0.00  0.00    +0.000 C 
ATOM      6  C   UNL     1       2.042   5.234  20.730  0.00  0.00    +0.000 C 
ATOM      7  C   UNL     1       3.473   5.348  20.148  0.00  0.00    +0.000 C 
ATOM      8  C   UNL     1       5.194   5.064  17.929  0.00  0.00    +0.000 C 
ENDROOT
BRANCH   6   9
ATOM      9  N   UNL     1       1.431   6.453  21.282  0.00  0.00    +0.000 N 
ATOM     10  C   UNL     1       1.491   7.685  20.612  0.00  0.00    +0.000 C 
ATOM     11  O   UNL     1       2.153   7.916  19.638  0.00  0.00    +0.000 OA
ATOM     12  H   UNL     1       0.594   6.281  21.808  0.00  0.00    +0.000 HD
BRANCH  10  13
ATOM     13  C   UNL     1       0.624   8.745  21.233  0.00  0.00    +0.000 A 
ATOM     14  C   UNL     1       0.543   8.739  22.635  0.00  0.00    +0.000 A 
ATOM     15  C   UNL     1      -0.179   9.722  23.292  0.00  0.00    +0.000 A 
ATOM     16  C   UNL     1      -0.787  10.691  22.527  0.00  0.00    +0.000 A 
ATOM     17  N   UNL     1      -0.727  10.723  21.175  0.00  0.00    +0.000 NA
ATOM     18  C   UNL     1      -0.011   9.762  20.514  0.00  0.00    +0.000 A 
BRANCH  18  19
ATOM     19  C   UNL     1       0.037   9.987  19.004  0.00  0.00    +0.000 C 
ATOM     20  C   UNL     1       1.043  11.008  18.490  0.00  0.00    +0.000 C 
ATOM     21  C   UNL     1      -0.424  11.220  18.278  0.00  0.00    +0.000 C 
ENDBRANCH  18  19
ENDBRANCH  10  13
ENDBRANCH   6   9
BRANCH   8  22
ATOM     22  C   UNL     1       6.343   4.149  17.133  0.00  0.00    +0.000 C 
ATOM     23  C   UNL     1       6.270   4.201  15.604  0.00  0.00    +0.000 C 
ATOM     24  C   UNL     1       7.836   4.436  17.535  0.00  0.00    +0.000 C 
ENDBRANCH   8  22
BRANCH   1  26
ATOM     25  C   UNL     1       4.692   7.767  17.013  0.00  0.00    +0.000 C 
ATOM     26  C   UNL     1       3.653   6.657  17.052  0.00  0.00    +0.000 C 
ENDBRANCH   1  26
BRANCH   5  27
ATOM     27  O   UNL     1       0.671   3.348  20.110  0.00  0.00    +0.000 OA
ATOM     28  H   UNL     1      -0.267   3.261  19.870  0.00  0.00    +0.000 HD
ENDBRANCH   5  27
TORSDOF 6
ENDMDL
MODEL 8
REMARK VINA RESULT:      -5.8      1.680      7.913
REMARK  Name = 
REMARK  9 active torsions:
REMARK  status: ('A' for Active; 'I' for Inactive)
REMARK    1  A    between atoms: C_1  and  C_2
REMARK    2  A    between atoms: C_2  and  N_3
REMARK    3  A    between atoms: C_7  and  O_8
REMARK    4  A    between atoms: C_9  and  N_10
REMARK    5  A    between atoms: C_11  and  C_13
REMARK    6  A    between atoms: C_18  and  C_19
REMARK    7  A    between atoms: C_23  and  C_24
REMARK    8  A    between atoms: C_24  and  C_25
REMARK    9  A    between atoms: C_24  and  C_26
REMARK                            x       y       z     vdW  Elec       q    Type
REMARK                         _______ _______ _______ _____ _____    ______ ____
ROOT
ATOM      1  N   UNL     1      -2.388  11.869  17.739  0.00  0.00    +0.000 NA
ATOM      2  C   UNL     1      -1.767  12.601  19.095  0.00  0.00    +0.000 C 
ATOM      3  C   UNL     1      -1.199  11.241  19.426  0.00  0.00    +0.000 C 
ATOM      4  C   UNL     1       0.210  11.911  19.120  0.00  0.00    +0.000 C 
ATOM      5  C   UNL     1       1.282  11.244  19.924  0.00  0.00    +0.000 C 
ATOM      6  C   UNL     1       0.673   9.983  20.483  0.00  0.00    +0.000 C 
ATOM      7  C   UNL     1      -0.846   9.967  20.181  0.00  0.00    +0.000 C 
ATOM      8  C   UNL     1      -3.057  11.184  18.916  0.00  0.00    +0.000 C 
ENDROOT
BRANCH   6   9
ATOM      9  N   UNL     1       1.466   8.821  20.054  0.00  0.00    +0.000 N 
ATOM     10  C   UNL     1       1.587   8.460  18.702  0.00  0.00    +0.000 C 
ATOM     11  O   UNL     1       0.958   8.935  17.796  0.00  0.00    +0.000 OA
ATOM     12  H   UNL     1       2.272   8.649  20.625  0.00  0.00    +0.000 HD
BRANCH  10  13
ATOM     13  C   UNL     1       2.609   7.384  18.460  0.00  0.00    +0.000 A 
ATOM     14  C   UNL     1       3.624   7.687  17.538  0.00  0.00    +0.000 A 
ATOM     15  C   UNL     1       4.644   6.778  17.307  0.00  0.00    +0.000 A 
ATOM     16  C   UNL     1       4.625   5.599  18.016  0.00  0.00    +0.000 A 
ATOM     17  N   UNL     1       3.661   5.279  18.910  0.00  0.00    +0.000 NA
ATOM     18  C   UNL     1       2.651   6.171  19.153  0.00  0.00    +0.000 A 
BRANCH  18  19
ATOM     19  C   UNL     1       1.696   5.706  20.251  0.00  0.00    +0.000 C 
ATOM     20  C   UNL     1       2.225   4.672  21.235  0.00  0.00    +0.000 C 
ATOM     21  C   UNL     1       1.059   4.348  20.353  0.00  0.00    +0.000 C 
ENDBRANCH  18  19
ENDBRANCH  10  13
ENDBRANCH   6   9
BRANCH   8  22
ATOM     22  C   UNL     1      -4.412  12.151  19.050  0.00  0.00    +0.000 C 
ATOM     23  C   UNL     1      -5.513  11.874  18.021  0.00  0.00    +0.000 C 
ATOM     24  C   UNL     1      -5.096  12.169  20.466  0.00  0.00    +0.000 C 
ENDBRANCH   8  22
BRANCH   1  26
ATOM     25  C   UNL     1      -2.633   9.807  16.318  0.00  0.00    +0.000 C 
ATOM     26  C   UNL     1      -1.678  10.763  17.017  0.00  0.00    +0.000 C 
ENDBRANCH   1  26
BRANCH   5  27
ATOM     27  O   UNL     1       1.748  12.084  20.980  0.00  0.00    +0.000 OA
ATOM     28  H   UNL     1       2.419  12.688  20.620  0.00  0.00    +0.000 HD
ENDBRANCH   5  27
TORSDOF 6
ENDMDL
MODEL 9
REMARK VINA RESULT:      -5.7      2.346      7.931
REMARK  Name = 
REMARK  9 active torsions:
REMARK  status: ('A' for Active; 'I' for Inactive)
REMARK    1  A    between atoms: C_1  and  C_2
REMARK    2  A    between atoms: C_2  and  N_3
REMARK    3  A    between atoms: C_7  and  O_8
REMARK    4  A    between atoms: C_9  and  N_10
REMARK    5  A    between atoms: C_11  and  C_13
REMARK    6  A    between atoms: C_18  and  C_19
REMARK    7  A    between atoms: C_23  and  C_24
REMARK    8  A    between atoms: C_24  and  C_25
REMARK    9  A    between atoms: C_24  and  C_26
REMARK                            x       y       z     vdW  Elec       q    Type
REMARK                         _______ _______ _______ _____ _____    ______ ____
ROOT
ATOM      1  N   UNL     1      -0.008  11.704  21.646  0.00  0.00    +0.000 NA
ATOM      2  C   UNL     1      -0.644  12.077  20.158  0.00  0.00    +0.000 C 
ATOM      3  C   UNL     1       0.446  11.192  19.601  0.00  0.00    +0.000 C 
ATOM      4  C   UNL     1      -0.742  10.206  19.222  0.00  0.00    +0.000 C 
ATOM      5  C   UNL     1      -0.377   9.401  18.014  0.00  0.00    +0.000 C 
ATOM      6  C   UNL     1       1.101   9.603  17.798  0.00  0.00    +0.000 C 
ATOM      7  C   UNL     1       1.619  10.695  18.768  0.00  0.00    +0.000 C 
ATOM      8  C   UNL     1       1.087  12.453  20.911  0.00  0.00    +0.000 C 
ENDROOT
BRANCH   6   9
ATOM      9  N   UNL     1       1.783   8.299  17.812  0.00  0.00    +0.000 N 
ATOM     10  C   UNL     1       2.102   7.638  19.010  0.00  0.00    +0.000 C 
ATOM     11  O   UNL     1       2.008   8.109  20.111  0.00  0.00    +0.000 OA
ATOM     12  H   UNL     1       1.540   7.709  17.039  0.00  0.00    +0.000 HD
BRANCH  10  13
ATOM     13  C   UNL     1       2.593   6.233  18.804  0.00  0.00    +0.000 A 
ATOM     14  C   UNL     1       1.737   5.205  19.232  0.00  0.00    +0.000 A 
ATOM     15  C   UNL     1       2.084   3.881  19.018  0.00  0.00    +0.000 A 
ATOM     16  C   UNL     1       3.269   3.624  18.369  0.00  0.00    +0.000 A 
ATOM     17  N   UNL     1       4.114   4.592  17.945  0.00  0.00    +0.000 NA
ATOM     18  C   UNL     1       3.782   5.905  18.143  0.00  0.00    +0.000 A 
BRANCH  18  19
ATOM     19  C   UNL     1       4.789   6.876  17.529  0.00  0.00    +0.000 C 
ATOM     20  C   UNL     1       4.956   6.831  16.016  0.00  0.00    +0.000 C 
ATOM     21  C   UNL     1       6.109   6.508  16.913  0.00  0.00    +0.000 C 
ENDBRANCH  18  19
ENDBRANCH  10  13
ENDBRANCH   6   9
BRANCH   8  22
ATOM     22  C   UNL     1       0.733  14.004  21.418  0.00  0.00    +0.000 C 
ATOM     23  C   UNL     1      -0.243  14.097  22.595  0.00  0.00    +0.000 C 
ATOM     24  C   UNL     1       1.975  14.901  21.776  0.00  0.00    +0.000 C 
ENDBRANCH   8  22
BRANCH   1  26
ATOM     25  C   UNL     1      -0.103   9.657  23.106  0.00  0.00    +0.000 C 
ATOM     26  C   UNL     1       0.597  10.368  21.958  0.00  0.00    +0.000 C 
ENDBRANCH   1  26
BRANCH   5  27
ATOM     27  O   UNL     1      -1.111   9.818  16.862  0.00  0.00    +0.000 OA
ATOM     28  H   UNL     1      -1.542  10.666  17.063  0.00  0.00    +0.000 HD
ENDBRANCH   5  27
TORSDOF 6
ENDMDL
