MODEL 1
REMARK VINA RESULT:      -8.8      0.000      0.000
REMARK  Name = 
REMARK  8 active torsions:
REMARK  status: ('A' for Active; 'I' for Inactive)
REMARK    1  A    between atoms: C_1  and  N_2
REMARK    2  A    between atoms: C_6  and  C_7
REMARK    3  A    between atoms: C_7  and  C_8
REMARK    4  A    between atoms: C_8  and  N_9
REMARK    5  A    between atoms: C_13  and  C_14
REMARK    6  A    between atoms: C_14  and  C_15
REMARK    7  A    between atoms: C_15  and  N_16
REMARK    8  A    between atoms: C_23  and  C_24
REMARK                            x       y       z     vdW  Elec       q    Type
REMARK                         _______ _______ _______ _____ _____    ______ ____
ROOT
ATOM      1  C   UNL     1       2.119   4.517  19.782  0.00  0.00    +0.000 C 
ATOM      2  C   UNL     1       1.093   3.699  19.011  0.00  0.00    +0.000 C 
ATOM      3  C   UNL     1       0.968   3.814  20.499  0.00  0.00    +0.000 C 
ENDROOT
BRANCH   1   8
ATOM      4  N   UNL     1       1.857   8.339  20.647  0.00  0.00    +0.000 NA
ATOM      5  C   UNL     1       1.357   8.755  19.326  0.00  0.00    +0.000 C 
ATOM      6  C   UNL     1       2.181   8.104  18.205  0.00  0.00    +0.000 C 
ATOM      7  C   UNL     1       2.272   6.616  18.372  0.00  0.00    +0.000 C 
ATOM      8  C   UNL     1       2.055   6.014  19.562  0.00  0.00    +0.000 C 
ATOM      9  C   UNL     1       1.756   6.874  20.782  0.00  0.00    +0.000 C 
BRANCH   4  10
ATOM     10  C   UNL     1       1.094   9.002  21.734  0.00  0.00    +0.000 C 
BRANCH  10  11
ATOM     11  C   UNL     1      -0.085   9.855  21.224  0.00  0.00    +0.000 C 
BRANCH  11  17
ATOM     12  C   UNL     1      -1.932  11.626  23.035  0.00  0.00    +0.000 C 
ATOM     13  N   UNL     1      -0.757  12.053  22.327  0.00  0.00    +0.000 N 
ATOM     14  C   UNL     1      -0.266  13.322  22.294  0.00  0.00    +0.000 A 
ATOM     15  N   UNL     1       0.814  13.354  21.551  0.00  0.00    +0.000 NA
ATOM     16  N   UNL     1       1.034  12.082  21.082  0.00  0.00    +0.000 NA
ATOM     17  C   UNL     1       0.080  11.298  21.547  0.00  0.00    +0.000 A 
ENDBRANCH  11  17
ENDBRANCH  10  11
ENDBRANCH   4  10
ENDBRANCH   1   8
BRANCH   1  18
ATOM     18  C   UNL     1       3.496   3.897  19.996  0.00  0.00    +0.000 C 
BRANCH  18  19
ATOM     19  N   UNL     1       4.380   4.165  18.877  0.00  0.00    +0.000 N 
ATOM     20  C   UNL     1       5.307   5.279  18.859  0.00  0.00    +0.000 C 
ATOM     21  C   UNL     1       5.942   5.152  17.513  0.00  0.00    +0.000 A 
ATOM     22  C   UNL     1       5.403   4.053  16.844  0.00  0.00    +0.000 A 
ATOM     23  C   UNL     1       5.797   3.681  15.574  0.00  0.00    +0.000 A 
ATOM     24  C   UNL     1       6.782   4.454  14.961  0.00  0.00    +0.000 A 
ATOM     25  C   UNL     1       7.321   5.580  15.615  0.00  0.00    +0.000 A 
ATOM     26  C   UNL     1       6.897   5.958  16.904  0.00  0.00    +0.000 A 
ATOM     27  C   UNL     1       4.390   3.434  17.707  0.00  0.00    +0.000 C 
ATOM     28  O   UNL     1       3.706   2.474  17.401  0.00  0.00    +0.000 OA
BRANCH  26  29
ATOM     29  C   UNL     1       7.451   7.194  17.558  0.00  0.00    +0.000 C 
ATOM     30  F   UNL     1       8.343   7.877  16.787  0.00  0.00    +0.000 F 
ATOM     31  F   UNL     1       6.481   8.092  17.882  0.00  0.00    +0.000 F 
ATOM     32  F   UNL     1       8.107   6.916  18.719  0.00  0.00    +0.000 F 
ENDBRANCH  26  29
ENDBRANCH  18  19
ENDBRANCH   1  18
TORSDOF 7
ENDMDL
MODEL 2
REMARK VINA RESULT:      -8.7      0.823      1.193
REMARK  Name = 
REMARK  8 active torsions:
REMARK  status: ('A' for Active; 'I' for Inactive)
REMARK    1  A    between atoms: C_1  and  N_2
REMARK    2  A    between atoms: C_6  and  C_7
REMARK    3  A    between atoms: C_7  and  C_8
REMARK    4  A    between atoms: C_8  and  N_9
REMARK    5  A    between atoms: C_13  and  C_14
REMARK    6  A    between atoms: C_14  and  C_15
REMARK    7  A    between atoms: C_15  and  N_16
REMARK    8  A    between atoms: C_23  and  C_24
REMARK                            x       y       z     vdW  Elec       q    Type
REMARK                         _______ _______ _______ _____ _____    ______ ____
ROOT
ATOM      1  C   UNL     1       2.203   4.428  19.884  0.00  0.00    +0.000 C 
ATOM      2  C   UNL     1       1.095   3.570  19.290  0.00  0.00    +0.000 C 
ATOM      3  C   UNL     1       1.109   3.827  20.765  0.00  0.00    +0.000 C 
ENDROOT
BRANCH   1   8
ATOM      4  N   UNL     1       1.863   8.308  20.385  0.00  0.00    +0.000 NA
ATOM      5  C   UNL     1       1.457   8.600  19.000  0.00  0.00    +0.000 C 
ATOM      6  C   UNL     1       2.361   7.862  18.002  0.00  0.00    +0.000 C 
ATOM      7  C   UNL     1       2.447   6.396  18.308  0.00  0.00    +0.000 C 
ATOM      8  C   UNL     1       2.148   5.899  19.528  0.00  0.00    +0.000 C 
ATOM      9  C   UNL     1       1.759   6.860  20.643  0.00  0.00    +0.000 C 
BRANCH   4  10
ATOM     10  C   UNL     1       1.021   9.057  21.352  0.00  0.00    +0.000 C 
BRANCH  10  11
ATOM     11  C   UNL     1      -0.089   9.890  20.681  0.00  0.00    +0.000 C 
BRANCH  11  17
ATOM     12  C   UNL     1      -2.109  12.182  19.975  0.00  0.00    +0.000 C 
ATOM     13  N   UNL     1      -1.543  11.901  21.265  0.00  0.00    +0.000 N 
ATOM     14  C   UNL     1      -1.764  12.616  22.403  0.00  0.00    +0.000 A 
ATOM     15  N   UNL     1      -1.089  12.083  23.393  0.00  0.00    +0.000 NA
ATOM     16  N   UNL     1      -0.407  11.000  22.896  0.00  0.00    +0.000 NA
ATOM     17  C   UNL     1      -0.678  10.895  21.608  0.00  0.00    +0.000 A 
ENDBRANCH  11  17
ENDBRANCH  10  11
ENDBRANCH   4  10
ENDBRANCH   1   8
BRANCH   1  18
ATOM     18  C   UNL     1       3.581   3.793  20.033  0.00  0.00    +0.000 C 
BRANCH  18  19
ATOM     19  N   UNL     1       4.427   4.081  18.890  0.00  0.00    +0.000 N 
ATOM     20  C   UNL     1       5.355   5.194  18.862  0.00  0.00    +0.000 C 
ATOM     21  C   UNL     1       5.943   5.092  17.493  0.00  0.00    +0.000 A 
ATOM     22  C   UNL     1       5.379   4.007  16.821  0.00  0.00    +0.000 A 
ATOM     23  C   UNL     1       5.729   3.659  15.532  0.00  0.00    +0.000 A 
ATOM     24  C   UNL     1       6.694   4.442  14.900  0.00  0.00    +0.000 A 
ATOM     25  C   UNL     1       7.257   5.555  15.557  0.00  0.00    +0.000 A 
ATOM     26  C   UNL     1       6.879   5.909  16.867  0.00  0.00    +0.000 A 
ATOM     27  C   UNL     1       4.396   3.373  17.707  0.00  0.00    +0.000 C 
ATOM     28  O   UNL     1       3.700   2.419  17.406  0.00  0.00    +0.000 OA
BRANCH  26  29
ATOM     29  C   UNL     1       7.457   7.131  17.525  0.00  0.00    +0.000 C 
ATOM     30  F   UNL     1       8.120   6.874  18.687  0.00  0.00    +0.000 F 
ATOM     31  F   UNL     1       8.350   7.780  16.728  0.00  0.00    +0.000 F 
ATOM     32  F   UNL     1       6.502   8.049  17.843  0.00  0.00    +0.000 F 
ENDBRANCH  26  29
ENDBRANCH  18  19
ENDBRANCH   1  18
TORSDOF 7
ENDMDL
MODEL 3
REMARK VINA RESULT:      -8.7      4.658      7.564
REMARK  Name = 
REMARK  8 active torsions:
REMARK  status: ('A' for Active; 'I' for Inactive)
REMARK    1  A    between atoms: C_1  and  N_2
REMARK    2  A    between atoms: C_6  and  C_7
REMARK    3  A    between atoms: C_7  and  C_8
REMARK    4  A    between atoms: C_8  and  N_9
REMARK    5  A    between atoms: C_13  and  C_14
REMARK    6  A    between atoms: C_14  and  C_15
REMARK    7  A    between atoms: C_15  and  N_16
REMARK    8  A    between atoms: C_23  and  C_24
REMARK                            x       y       z     vdW  Elec       q    Type
REMARK                         _______ _______ _______ _____ _____    ______ ____
ROOT
ATOM      1  C   UNL     1       6.256   5.239  15.910  0.00  0.00    +0.000 C 
ATOM      2  C   UNL     1       6.724   3.843  15.523  0.00  0.00    +0.000 C 
ATOM      3  C   UNL     1       7.084   5.005  14.648  0.00  0.00    +0.000 C 
ENDROOT
BRANCH   1   8
ATOM      4  N   UNL     1       7.695   7.968  18.340  0.00  0.00    +0.000 NA
ATOM      5  C   UNL     1       8.613   7.063  19.051  0.00  0.00    +0.000 C 
ATOM      6  C   UNL     1       7.901   5.756  19.429  0.00  0.00    +0.000 C 
ATOM      7  C   UNL     1       7.230   5.124  18.246  0.00  0.00    +0.000 C 
ATOM      8  C   UNL     1       6.919   5.830  17.137  0.00  0.00    +0.000 C 
ATOM      9  C   UNL     1       7.213   7.323  17.104  0.00  0.00    +0.000 C 
BRANCH   4  10
ATOM     10  C   UNL     1       8.365   9.252  18.014  0.00  0.00    +0.000 C 
BRANCH  10  11
ATOM     11  C   UNL     1       9.117   9.872  19.208  0.00  0.00    +0.000 C 
BRANCH  11  17
ATOM     12  C   UNL     1       9.787  12.330  21.037  0.00  0.00    +0.000 C 
ATOM     13  N   UNL     1      10.116  12.177  19.646  0.00  0.00    +0.000 N 
ATOM     14  C   UNL     1      10.749  13.101  18.873  0.00  0.00    +0.000 A 
ATOM     15  N   UNL     1      10.886  12.633  17.655  0.00  0.00    +0.000 NA
ATOM     16  N   UNL     1      10.327  11.379  17.627  0.00  0.00    +0.000 NA
ATOM     17  C   UNL     1       9.857  11.107  18.830  0.00  0.00    +0.000 A 
ENDBRANCH  11  17
ENDBRANCH  10  11
ENDBRANCH   4  10
ENDBRANCH   1   8
BRANCH   1  18
ATOM     18  C   UNL     1       4.788   5.579  15.672  0.00  0.00    +0.000 C 
BRANCH  18  19
ATOM     19  N   UNL     1       4.014   5.484  16.895  0.00  0.00    +0.000 N 
ATOM     20  C   UNL     1       3.536   4.222  17.425  0.00  0.00    +0.000 C 
ATOM     21  C   UNL     1       2.778   4.646  18.640  0.00  0.00    +0.000 A 
ATOM     22  C   UNL     1       2.835   6.034  18.766  0.00  0.00    +0.000 A 
ATOM     23  C   UNL     1       2.226   6.719  19.798  0.00  0.00    +0.000 A 
ATOM     24  C   UNL     1       1.535   5.963  20.744  0.00  0.00    +0.000 A 
ATOM     25  C   UNL     1       1.450   4.561  20.619  0.00  0.00    +0.000 A 
ATOM     26  C   UNL     1       2.062   3.877  19.551  0.00  0.00    +0.000 A 
ATOM     27  C   UNL     1       3.608   6.571  17.640  0.00  0.00    +0.000 C 
ATOM     28  O   UNL     1       3.810   7.755  17.435  0.00  0.00    +0.000 OA
BRANCH  26  29
ATOM     29  C   UNL     1       1.912   2.386  19.413  0.00  0.00    +0.000 C 
ATOM     30  F   UNL     1       3.074   1.738  19.122  0.00  0.00    +0.000 F 
ATOM     31  F   UNL     1       1.439   1.803  20.547  0.00  0.00    +0.000 F 
ATOM     32  F   UNL     1       1.042   2.043  18.423  0.00  0.00    +0.000 F 
ENDBRANCH  26  29
ENDBRANCH  18  19
ENDBRANCH   1  18
TORSDOF 7
ENDMDL
MODEL 4
REMARK VINA RESULT:      -8.6      0.765      1.218
REMARK  Name = 
REMARK  8 active torsions:
REMARK  status: ('A' for Active; 'I' for Inactive)
REMARK    1  A    between atoms: C_1  and  N_2
REMARK    2  A    between atoms: C_6  and  C_7
REMARK    3  A    between atoms: C_7  and  C_8
REMARK    4  A    between atoms: C_8  and  N_9
REMARK    5  A    between atoms: C_13  and  C_14
REMARK    6  A    between atoms: C_14  and  C_15
REMARK    7  A    between atoms: C_15  and  N_16
REMARK    8  A    between atoms: C_23  and  C_24
REMARK                            x       y       z     vdW  Elec       q    Type
REMARK                         _______ _______ _______ _____ _____    ______ ____
ROOT
ATOM      1  C   UNL     1       2.199   4.366  19.896  0.00  0.00    +0.000 C 
ATOM      2  C   UNL     1       1.093   3.489  19.326  0.00  0.00    +0.000 C 
ATOM      3  C   UNL     1       1.113   3.778  20.795  0.00  0.00    +0.000 C 
ENDROOT
BRANCH   1   8
ATOM      4  N   UNL     1       1.840   8.254  20.315  0.00  0.00    +0.000 NA
ATOM      5  C   UNL     1       1.423   8.514  18.928  0.00  0.00    +0.000 C 
ATOM      6  C   UNL     1       2.326   7.760  17.940  0.00  0.00    +0.000 C 
ATOM      7  C   UNL     1       2.421   6.301  18.276  0.00  0.00    +0.000 C 
ATOM      8  C   UNL     1       2.133   5.829  19.508  0.00  0.00    +0.000 C 
ATOM      9  C   UNL     1       1.745   6.811  20.605  0.00  0.00    +0.000 C 
BRANCH   4  10
ATOM     10  C   UNL     1       1.000   9.019  21.272  0.00  0.00    +0.000 C 
BRANCH  10  11
ATOM     11  C   UNL     1       0.027   9.999  20.586  0.00  0.00    +0.000 C 
BRANCH  11  17
ATOM     12  C   UNL     1       1.634  12.043  18.834  0.00  0.00    +0.000 C 
ATOM     13  N   UNL     1       1.062  12.284  20.130  0.00  0.00    +0.000 N 
ATOM     14  C   UNL     1       1.156  13.443  20.837  0.00  0.00    +0.000 A 
ATOM     15  N   UNL     1       0.521  13.312  21.978  0.00  0.00    +0.000 NA
ATOM     16  N   UNL     1       0.005  12.041  22.023  0.00  0.00    +0.000 NA
ATOM     17  C   UNL     1       0.337  11.419  20.907  0.00  0.00    +0.000 A 
ENDBRANCH  11  17
ENDBRANCH  10  11
ENDBRANCH   4  10
ENDBRANCH   1   8
BRANCH   1  18
ATOM     18  C   UNL     1       3.581   3.742  20.051  0.00  0.00    +0.000 C 
BRANCH  18  19
ATOM     19  N   UNL     1       4.432   4.043  18.915  0.00  0.00    +0.000 N 
ATOM     20  C   UNL     1       5.348   5.166  18.896  0.00  0.00    +0.000 C 
ATOM     21  C   UNL     1       5.947   5.076  17.532  0.00  0.00    +0.000 A 
ATOM     22  C   UNL     1       5.400   3.986  16.853  0.00  0.00    +0.000 A 
ATOM     23  C   UNL     1       5.763   3.647  15.565  0.00  0.00    +0.000 A 
ATOM     24  C   UNL     1       6.723   4.443  14.942  0.00  0.00    +0.000 A 
ATOM     25  C   UNL     1       7.270   5.559  15.607  0.00  0.00    +0.000 A 
ATOM     26  C   UNL     1       6.878   5.905  16.915  0.00  0.00    +0.000 A 
ATOM     27  C   UNL     1       4.418   3.339  17.729  0.00  0.00    +0.000 C 
ATOM     28  O   UNL     1       3.734   2.379  17.420  0.00  0.00    +0.000 OA
BRANCH  26  29
ATOM     29  C   UNL     1       7.438   7.131  17.581  0.00  0.00    +0.000 C 
ATOM     30  F   UNL     1       8.335   7.816  16.818  0.00  0.00    +0.000 F 
ATOM     31  F   UNL     1       6.473   8.032  17.912  0.00  0.00    +0.000 F 
ATOM     32  F   UNL     1       8.090   6.839  18.740  0.00  0.00    +0.000 F 
ENDBRANCH  26  29
ENDBRANCH  18  19
ENDBRANCH   1  18
TORSDOF 7
ENDMDL
MODEL 5
REMARK VINA RESULT:      -8.3      4.646      9.649
REMARK  Name = 
REMARK  8 active torsions:
REMARK  status: ('A' for Active; 'I' for Inactive)
REMARK    1  A    between atoms: C_1  and  N_2
REMARK    2  A    between atoms: C_6  and  C_7
REMARK    3  A    between atoms: C_7  and  C_8
REMARK    4  A    between atoms: C_8  and  N_9
REMARK    5  A    between atoms: C_13  and  C_14
REMARK    6  A    between atoms: C_14  and  C_15
REMARK    7  A    between atoms: C_15  and  N_16
REMARK    8  A    between atoms: C_23  and  C_24
REMARK                            x       y       z     vdW  Elec       q    Type
REMARK                         _______ _______ _______ _____ _____    ______ ____
ROOT
ATOM      1  C   UNL     1       0.799   9.572  20.780  0.00  0.00    +0.000 C 
ATOM      2  C   UNL     1       1.091   9.168  22.218  0.00  0.00    +0.000 C 
ATOM      3  C   UNL     1      -0.272   8.918  21.650  0.00  0.00    +0.000 C 
ENDROOT
BRANCH   1   8
ATOM      4  N   UNL     1       2.593   6.498  19.118  0.00  0.00    +0.000 NA
ATOM      5  C   UNL     1       3.297   7.278  18.087  0.00  0.00    +0.000 C 
ATOM      6  C   UNL     1       2.342   8.278  17.418  0.00  0.00    +0.000 C 
ATOM      7  C   UNL     1       1.625   9.125  18.427  0.00  0.00    +0.000 C 
ATOM      8  C   UNL     1       1.500   8.749  19.719  0.00  0.00    +0.000 C 
ATOM      9  C   UNL     1       2.061   7.403  20.155  0.00  0.00    +0.000 C 
BRANCH   4  10
ATOM     10  C   UNL     1       3.500   5.498  19.735  0.00  0.00    +0.000 C 
BRANCH  10  11
ATOM     11  C   UNL     1       4.005   4.433  18.742  0.00  0.00    +0.000 C 
BRANCH  11  17
ATOM     12  C   UNL     1       5.403   4.182  15.947  0.00  0.00    +0.000 C 
ATOM     13  N   UNL     1       6.040   4.449  17.207  0.00  0.00    +0.000 N 
ATOM     14  C   UNL     1       7.378   4.602  17.405  0.00  0.00    +0.000 A 
ATOM     15  N   UNL     1       7.610   4.832  18.675  0.00  0.00    +0.000 NA
ATOM     16  N   UNL     1       6.401   4.823  19.326  0.00  0.00    +0.000 NA
ATOM     17  C   UNL     1       5.454   4.586  18.438  0.00  0.00    +0.000 A 
ENDBRANCH  11  17
ENDBRANCH  10  11
ENDBRANCH   4  10
ENDBRANCH   1   8
BRANCH   1  18
ATOM     18  C   UNL     1       0.591  11.055  20.495  0.00  0.00    +0.000 C 
BRANCH  18  19
ATOM     19  N   UNL     1      -0.758  11.325  20.036  0.00  0.00    +0.000 N 
ATOM     20  C   UNL     1      -1.251  10.886  18.746  0.00  0.00    +0.000 C 
ATOM     21  C   UNL     1      -2.641  11.430  18.726  0.00  0.00    +0.000 A 
ATOM     22  C   UNL     1      -2.891  12.118  19.915  0.00  0.00    +0.000 A 
ATOM     23  C   UNL     1      -4.098  12.731  20.187  0.00  0.00    +0.000 A 
ATOM     24  C   UNL     1      -5.093  12.638  19.215  0.00  0.00    +0.000 A 
ATOM     25  C   UNL     1      -4.849  11.966  18.000  0.00  0.00    +0.000 A 
ATOM     26  C   UNL     1      -3.607  11.359  17.728  0.00  0.00    +0.000 A 
ATOM     27  C   UNL     1      -1.681  12.068  20.743  0.00  0.00    +0.000 C 
ATOM     28  O   UNL     1      -1.557  12.606  21.829  0.00  0.00    +0.000 OA
BRANCH  26  29
ATOM     29  C   UNL     1      -3.356  10.693  16.403  0.00  0.00    +0.000 C 
ATOM     30  F   UNL     1      -3.004   9.381  16.500  0.00  0.00    +0.000 F 
ATOM     31  F   UNL     1      -4.448  10.721  15.590  0.00  0.00    +0.000 F 
ATOM     32  F   UNL     1      -2.353  11.292  15.705  0.00  0.00    +0.000 F 
ENDBRANCH  26  29
ENDBRANCH  18  19
ENDBRANCH   1  18
TORSDOF 7
ENDMDL
MODEL 6
REMARK VINA RESULT:      -7.9      4.585      7.472
REMARK  Name = 
REMARK  8 active torsions:
REMARK  status: ('A' for Active; 'I' for Inactive)
REMARK    1  A    between atoms: C_1  and  N_2
REMARK    2  A    between atoms: C_6  and  C_7
REMARK    3  A    between atoms: C_7  and  C_8
REMARK    4  A    between atoms: C_8  and  N_9
REMARK    5  A    between atoms: C_13  and  C_14
REMARK    6  A    between atoms: C_14  and  C_15
REMARK    7  A    between atoms: C_15  and  N_16
REMARK    8  A    between atoms: C_23  and  C_24
REMARK                            x       y       z     vdW  Elec       q    Type
REMARK                         _______ _______ _______ _____ _____    ______ ____
ROOT
ATOM      1  C   UNL     1       6.164   5.138  15.885  0.00  0.00    +0.000 C 
ATOM      2  C   UNL     1       6.667   3.753  15.499  0.00  0.00    +0.000 C 
ATOM      3  C   UNL     1       6.992   4.921  14.620  0.00  0.00    +0.000 C 
ENDROOT
BRANCH   1   8
ATOM      4  N   UNL     1       7.813   7.866  18.179  0.00  0.00    +0.000 NA
ATOM      5  C   UNL     1       8.535   6.916  19.042  0.00  0.00    +0.000 C 
ATOM      6  C   UNL     1       7.614   5.765  19.472  0.00  0.00    +0.000 C 
ATOM      7  C   UNL     1       6.943   5.120  18.296  0.00  0.00    +0.000 C 
ATOM      8  C   UNL     1       6.818   5.749  17.107  0.00  0.00    +0.000 C 
ATOM      9  C   UNL     1       7.331   7.176  16.968  0.00  0.00    +0.000 C 
BRANCH   4  10
ATOM     10  C   UNL     1       8.686   9.005  17.799  0.00  0.00    +0.000 C 
BRANCH  10  11
ATOM     11  C   UNL     1       8.159  10.370  18.283  0.00  0.00    +0.000 C 
BRANCH  11  17
ATOM     12  C   UNL     1       7.583  13.347  17.484  0.00  0.00    +0.000 C 
ATOM     13  N   UNL     1       8.871  12.751  17.712  0.00  0.00    +0.000 N 
ATOM     14  C   UNL     1      10.072  13.378  17.581  0.00  0.00    +0.000 A 
ATOM     15  N   UNL     1      11.038  12.537  17.863  0.00  0.00    +0.000 NA
ATOM     16  N   UNL     1      10.461  11.333  18.181  0.00  0.00    +0.000 NA
ATOM     17  C   UNL     1       9.151  11.462  18.083  0.00  0.00    +0.000 A 
ENDBRANCH  11  17
ENDBRANCH  10  11
ENDBRANCH   4  10
ENDBRANCH   1   8
BRANCH   1  18
ATOM     18  C   UNL     1       4.688   5.440  15.654  0.00  0.00    +0.000 C 
BRANCH  18  19
ATOM     19  N   UNL     1       3.938   5.417  16.895  0.00  0.00    +0.000 N 
ATOM     20  C   UNL     1       3.430   4.193  17.483  0.00  0.00    +0.000 C 
ATOM     21  C   UNL     1       2.714   4.688  18.696  0.00  0.00    +0.000 A 
ATOM     22  C   UNL     1       2.820   6.077  18.768  0.00  0.00    +0.000 A 
ATOM     23  C   UNL     1       2.257   6.821  19.786  0.00  0.00    +0.000 A 
ATOM     24  C   UNL     1       1.562   6.125  20.774  0.00  0.00    +0.000 A 
ATOM     25  C   UNL     1       1.428   4.723  20.705  0.00  0.00    +0.000 A 
ATOM     26  C   UNL     1       1.993   3.978  19.651  0.00  0.00    +0.000 A 
ATOM     27  C   UNL     1       3.585   6.545  17.607  0.00  0.00    +0.000 C 
ATOM     28  O   UNL     1       3.823   7.713  17.353  0.00  0.00    +0.000 OA
BRANCH  26  29
ATOM     29  C   UNL     1       1.790   2.490  19.573  0.00  0.00    +0.000 C 
ATOM     30  F   UNL     1       1.250   1.945  20.698  0.00  0.00    +0.000 F 
ATOM     31  F   UNL     1       0.961   2.130  18.555  0.00  0.00    +0.000 F 
ATOM     32  F   UNL     1       2.956   1.819  19.362  0.00  0.00    +0.000 F 
ENDBRANCH  26  29
ENDBRANCH  18  19
ENDBRANCH   1  18
TORSDOF 7
ENDMDL
MODEL 7
REMARK VINA RESULT:      -7.9      0.792      1.210
REMARK  Name = 
REMARK  8 active torsions:
REMARK  status: ('A' for Active; 'I' for Inactive)
REMARK    1  A    between atoms: C_1  and  N_2
REMARK    2  A    between atoms: C_6  and  C_7
REMARK    3  A    between atoms: C_7  and  C_8
REMARK    4  A    between atoms: C_8  and  N_9
REMARK    5  A    between atoms: C_13  and  C_14
REMARK    6  A    between atoms: C_14  and  C_15
REMARK    7  A    between atoms: C_15  and  N_16
REMARK    8  A    between atoms: C_23  and  C_24
REMARK                            x       y       z     vdW  Elec       q    Type
REMARK                         _______ _______ _______ _____ _____    ______ ____
ROOT
ATOM      1  C   UNL     1       2.161   4.428  19.817  0.00  0.00    +0.000 C 
ATOM      2  C   UNL     1       1.069   3.550  19.221  0.00  0.00    +0.000 C 
ATOM      3  C   UNL     1       1.054   3.839  20.690  0.00  0.00    +0.000 C 
ENDROOT
BRANCH   1   8
ATOM      4  N   UNL     1       1.874   8.321  20.240  0.00  0.00    +0.000 NA
ATOM      5  C   UNL     1       1.415   8.585  18.866  0.00  0.00    +0.000 C 
ATOM      6  C   UNL     1       2.274   7.815  17.851  0.00  0.00    +0.000 C 
ATOM      7  C   UNL     1       2.359   6.356  18.187  0.00  0.00    +0.000 C 
ATOM      8  C   UNL     1       2.104   5.890  19.429  0.00  0.00    +0.000 C 
ATOM      9  C   UNL     1       1.767   6.880  20.536  0.00  0.00    +0.000 C 
BRANCH   4  10
ATOM     10  C   UNL     1       1.077   9.100  21.221  0.00  0.00    +0.000 C 
BRANCH  10  11
ATOM     11  C   UNL     1       0.694  10.508  20.722  0.00  0.00    +0.000 C 
BRANCH  11  17
ATOM     12  C   UNL     1      -0.264   9.637  23.578  0.00  0.00    +0.000 C 
ATOM     13  N   UNL     1      -0.799  10.706  22.779  0.00  0.00    +0.000 N 
ATOM     14  C   UNL     1      -1.848  11.504  23.119  0.00  0.00    +0.000 A 
ATOM     15  N   UNL     1      -2.068  12.369  22.158  0.00  0.00    +0.000 NA
ATOM     16  N   UNL     1      -1.149  12.132  21.166  0.00  0.00    +0.000 NA
ATOM     17  C   UNL     1      -0.386  11.122  21.540  0.00  0.00    +0.000 A 
ENDBRANCH  11  17
ENDBRANCH  10  11
ENDBRANCH   4  10
ENDBRANCH   1   8
BRANCH   1  18
ATOM     18  C   UNL     1       3.539   3.804  20.005  0.00  0.00    +0.000 C 
BRANCH  18  19
ATOM     19  N   UNL     1       4.412   4.091  18.883  0.00  0.00    +0.000 N 
ATOM     20  C   UNL     1       5.343   5.201  18.876  0.00  0.00    +0.000 C 
ATOM     21  C   UNL     1       5.962   5.099  17.521  0.00  0.00    +0.000 A 
ATOM     22  C   UNL     1       5.411   4.016  16.836  0.00  0.00    +0.000 A 
ATOM     23  C   UNL     1       5.789   3.668  15.554  0.00  0.00    +0.000 A 
ATOM     24  C   UNL     1       6.770   4.450  14.945  0.00  0.00    +0.000 A 
ATOM     25  C   UNL     1       7.321   5.561  15.615  0.00  0.00    +0.000 A 
ATOM     26  C   UNL     1       6.913   5.914  16.917  0.00  0.00    +0.000 A 
ATOM     27  C   UNL     1       4.406   3.383  17.698  0.00  0.00    +0.000 C 
ATOM     28  O   UNL     1       3.715   2.432  17.381  0.00  0.00    +0.000 OA
BRANCH  26  29
ATOM     29  C   UNL     1       7.479   7.135  17.589  0.00  0.00    +0.000 C 
ATOM     30  F   UNL     1       6.544   8.068  17.921  0.00  0.00    +0.000 F 
ATOM     31  F   UNL     1       8.130   6.839  18.746  0.00  0.00    +0.000 F 
ATOM     32  F   UNL     1       8.384   7.785  16.805  0.00  0.00    +0.000 F 
ENDBRANCH  26  29
ENDBRANCH  18  19
ENDBRANCH   1  18
TORSDOF 7
ENDMDL
MODEL 8
REMARK VINA RESULT:      -7.8      4.010      7.129
REMARK  Name = 
REMARK  8 active torsions:
REMARK  status: ('A' for Active; 'I' for Inactive)
REMARK    1  A    between atoms: C_1  and  N_2
REMARK    2  A    between atoms: C_6  and  C_7
REMARK    3  A    between atoms: C_7  and  C_8
REMARK    4  A    between atoms: C_8  and  N_9
REMARK    5  A    between atoms: C_13  and  C_14
REMARK    6  A    between atoms: C_14  and  C_15
REMARK    7  A    between atoms: C_15  and  N_16
REMARK    8  A    between atoms: C_23  and  C_24
REMARK                            x       y       z     vdW  Elec       q    Type
REMARK                         _______ _______ _______ _____ _____    ______ ____
ROOT
ATOM      1  C   UNL     1       6.086   4.800  15.973  0.00  0.00    +0.000 C 
ATOM      2  C   UNL     1       7.005   4.389  14.832  0.00  0.00    +0.000 C 
ATOM      3  C   UNL     1       5.990   5.467  14.602  0.00  0.00    +0.000 C 
ENDROOT
BRANCH   1   8
ATOM      4  N   UNL     1       7.507   7.811  18.057  0.00  0.00    +0.000 NA
ATOM      5  C   UNL     1       8.454   7.008  18.848  0.00  0.00    +0.000 C 
ATOM      6  C   UNL     1       7.774   5.739  19.383  0.00  0.00    +0.000 C 
ATOM      7  C   UNL     1       7.098   4.966  18.289  0.00  0.00    +0.000 C 
ATOM      8  C   UNL     1       6.755   5.538  17.114  0.00  0.00    +0.000 C 
ATOM      9  C   UNL     1       7.019   7.023  16.909  0.00  0.00    +0.000 C 
BRANCH   4  10
ATOM     10  C   UNL     1       8.146   9.062  17.577  0.00  0.00    +0.000 C 
BRANCH  10  11
ATOM     11  C   UNL     1       8.614   9.988  18.717  0.00  0.00    +0.000 C 
BRANCH  11  17
ATOM     12  C   UNL     1       7.816  12.698  17.358  0.00  0.00    +0.000 C 
ATOM     13  N   UNL     1       9.148  12.228  17.623  0.00  0.00    +0.000 N 
ATOM     14  C   UNL     1      10.300  12.873  17.290  0.00  0.00    +0.000 A 
ATOM     15  N   UNL     1      11.329  12.159  17.679  0.00  0.00    +0.000 NA
ATOM     16  N   UNL     1      10.844  11.021  18.274  0.00  0.00    +0.000 NA
ATOM     17  C   UNL     1       9.526  11.061  18.234  0.00  0.00    +0.000 A 
ENDBRANCH  11  17
ENDBRANCH  10  11
ENDBRANCH   4  10
ENDBRANCH   1   8
BRANCH   1  18
ATOM     18  C   UNL     1       4.935   3.862  16.322  0.00  0.00    +0.000 C 
BRANCH  18  19
ATOM     19  N   UNL     1       4.107   4.406  17.381  0.00  0.00    +0.000 N 
ATOM     20  C   UNL     1       3.587   5.759  17.355  0.00  0.00    +0.000 C 
ATOM     21  C   UNL     1       2.852   5.851  18.651  0.00  0.00    +0.000 A 
ATOM     22  C   UNL     1       2.961   4.641  19.337  0.00  0.00    +0.000 A 
ATOM     23  C   UNL     1       2.379   4.423  20.570  0.00  0.00    +0.000 A 
ATOM     24  C   UNL     1       1.653   5.475  21.127  0.00  0.00    +0.000 A 
ATOM     25  C   UNL     1       1.551   6.710  20.457  0.00  0.00    +0.000 A 
ATOM     26  C   UNL     1       2.164   6.925  19.206  0.00  0.00    +0.000 A 
ATOM     27  C   UNL     1       3.779   3.724  18.535  0.00  0.00    +0.000 C 
ATOM     28  O   UNL     1       4.096   2.597  18.872  0.00  0.00    +0.000 OA
BRANCH  26  29
ATOM     29  C   UNL     1       2.084   8.269  18.537  0.00  0.00    +0.000 C 
ATOM     30  F   UNL     1       1.629   9.265  19.347  0.00  0.00    +0.000 F 
ATOM     31  F   UNL     1       3.291   8.694  18.074  0.00  0.00    +0.000 F 
ATOM     32  F   UNL     1       1.251   8.262  17.460  0.00  0.00    +0.000 F 
ENDBRANCH  26  29
ENDBRANCH  18  19
ENDBRANCH   1  18
TORSDOF 7
ENDMDL
MODEL 9
REMARK VINA RESULT:      -7.7      5.052      9.740
REMARK  Name = 
REMARK  8 active torsions:
REMARK  status: ('A' for Active; 'I' for Inactive)
REMARK    1  A    between atoms: C_1  and  N_2
REMARK    2  A    between atoms: C_6  and  C_7
REMARK    3  A    between atoms: C_7  and  C_8
REMARK    4  A    between atoms: C_8  and  N_9
REMARK    5  A    between atoms: C_13  and  C_14
REMARK    6  A    between atoms: C_14  and  C_15
REMARK    7  A    between atoms: C_15  and  N_16
REMARK    8  A    between atoms: C_23  and  C_24
REMARK                            x       y       z     vdW  Elec       q    Type
REMARK                         _______ _______ _______ _____ _____    ______ ____
ROOT
ATOM      1  C   UNL     1       0.585  11.590  20.143  0.00  0.00    +0.000 C 
ATOM      2  C   UNL     1       0.791  12.872  19.349  0.00  0.00    +0.000 C 
ATOM      3  C   UNL     1       1.584  12.651  20.600  0.00  0.00    +0.000 C 
ENDROOT
BRANCH   1   8
ATOM      4  N   UNL     1       1.378   7.775  19.652  0.00  0.00    +0.000 NA
ATOM      5  C   UNL     1       2.463   7.974  18.677  0.00  0.00    +0.000 C 
ATOM      6  C   UNL     1       2.046   8.989  17.602  0.00  0.00    +0.000 C 
ATOM      7  C   UNL     1       1.539  10.264  18.207  0.00  0.00    +0.000 C 
ATOM      8  C   UNL     1       1.093  10.326  19.481  0.00  0.00    +0.000 C 
ATOM      9  C   UNL     1       1.058   9.053  20.315  0.00  0.00    +0.000 C 
BRANCH   4  10
ATOM     10  C   UNL     1       1.758   6.760  20.667  0.00  0.00    +0.000 C 
BRANCH  10  11
ATOM     11  C   UNL     1       2.711   5.676  20.123  0.00  0.00    +0.000 C 
BRANCH  11  17
ATOM     12  C   UNL     1       1.601   3.069  21.463  0.00  0.00    +0.000 C 
ATOM     13  N   UNL     1       1.524   3.421  20.072  0.00  0.00    +0.000 N 
ATOM     14  C   UNL     1       0.982   2.654  19.087  0.00  0.00    +0.000 A 
ATOM     15  N   UNL     1       1.082   3.281  17.939  0.00  0.00    +0.000 NA
ATOM     16  N   UNL     1       1.707   4.480  18.174  0.00  0.00    +0.000 NA
ATOM     17  C   UNL     1       1.979   4.561  19.463  0.00  0.00    +0.000 A 
ENDBRANCH  11  17
ENDBRANCH  10  11
ENDBRANCH   4  10
ENDBRANCH   1   8
BRANCH   1  18
ATOM     18  C   UNL     1      -0.680  11.481  20.987  0.00  0.00    +0.000 C 
BRANCH  18  19
ATOM     19  N   UNL     1      -1.874  11.646  20.180  0.00  0.00    +0.000 N 
ATOM     20  C   UNL     1      -2.011  11.076  18.855  0.00  0.00    +0.000 C 
ATOM     21  C   UNL     1      -3.363  11.550  18.434  0.00  0.00    +0.000 A 
ATOM     22  C   UNL     1      -3.925  12.322  19.452  0.00  0.00    +0.000 A 
ATOM     23  C   UNL     1      -5.176  12.897  19.353  0.00  0.00    +0.000 A 
ATOM     24  C   UNL     1      -5.888  12.676  18.174  0.00  0.00    +0.000 A 
ATOM     25  C   UNL     1      -5.326  11.915  17.129  0.00  0.00    +0.000 A 
ATOM     26  C   UNL     1      -4.041  11.348  17.236  0.00  0.00    +0.000 A 
ATOM     27  C   UNL     1      -2.966  12.400  20.559  0.00  0.00    +0.000 C 
ATOM     28  O   UNL     1      -3.136  13.034  21.585  0.00  0.00    +0.000 OA
BRANCH  26  29
ATOM     29  C   UNL     1      -3.443  10.586  16.086  0.00  0.00    +0.000 C 
ATOM     30  F   UNL     1      -3.001   9.341  16.416  0.00  0.00    +0.000 F 
ATOM     31  F   UNL     1      -4.327  10.404  15.066  0.00  0.00    +0.000 F 
ATOM     32  F   UNL     1      -2.371  11.225  15.543  0.00  0.00    +0.000 F 
ENDBRANCH  26  29
ENDBRANCH  18  19
ENDBRANCH   1  18
TORSDOF 7
ENDMDL
