MODEL 1
REMARK VINA RESULT:      -7.8      0.000      0.000
REMARK  Name = 
REMARK  3 active torsions:
REMARK  status: ('A' for Active; 'I' for Inactive)
REMARK    1  A    between atoms: C_1  and  C_2
REMARK    2  A    between atoms: C_9  and  C_10
REMARK    3  A    between atoms: C_17  and  C_18
REMARK                            x       y       z     vdW  Elec       q    Type
REMARK                         _______ _______ _______ _____ _____    ______ ____
ROOT
ATOM      1  C   UNL     1      -5.059  12.698  20.155  0.00  0.00    +0.000 C 
ATOM      2  O   UNL     1      -6.231  12.314  20.103  0.00  0.00    +0.000 OA
ATOM      3  N   UNL     1      -4.138  12.187  19.274  0.00  0.00    +0.000 N 
ATOM      4  C   UNL     1      -4.583  11.299  18.181  0.00  0.00    +0.000 C 
ATOM      5  C   UNL     1      -3.491  11.466  17.136  0.00  0.00    +0.000 C 
ATOM      6  C   UNL     1      -2.341  11.460  18.102  0.00  0.00    +0.000 A 
ATOM      7  C   UNL     1      -1.158  10.768  17.973  0.00  0.00    +0.000 A 
ATOM      8  C   UNL     1      -0.377  10.566  19.123  0.00  0.00    +0.000 A 
ATOM      9  C   UNL     1      -0.698  11.298  20.295  0.00  0.00    +0.000 A 
ATOM     10  C   UNL     1      -1.881  12.045  20.405  0.00  0.00    +0.000 A 
ATOM     11  C   UNL     1      -2.741  12.015  19.327  0.00  0.00    +0.000 A 
ENDROOT
BRANCH   1  20
ATOM     12  C   UNL     1      -2.860  18.131  23.179  0.00  0.00    +0.000 C 
ATOM     13  C   UNL     1      -3.045  16.731  23.687  0.00  0.00    +0.000 A 
ATOM     14  C   UNL     1      -2.625  16.344  24.902  0.00  0.00    +0.000 A 
ATOM     15  C   UNL     1      -2.835  15.005  25.372  0.00  0.00    +0.000 A 
ATOM     16  C   UNL     1      -3.442  14.118  24.580  0.00  0.00    +0.000 A 
ATOM     17  N   UNL     1      -3.850  14.435  23.298  0.00  0.00    +0.000 N 
ATOM     18  C   UNL     1      -4.490  13.442  22.548  0.00  0.00    +0.000 A 
ATOM     19  O   UNL     1      -4.878  12.388  23.038  0.00  0.00    +0.000 OA
ATOM     20  C   UNL     1      -4.662  13.763  21.117  0.00  0.00    +0.000 A 
ATOM     21  C   UNL     1      -4.553  15.054  20.782  0.00  0.00    +0.000 A 
ATOM     22  N   UNL     1      -4.083  16.053  21.589  0.00  0.00    +0.000 NA
ATOM     23  C   UNL     1      -3.697  15.721  22.785  0.00  0.00    +0.000 A 
ENDBRANCH   1  20
BRANCH   8  24
ATOM     24  C   UNL     1       0.619   9.471  19.148  0.00  0.00    +0.000 A 
ATOM     25  C   UNL     1       0.846   8.746  20.342  0.00  0.00    +0.000 A 
ATOM     26  C   UNL     1       1.798   7.726  20.418  0.00  0.00    +0.000 A 
ATOM     27  C   UNL     1       2.568   7.431  19.302  0.00  0.00    +0.000 A 
ATOM     28  C   UNL     1       2.385   8.163  18.135  0.00  0.00    +0.000 A 
ATOM     29  F   UNL     1       3.153   7.897  17.069  0.00  0.00    +0.000 F 
ATOM     30  C   UNL     1       1.428   9.170  18.049  0.00  0.00    +0.000 A 
ENDBRANCH   8  24
TORSDOF 2
ENDMDL
MODEL 2
REMARK VINA RESULT:      -7.6      4.345      5.479
REMARK  Name = 
REMARK  3 active torsions:
REMARK  status: ('A' for Active; 'I' for Inactive)
REMARK    1  A    between atoms: C_1  and  C_2
REMARK    2  A    between atoms: C_9  and  C_10
REMARK    3  A    between atoms: C_17  and  C_18
REMARK                            x       y       z     vdW  Elec       q    Type
REMARK                         _______ _______ _______ _____ _____    ______ ____
ROOT
ATOM      1  C   UNL     1      -0.094  14.696  22.103  0.00  0.00    +0.000 C 
ATOM      2  O   UNL     1      -0.022  15.111  23.262  0.00  0.00    +0.000 OA
ATOM      3  N   UNL     1      -0.436  13.386  21.871  0.00  0.00    +0.000 N 
ATOM      4  C   UNL     1      -0.857  12.528  22.997  0.00  0.00    +0.000 C 
ATOM      5  C   UNL     1      -1.705  11.464  22.319  0.00  0.00    +0.000 C 
ATOM      6  C   UNL     1      -0.811  11.279  21.126  0.00  0.00    +0.000 A 
ATOM      7  C   UNL     1      -0.412  10.086  20.568  0.00  0.00    +0.000 A 
ATOM      8  C   UNL     1       0.710  10.088  19.724  0.00  0.00    +0.000 A 
ATOM      9  C   UNL     1       1.216  11.335  19.275  0.00  0.00    +0.000 A 
ATOM     10  C   UNL     1       0.770  12.554  19.810  0.00  0.00    +0.000 A 
ATOM     11  C   UNL     1      -0.168  12.488  20.819  0.00  0.00    +0.000 A 
ENDROOT
BRANCH   1  20
ATOM     12  C   UNL     1      -0.639  18.628  16.836  0.00  0.00    +0.000 C 
ATOM     13  C   UNL     1       0.545  17.895  17.395  0.00  0.00    +0.000 A 
ATOM     14  C   UNL     1       1.726  17.842  16.760  0.00  0.00    +0.000 A 
ATOM     15  C   UNL     1       2.849  17.153  17.329  0.00  0.00    +0.000 A 
ATOM     16  C   UNL     1       2.714  16.536  18.504  0.00  0.00    +0.000 A 
ATOM     17  N   UNL     1       1.511  16.505  19.186  0.00  0.00    +0.000 N 
ATOM     18  C   UNL     1       1.471  15.843  20.418  0.00  0.00    +0.000 A 
ATOM     19  O   UNL     1       2.481  15.472  21.004  0.00  0.00    +0.000 OA
ATOM     20  C   UNL     1       0.115  15.627  20.959  0.00  0.00    +0.000 A 
ATOM     21  C   UNL     1      -0.858  16.388  20.443  0.00  0.00    +0.000 A 
ATOM     22  N   UNL     1      -0.753  17.170  19.327  0.00  0.00    +0.000 NA
ATOM     23  C   UNL     1       0.386  17.170  18.703  0.00  0.00    +0.000 A 
ENDBRANCH   1  20
BRANCH   8  24
ATOM     24  C   UNL     1       1.448   8.827  19.484  0.00  0.00    +0.000 A 
ATOM     25  C   UNL     1       2.084   8.604  18.240  0.00  0.00    +0.000 A 
ATOM     26  C   UNL     1       2.765   7.417  17.961  0.00  0.00    +0.000 A 
ATOM     27  C   UNL     1       2.796   6.410  18.916  0.00  0.00    +0.000 A 
ATOM     28  C   UNL     1       2.139   6.599  20.126  0.00  0.00    +0.000 A 
ATOM     29  F   UNL     1       2.144   5.613  21.033  0.00  0.00    +0.000 F 
ATOM     30  C   UNL     1       1.473   7.786  20.416  0.00  0.00    +0.000 A 
ENDBRANCH   8  24
TORSDOF 2
ENDMDL
MODEL 3
REMARK VINA RESULT:      -7.5      3.117      4.356
REMARK  Name = 
REMARK  3 active torsions:
REMARK  status: ('A' for Active; 'I' for Inactive)
REMARK    1  A    between atoms: C_1  and  C_2
REMARK    2  A    between atoms: C_9  and  C_10
REMARK    3  A    between atoms: C_17  and  C_18
REMARK                            x       y       z     vdW  Elec       q    Type
REMARK                         _______ _______ _______ _____ _____    ______ ____
ROOT
ATOM      1  C   UNL     1      -6.178  12.871  23.357  0.00  0.00    +0.000 C 
ATOM      2  O   UNL     1      -6.788  12.218  24.207  0.00  0.00    +0.000 OA
ATOM      3  N   UNL     1      -6.393  12.619  22.024  0.00  0.00    +0.000 N 
ATOM      4  C   UNL     1      -7.454  11.676  21.619  0.00  0.00    +0.000 C 
ATOM      5  C   UNL     1      -7.792  12.126  20.206  0.00  0.00    +0.000 C 
ATOM      6  C   UNL     1      -6.376  12.375  19.772  0.00  0.00    +0.000 A 
ATOM      7  C   UNL     1      -5.797  11.992  18.583  0.00  0.00    +0.000 A 
ATOM      8  C   UNL     1      -4.396  11.957  18.507  0.00  0.00    +0.000 A 
ATOM      9  C   UNL     1      -3.646  12.562  19.549  0.00  0.00    +0.000 A 
ATOM     10  C   UNL     1      -4.248  12.998  20.740  0.00  0.00    +0.000 A 
ATOM     11  C   UNL     1      -5.605  12.788  20.869  0.00  0.00    +0.000 A 
ENDROOT
BRANCH   1  20
ATOM     12  C   UNL     1      -1.484  16.695  25.974  0.00  0.00    +0.000 C 
ATOM     13  C   UNL     1      -2.841  17.037  25.435  0.00  0.00    +0.000 A 
ATOM     14  C   UNL     1      -3.372  18.265  25.545  0.00  0.00    +0.000 A 
ATOM     15  C   UNL     1      -4.664  18.572  25.000  0.00  0.00    +0.000 A 
ATOM     16  C   UNL     1      -5.362  17.614  24.388  0.00  0.00    +0.000 A 
ATOM     17  N   UNL     1      -4.899  16.314  24.287  0.00  0.00    +0.000 N 
ATOM     18  C   UNL     1      -5.698  15.383  23.616  0.00  0.00    +0.000 A 
ATOM     19  O   UNL     1      -6.675  15.705  22.950  0.00  0.00    +0.000 OA
ATOM     20  C   UNL     1      -5.271  13.978  23.771  0.00  0.00    +0.000 A 
ATOM     21  C   UNL     1      -4.013  13.782  24.185  0.00  0.00    +0.000 A 
ATOM     22  N   UNL     1      -3.178  14.743  24.683  0.00  0.00    +0.000 NA
ATOM     23  C   UNL     1      -3.646  15.952  24.775  0.00  0.00    +0.000 A 
ENDBRANCH   1  20
BRANCH   8  24
ATOM     24  C   UNL     1      -3.739  11.134  17.466  0.00  0.00    +0.000 A 
ATOM     25  C   UNL     1      -2.540  10.443  17.760  0.00  0.00    +0.000 A 
ATOM     26  C   UNL     1      -1.872   9.681  16.798  0.00  0.00    +0.000 A 
ATOM     27  C   UNL     1      -2.377   9.620  15.507  0.00  0.00    +0.000 A 
ATOM     28  C   UNL     1      -3.531  10.329  15.194  0.00  0.00    +0.000 A 
ATOM     29  F   UNL     1      -3.998  10.295  13.938  0.00  0.00    +0.000 F 
ATOM     30  C   UNL     1      -4.209  11.077  16.151  0.00  0.00    +0.000 A 
ENDBRANCH   8  24
TORSDOF 2
ENDMDL
MODEL 4
REMARK VINA RESULT:      -7.4      2.236      2.805
REMARK  Name = 
REMARK  3 active torsions:
REMARK  status: ('A' for Active; 'I' for Inactive)
REMARK    1  A    between atoms: C_1  and  C_2
REMARK    2  A    between atoms: C_9  and  C_10
REMARK    3  A    between atoms: C_17  and  C_18
REMARK                            x       y       z     vdW  Elec       q    Type
REMARK                         _______ _______ _______ _____ _____    ______ ____
ROOT
ATOM      1  C   UNL     1      -6.904  11.926  21.112  0.00  0.00    +0.000 C 
ATOM      2  O   UNL     1      -7.711  11.053  21.442  0.00  0.00    +0.000 OA
ATOM      3  N   UNL     1      -6.098  11.727  20.019  0.00  0.00    +0.000 N 
ATOM      4  C   UNL     1      -6.303  10.541  19.163  0.00  0.00    +0.000 C 
ATOM      5  C   UNL     1      -5.725  10.978  17.827  0.00  0.00    +0.000 C 
ATOM      6  C   UNL     1      -4.522  11.678  18.391  0.00  0.00    +0.000 A 
ATOM      7  C   UNL     1      -3.224  11.585  17.943  0.00  0.00    +0.000 A 
ATOM      8  C   UNL     1      -2.192  11.984  18.806  0.00  0.00    +0.000 A 
ATOM      9  C   UNL     1      -2.532  12.704  19.980  0.00  0.00    +0.000 A 
ATOM     10  C   UNL     1      -3.862  12.841  20.409  0.00  0.00    +0.000 A 
ATOM     11  C   UNL     1      -4.831  12.218  19.650  0.00  0.00    +0.000 A 
ENDROOT
BRANCH   1  20
ATOM     12  C   UNL     1      -7.416  18.171  23.173  0.00  0.00    +0.000 C 
ATOM     13  C   UNL     1      -6.448  17.089  23.550  0.00  0.00    +0.000 A 
ATOM     14  C   UNL     1      -5.384  17.316  24.337  0.00  0.00    +0.000 A 
ATOM     15  C   UNL     1      -4.486  16.258  24.701  0.00  0.00    +0.000 A 
ATOM     16  C   UNL     1      -4.700  15.026  24.235  0.00  0.00    +0.000 A 
ATOM     17  N   UNL     1      -5.745  14.733  23.378  0.00  0.00    +0.000 N 
ATOM     18  C   UNL     1      -5.895  13.409  22.953  0.00  0.00    +0.000 A 
ATOM     19  O   UNL     1      -5.277  12.478  23.455  0.00  0.00    +0.000 OA
ATOM     20  C   UNL     1      -6.857  13.220  21.849  0.00  0.00    +0.000 A 
ATOM     21  C   UNL     1      -7.729  14.215  21.646  0.00  0.00    +0.000 A 
ATOM     22  N   UNL     1      -7.666  15.460  22.206  0.00  0.00    +0.000 NA
ATOM     23  C   UNL     1      -6.666  15.707  22.999  0.00  0.00    +0.000 A 
ENDBRANCH   1  20
BRANCH   8  24
ATOM     24  C   UNL     1      -0.816  11.486  18.581  0.00  0.00    +0.000 A 
ATOM     25  C   UNL     1      -0.603  10.140  18.197  0.00  0.00    +0.000 A 
ATOM     26  C   UNL     1       0.679   9.621  18.004  0.00  0.00    +0.000 A 
ATOM     27  C   UNL     1       1.783  10.435  18.224  0.00  0.00    +0.000 A 
ATOM     28  C   UNL     1       1.589  11.745  18.643  0.00  0.00    +0.000 A 
ATOM     29  F   UNL     1       2.657  12.518  18.886  0.00  0.00    +0.000 F 
ATOM     30  C   UNL     1       0.314  12.273  18.821  0.00  0.00    +0.000 A 
ENDBRANCH   8  24
TORSDOF 2
ENDMDL
MODEL 5
REMARK VINA RESULT:      -7.4      1.212      1.519
REMARK  Name = 
REMARK  3 active torsions:
REMARK  status: ('A' for Active; 'I' for Inactive)
REMARK    1  A    between atoms: C_1  and  C_2
REMARK    2  A    between atoms: C_9  and  C_10
REMARK    3  A    between atoms: C_17  and  C_18
REMARK                            x       y       z     vdW  Elec       q    Type
REMARK                         _______ _______ _______ _____ _____    ______ ____
ROOT
ATOM      1  C   UNL     1      -4.244  12.479  19.958  0.00  0.00    +0.000 C 
ATOM      2  O   UNL     1      -5.436  12.187  19.832  0.00  0.00    +0.000 OA
ATOM      3  N   UNL     1      -3.316  11.922  19.112  0.00  0.00    +0.000 N 
ATOM      4  C   UNL     1      -3.765  11.099  17.972  0.00  0.00    +0.000 C 
ATOM      5  C   UNL     1      -2.607  11.208  16.992  0.00  0.00    +0.000 C 
ATOM      6  C   UNL     1      -1.515  11.090  18.017  0.00  0.00    +0.000 A 
ATOM      7  C   UNL     1      -0.382  10.313  17.933  0.00  0.00    +0.000 A 
ATOM      8  C   UNL     1       0.316  10.023  19.116  0.00  0.00    +0.000 A 
ATOM      9  C   UNL     1      -0.014  10.748  20.290  0.00  0.00    +0.000 A 
ATOM     10  C   UNL     1      -1.143  11.580  20.358  0.00  0.00    +0.000 A 
ATOM     11  C   UNL     1      -1.941  11.643  19.235  0.00  0.00    +0.000 A 
ENDROOT
BRANCH   1  20
ATOM     12  C   UNL     1      -1.451  17.390  23.360  0.00  0.00    +0.000 C 
ATOM     13  C   UNL     1      -2.148  16.146  23.826  0.00  0.00    +0.000 A 
ATOM     14  C   UNL     1      -2.183  15.779  25.117  0.00  0.00    +0.000 A 
ATOM     15  C   UNL     1      -2.877  14.596  25.538  0.00  0.00    +0.000 A 
ATOM     16  C   UNL     1      -3.485  13.832  24.628  0.00  0.00    +0.000 A 
ATOM     17  N   UNL     1      -3.443  14.123  23.276  0.00  0.00    +0.000 N 
ATOM     18  C   UNL     1      -4.122  13.269  22.400  0.00  0.00    +0.000 A 
ATOM     19  O   UNL     1      -4.905  12.409  22.786  0.00  0.00    +0.000 OA
ATOM     20  C   UNL     1      -3.822  13.486  20.970  0.00  0.00    +0.000 A 
ATOM     21  C   UNL     1      -3.270  14.663  20.652  0.00  0.00    +0.000 A 
ATOM     22  N   UNL     1      -2.760  15.572  21.537  0.00  0.00    +0.000 NA
ATOM     23  C   UNL     1      -2.805  15.266  22.799  0.00  0.00    +0.000 A 
ENDBRANCH   1  20
BRANCH   8  24
ATOM     24  C   UNL     1       1.225   8.856  19.162  0.00  0.00    +0.000 A 
ATOM     25  C   UNL     1       2.047   8.552  18.051  0.00  0.00    +0.000 A 
ATOM     26  C   UNL     1       2.896   7.444  18.041  0.00  0.00    +0.000 A 
ATOM     27  C   UNL     1       2.917   6.593  19.138  0.00  0.00    +0.000 A 
ATOM     28  C   UNL     1       2.084   6.856  20.219  0.00  0.00    +0.000 A 
ATOM     29  F   UNL     1       2.083   6.015  21.262  0.00  0.00    +0.000 F 
ATOM     30  C   UNL     1       1.247   7.968  20.241  0.00  0.00    +0.000 A 
ENDBRANCH   8  24
TORSDOF 2
ENDMDL
MODEL 6
REMARK VINA RESULT:      -7.3      1.274      1.428
REMARK  Name = 
REMARK  3 active torsions:
REMARK  status: ('A' for Active; 'I' for Inactive)
REMARK    1  A    between atoms: C_1  and  C_2
REMARK    2  A    between atoms: C_9  and  C_10
REMARK    3  A    between atoms: C_17  and  C_18
REMARK                            x       y       z     vdW  Elec       q    Type
REMARK                         _______ _______ _______ _____ _____    ______ ____
ROOT
ATOM      1  C   UNL     1      -6.083  12.595  19.184  0.00  0.00    +0.000 C 
ATOM      2  O   UNL     1      -7.198  12.094  19.019  0.00  0.00    +0.000 OA
ATOM      3  N   UNL     1      -5.017  12.134  18.451  0.00  0.00    +0.000 N 
ATOM      4  C   UNL     1      -5.239  11.151  17.372  0.00  0.00    +0.000 C 
ATOM      5  C   UNL     1      -4.047  11.372  16.455  0.00  0.00    +0.000 C 
ATOM      6  C   UNL     1      -3.029  11.530  17.547  0.00  0.00    +0.000 A 
ATOM      7  C   UNL     1      -1.780  10.954  17.603  0.00  0.00    +0.000 A 
ATOM      8  C   UNL     1      -1.132  10.891  18.846  0.00  0.00    +0.000 A 
ATOM      9  C   UNL     1      -1.660  11.648  19.924  0.00  0.00    +0.000 A 
ATOM     10  C   UNL     1      -2.913  12.277  19.846  0.00  0.00    +0.000 A 
ATOM     11  C   UNL     1      -3.627  12.105  18.678  0.00  0.00    +0.000 A 
ENDROOT
BRANCH   1  20
ATOM     12  C   UNL     1      -5.054  18.443  22.054  0.00  0.00    +0.000 C 
ATOM     13  C   UNL     1      -4.924  17.050  22.592  0.00  0.00    +0.000 A 
ATOM     14  C   UNL     1      -4.410  16.790  23.805  0.00  0.00    +0.000 A 
ATOM     15  C   UNL     1      -4.319  15.448  24.306  0.00  0.00    +0.000 A 
ATOM     16  C   UNL     1      -4.734  14.434  23.544  0.00  0.00    +0.000 A 
ATOM     17  N   UNL     1      -5.223  14.626  22.265  0.00  0.00    +0.000 N 
ATOM     18  C   UNL     1      -5.646  13.501  21.549  0.00  0.00    +0.000 A 
ATOM     19  O   UNL     1      -5.790  12.400  22.067  0.00  0.00    +0.000 OA
ATOM     20  C   UNL     1      -5.908  13.743  20.116  0.00  0.00    +0.000 A 
ATOM     21  C   UNL     1      -6.085  15.020  19.753  0.00  0.00    +0.000 A 
ATOM     22  N   UNL     1      -5.827  16.114  20.531  0.00  0.00    +0.000 NA
ATOM     23  C   UNL     1      -5.359  15.902  21.724  0.00  0.00    +0.000 A 
ENDBRANCH   1  20
BRANCH   8  24
ATOM     24  C   UNL     1      -0.048   9.904  19.058  0.00  0.00    +0.000 A 
ATOM     25  C   UNL     1       0.219   9.414  20.358  0.00  0.00    +0.000 A 
ATOM     26  C   UNL     1       1.251   8.505  20.607  0.00  0.00    +0.000 A 
ATOM     27  C   UNL     1       2.060   8.092  19.558  0.00  0.00    +0.000 A 
ATOM     28  C   UNL     1       1.835   8.598  18.284  0.00  0.00    +0.000 A 
ATOM     29  F   UNL     1       2.639   8.221  17.279  0.00  0.00    +0.000 F 
ATOM     30  C   UNL     1       0.799   9.491  18.027  0.00  0.00    +0.000 A 
ENDBRANCH   8  24
TORSDOF 2
ENDMDL
MODEL 7
REMARK VINA RESULT:      -7.2      2.089      2.898
REMARK  Name = 
REMARK  3 active torsions:
REMARK  status: ('A' for Active; 'I' for Inactive)
REMARK    1  A    between atoms: C_1  and  C_2
REMARK    2  A    between atoms: C_9  and  C_10
REMARK    3  A    between atoms: C_17  and  C_18
REMARK                            x       y       z     vdW  Elec       q    Type
REMARK                         _______ _______ _______ _____ _____    ______ ____
ROOT
ATOM      1  C   UNL     1      -3.065  12.647  20.553  0.00  0.00    +0.000 C 
ATOM      2  O   UNL     1      -4.292  12.565  20.458  0.00  0.00    +0.000 OA
ATOM      3  N   UNL     1      -2.269  12.002  19.639  0.00  0.00    +0.000 N 
ATOM      4  C   UNL     1      -2.882  11.341  18.470  0.00  0.00    +0.000 C 
ATOM      5  C   UNL     1      -1.751  11.323  17.453  0.00  0.00    +0.000 C 
ATOM      6  C   UNL     1      -0.666  10.958  18.425  0.00  0.00    +0.000 A 
ATOM      7  C   UNL     1       0.319  10.013  18.248  0.00  0.00    +0.000 A 
ATOM      8  C   UNL     1       0.993   9.534  19.382  0.00  0.00    +0.000 A 
ATOM      9  C   UNL     1       0.824  10.223  20.611  0.00  0.00    +0.000 A 
ATOM     10  C   UNL     1      -0.147  11.224  20.774  0.00  0.00    +0.000 A 
ATOM     11  C   UNL     1      -0.957  11.492  19.690  0.00  0.00    +0.000 A 
ENDROOT
BRANCH   1  20
ATOM     12  C   UNL     1      -1.217  15.631  26.137  0.00  0.00    +0.000 C 
ATOM     13  C   UNL     1      -1.181  16.103  24.714  0.00  0.00    +0.000 A 
ATOM     14  C   UNL     1      -0.853  17.361  24.379  0.00  0.00    +0.000 A 
ATOM     15  C   UNL     1      -0.803  17.780  23.008  0.00  0.00    +0.000 A 
ATOM     16  C   UNL     1      -1.107  16.909  22.044  0.00  0.00    +0.000 A 
ATOM     17  N   UNL     1      -1.505  15.613  22.320  0.00  0.00    +0.000 N 
ATOM     18  C   UNL     1      -1.790  14.770  21.242  0.00  0.00    +0.000 A 
ATOM     19  O   UNL     1      -1.514  15.058  20.083  0.00  0.00    +0.000 OA
ATOM     20  C   UNL     1      -2.451  13.501  21.608  0.00  0.00    +0.000 A 
ATOM     21  C   UNL     1      -2.358  13.133  22.892  0.00  0.00    +0.000 A 
ATOM     22  N   UNL     1      -1.912  13.918  23.918  0.00  0.00    +0.000 NA
ATOM     23  C   UNL     1      -1.555  15.134  23.627  0.00  0.00    +0.000 A 
ENDBRANCH   1  20
BRANCH   8  24
ATOM     24  C   UNL     1       1.695   8.232  19.321  0.00  0.00    +0.000 A 
ATOM     25  C   UNL     1       2.427   7.874  18.164  0.00  0.00    +0.000 A 
ATOM     26  C   UNL     1       3.078   6.644  18.053  0.00  0.00    +0.000 A 
ATOM     27  C   UNL     1       2.984   5.728  19.092  0.00  0.00    +0.000 A 
ATOM     28  C   UNL     1       2.233   6.049  20.216  0.00  0.00    +0.000 A 
ATOM     29  F   UNL     1       2.117   5.150  21.203  0.00  0.00    +0.000 F 
ATOM     30  C   UNL     1       1.595   7.280  20.339  0.00  0.00    +0.000 A 
ENDBRANCH   8  24
TORSDOF 2
ENDMDL
MODEL 8
REMARK VINA RESULT:      -7.2      3.275      4.795
REMARK  Name = 
REMARK  3 active torsions:
REMARK  status: ('A' for Active; 'I' for Inactive)
REMARK    1  A    between atoms: C_1  and  C_2
REMARK    2  A    between atoms: C_9  and  C_10
REMARK    3  A    between atoms: C_17  and  C_18
REMARK                            x       y       z     vdW  Elec       q    Type
REMARK                         _______ _______ _______ _____ _____    ______ ____
ROOT
ATOM      1  C   UNL     1      -0.504  11.314  19.021  0.00  0.00    +0.000 C 
ATOM      2  O   UNL     1      -1.067  11.731  18.005  0.00  0.00    +0.000 OA
ATOM      3  N   UNL     1       0.446  10.329  18.914  0.00  0.00    +0.000 N 
ATOM      4  C   UNL     1       0.892   9.883  17.579  0.00  0.00    +0.000 C 
ATOM      5  C   UNL     1       2.280   9.323  17.849  0.00  0.00    +0.000 C 
ATOM      6  C   UNL     1       1.927   8.628  19.133  0.00  0.00    +0.000 A 
ATOM      7  C   UNL     1       2.284   7.353  19.508  0.00  0.00    +0.000 A 
ATOM      8  C   UNL     1       1.559   6.735  20.539  0.00  0.00    +0.000 A 
ATOM      9  C   UNL     1       0.681   7.530  21.319  0.00  0.00    +0.000 A 
ATOM     10  C   UNL     1       0.358   8.849  20.962  0.00  0.00    +0.000 A 
ATOM     11  C   UNL     1       0.912   9.335  19.796  0.00  0.00    +0.000 A 
ENDROOT
BRANCH   1  20
ATOM     12  C   UNL     1      -3.186  13.503  24.635  0.00  0.00    +0.000 C 
ATOM     13  C   UNL     1      -1.981  13.972  23.874  0.00  0.00    +0.000 A 
ATOM     14  C   UNL     1      -1.307  15.085  24.206  0.00  0.00    +0.000 A 
ATOM     15  C   UNL     1      -0.143  15.499  23.476  0.00  0.00    +0.000 A 
ATOM     16  C   UNL     1       0.268  14.776  22.432  0.00  0.00    +0.000 A 
ATOM     17  N   UNL     1      -0.411  13.650  22.002  0.00  0.00    +0.000 N 
ATOM     18  C   UNL     1       0.105  12.951  20.906  0.00  0.00    +0.000 A 
ATOM     19  O   UNL     1       1.219  13.169  20.445  0.00  0.00    +0.000 OA
ATOM     20  C   UNL     1      -0.799  11.927  20.346  0.00  0.00    +0.000 A 
ATOM     21  C   UNL     1      -1.799  11.521  21.138  0.00  0.00    +0.000 A 
ATOM     22  N   UNL     1      -2.186  12.118  22.305  0.00  0.00    +0.000 NA
ATOM     23  C   UNL     1      -1.535  13.180  22.677  0.00  0.00    +0.000 A 
ENDBRANCH   1  20
BRANCH   8  24
ATOM     24  C   UNL     1       1.574   5.259  20.662  0.00  0.00    +0.000 A 
ATOM     25  C   UNL     1       2.394   4.637  21.633  0.00  0.00    +0.000 A 
ATOM     26  C   UNL     1       2.461   3.248  21.762  0.00  0.00    +0.000 A 
ATOM     27  C   UNL     1       1.727   2.448  20.897  0.00  0.00    +0.000 A 
ATOM     28  C   UNL     1       0.950   3.045  19.912  0.00  0.00    +0.000 A 
ATOM     29  F   UNL     1       0.268   2.269  19.057  0.00  0.00    +0.000 F 
ATOM     30  C   UNL     1       0.867   4.429  19.788  0.00  0.00    +0.000 A 
ENDBRANCH   8  24
TORSDOF 2
ENDMDL
MODEL 9
REMARK VINA RESULT:      -7.1      1.081      1.159
REMARK  Name = 
REMARK  3 active torsions:
REMARK  status: ('A' for Active; 'I' for Inactive)
REMARK    1  A    between atoms: C_1  and  C_2
REMARK    2  A    between atoms: C_9  and  C_10
REMARK    3  A    between atoms: C_17  and  C_18
REMARK                            x       y       z     vdW  Elec       q    Type
REMARK                         _______ _______ _______ _____ _____    ______ ____
ROOT
ATOM      1  C   UNL     1      -3.981  12.620  19.995  0.00  0.00    +0.000 C 
ATOM      2  O   UNL     1      -5.188  12.401  19.859  0.00  0.00    +0.000 OA
ATOM      3  N   UNL     1      -3.082  12.011  19.155  0.00  0.00    +0.000 N 
ATOM      4  C   UNL     1      -3.569  11.219  18.008  0.00  0.00    +0.000 C 
ATOM      5  C   UNL     1      -2.399  11.261  17.039  0.00  0.00    +0.000 C 
ATOM      6  C   UNL     1      -1.325  11.075  18.072  0.00  0.00    +0.000 A 
ATOM      7  C   UNL     1      -0.240  10.232  17.994  0.00  0.00    +0.000 A 
ATOM      8  C   UNL     1       0.430   9.897  19.182  0.00  0.00    +0.000 A 
ATOM      9  C   UNL     1       0.135  10.637  20.356  0.00  0.00    +0.000 A 
ATOM     10  C   UNL     1      -0.943  11.535  20.417  0.00  0.00    +0.000 A 
ATOM     11  C   UNL     1      -1.727  11.649  19.288  0.00  0.00    +0.000 A 
ENDROOT
BRANCH   1  20
ATOM     12  C   UNL     1      -0.837  17.248  23.488  0.00  0.00    +0.000 C 
ATOM     13  C   UNL     1      -1.717  16.115  23.927  0.00  0.00    +0.000 A 
ATOM     14  C   UNL     1      -1.888  15.794  25.220  0.00  0.00    +0.000 A 
ATOM     15  C   UNL     1      -2.754  14.720  25.614  0.00  0.00    +0.000 A 
ATOM     16  C   UNL     1      -3.388  14.011  24.678  0.00  0.00    +0.000 A 
ATOM     17  N   UNL     1      -3.215  14.252  23.327  0.00  0.00    +0.000 N 
ATOM     18  C   UNL     1      -3.933  13.464  22.422  0.00  0.00    +0.000 A 
ATOM     19  O   UNL     1      -4.843  12.720  22.767  0.00  0.00    +0.000 OA
ATOM     20  C   UNL     1      -3.508  13.597  21.014  0.00  0.00    +0.000 A 
ATOM     21  C   UNL     1      -2.791  14.687  20.712  0.00  0.00    +0.000 A 
ATOM     22  N   UNL     1      -2.234  15.552  21.613  0.00  0.00    +0.000 NA
ATOM     23  C   UNL     1      -2.406  15.292  22.875  0.00  0.00    +0.000 A 
ENDBRANCH   1  20
BRANCH   8  24
ATOM     24  C   UNL     1       1.266   8.677  19.232  0.00  0.00    +0.000 A 
ATOM     25  C   UNL     1       1.368   7.936  20.434  0.00  0.00    +0.000 A 
ATOM     26  C   UNL     1       2.170   6.797  20.533  0.00  0.00    +0.000 A 
ATOM     27  C   UNL     1       2.915   6.391  19.434  0.00  0.00    +0.000 A 
ATOM     28  C   UNL     1       2.857   7.134  18.261  0.00  0.00    +0.000 A 
ATOM     29  F   UNL     1       3.602   6.758  17.212  0.00  0.00    +0.000 F 
ATOM     30  C   UNL     1       2.048   8.261  18.151  0.00  0.00    +0.000 A 
ENDBRANCH   8  24
TORSDOF 2
ENDMDL
