MODEL 1
REMARK VINA RESULT:      -6.8      0.000      0.000
REMARK  Name = 
REMARK  4 active torsions:
REMARK  status: ('A' for Active; 'I' for Inactive)
REMARK    1  A    between atoms: C_2  and  C_4
REMARK    2  A    between atoms: C_14  and  C_16
REMARK    3  A    between atoms: C_16  and  N_17
REMARK    4  A    between atoms: C_18  and  C_19
REMARK                            x       y       z     vdW  Elec       q    Type
REMARK                         _______ _______ _______ _____ _____    ______ ____
ROOT
ATOM      1  C   UNL     1       0.760  13.940  19.601  0.00  0.00    +0.000 C 
ATOM      2  C   UNL     1       0.949  15.179  18.711  0.00  0.00    +0.000 C 
ATOM      3  C   UNL     1       2.420  15.376  18.488  0.00  0.00    +0.000 A 
ATOM      4  C   UNL     1       3.005  16.643  18.561  0.00  0.00    +0.000 A 
ATOM      5  C   UNL     1       4.392  16.762  18.548  0.00  0.00    +0.000 A 
ATOM      6  C   UNL     1       5.188  15.623  18.434  0.00  0.00    +0.000 A 
ATOM      7  C   UNL     1       4.602  14.362  18.295  0.00  0.00    +0.000 A 
ATOM      8  C   UNL     1       3.211  14.224  18.323  0.00  0.00    +0.000 A 
ATOM      9  C   UNL     1       2.553  12.861  18.205  0.00  0.00    +0.000 C 
ATOM     10  N   UNL     1       1.259  12.735  18.905  0.00  0.00    +0.000 N 
ATOM     11  C   UNL     1       0.733  11.453  19.027  0.00  0.00    +0.000 C 
ATOM     12  O   UNL     1       1.234  10.511  18.401  0.00  0.00    +0.000 OA
ENDROOT
BRANCH   1  14
ATOM     13  N   UNL     1       1.137  15.128  21.754  0.00  0.00    +0.000 N 
ATOM     14  C   UNL     1       1.465  14.058  20.980  0.00  0.00    +0.000 C 
ATOM     15  O   UNL     1       2.249  13.221  21.421  0.00  0.00    +0.000 OA
ATOM     16  H   UNL     1       1.660  15.217  22.618  0.00  0.00    +0.000 HD
ATOM     17  H   UNL     1       0.669  15.948  21.407  0.00  0.00    +0.000 HD
ENDBRANCH   1  14
BRANCH  11  18
ATOM     18  C   UNL     1      -0.500  11.213  19.875  0.00  0.00    +0.000 C 
BRANCH  18  19
ATOM     19  N   UNL     1      -1.815  11.459  19.287  0.00  0.00    +0.000 N 
ATOM     20  C   UNL     1      -2.775  12.246  19.914  0.00  0.00    +0.000 A 
ATOM     21  N   UNL     1      -3.891  12.277  19.220  0.00  0.00    +0.000 NA
ATOM     22  C   UNL     1      -3.646  11.552  18.086  0.00  0.00    +0.000 A 
ATOM     23  C   UNL     1      -4.499  11.314  16.999  0.00  0.00    +0.000 A 
ATOM     24  C   UNL     1      -4.035  10.555  15.922  0.00  0.00    +0.000 A 
ATOM     25  C   UNL     1      -2.742  10.033  15.941  0.00  0.00    +0.000 A 
ATOM     26  C   UNL     1      -1.885  10.251  17.021  0.00  0.00    +0.000 A 
ATOM     27  C   UNL     1      -2.351  11.025  18.094  0.00  0.00    +0.000 A 
BRANCH  20  28
ATOM     28  C   UNL     1      -2.609  13.010  21.199  0.00  0.00    +0.000 A 
ATOM     29  C   UNL     1      -2.904  12.447  22.426  0.00  0.00    +0.000 A 
ATOM     30  S   UNL     1      -2.672  13.601  23.672  0.00  0.00    +0.000 S 
ATOM     31  C   UNL     1      -2.198  14.748  22.489  0.00  0.00    +0.000 A 
ATOM     32  N   UNL     1      -2.179  14.327  21.243  0.00  0.00    +0.000 NA
ENDBRANCH  20  28
ENDBRANCH  18  19
ENDBRANCH  11  18
TORSDOF 4
ENDMDL
MODEL 2
REMARK VINA RESULT:      -6.6      3.178      5.277
REMARK  Name = 
REMARK  4 active torsions:
REMARK  status: ('A' for Active; 'I' for Inactive)
REMARK    1  A    between atoms: C_2  and  C_4
REMARK    2  A    between atoms: C_14  and  C_16
REMARK    3  A    between atoms: C_16  and  N_17
REMARK    4  A    between atoms: C_18  and  C_19
REMARK                            x       y       z     vdW  Elec       q    Type
REMARK                         _______ _______ _______ _____ _____    ______ ____
ROOT
ATOM      1  C   UNL     1      -0.095  12.039  20.101  0.00  0.00    +0.000 C 
ATOM      2  C   UNL     1      -0.428  11.162  18.883  0.00  0.00    +0.000 C 
ATOM      3  C   UNL     1       0.413   9.921  18.956  0.00  0.00    +0.000 A 
ATOM      4  C   UNL     1       1.052   9.407  17.824  0.00  0.00    +0.000 A 
ATOM      5  C   UNL     1       1.979   8.378  17.967  0.00  0.00    +0.000 A 
ATOM      6  C   UNL     1       2.243   7.847  19.229  0.00  0.00    +0.000 A 
ATOM      7  C   UNL     1       1.555   8.317  20.351  0.00  0.00    +0.000 A 
ATOM      8  C   UNL     1       0.634   9.361  20.228  0.00  0.00    +0.000 A 
ATOM      9  C   UNL     1      -0.102   9.908  21.438  0.00  0.00    +0.000 C 
ATOM     10  N   UNL     1      -0.465  11.336  21.348  0.00  0.00    +0.000 N 
ATOM     11  C   UNL     1      -0.924  11.942  22.513  0.00  0.00    +0.000 C 
ATOM     12  O   UNL     1      -1.200  11.256  23.505  0.00  0.00    +0.000 OA
ENDROOT
BRANCH   1  14
ATOM     13  N   UNL     1       2.002  12.815  19.009  0.00  0.00    +0.000 N 
ATOM     14  C   UNL     1       1.401  12.450  20.175  0.00  0.00    +0.000 C 
ATOM     15  O   UNL     1       2.042  12.512  21.221  0.00  0.00    +0.000 OA
ATOM     16  H   UNL     1       2.994  13.013  19.075  0.00  0.00    +0.000 HD
ATOM     17  H   UNL     1       1.625  12.612  18.099  0.00  0.00    +0.000 HD
ENDBRANCH   1  14
BRANCH  11  18
ATOM     18  C   UNL     1      -1.156  13.439  22.554  0.00  0.00    +0.000 C 
BRANCH  18  19
ATOM     19  N   UNL     1      -2.517  13.933  22.754  0.00  0.00    +0.000 N 
ATOM     20  C   UNL     1      -2.829  14.883  23.720  0.00  0.00    +0.000 A 
ATOM     21  N   UNL     1      -4.120  15.129  23.746  0.00  0.00    +0.000 NA
ATOM     22  C   UNL     1      -4.663  14.380  22.739  0.00  0.00    +0.000 A 
ATOM     23  C   UNL     1      -5.999  14.314  22.320  0.00  0.00    +0.000 A 
ATOM     24  C   UNL     1      -6.337  13.488  21.244  0.00  0.00    +0.000 A 
ATOM     25  C   UNL     1      -5.353  12.731  20.609  0.00  0.00    +0.000 A 
ATOM     26  C   UNL     1      -4.020  12.775  21.022  0.00  0.00    +0.000 A 
ATOM     27  C   UNL     1      -3.684  13.617  22.094  0.00  0.00    +0.000 A 
BRANCH  20  28
ATOM     28  C   UNL     1      -1.861  15.593  24.626  0.00  0.00    +0.000 A 
ATOM     29  C   UNL     1      -1.003  16.570  24.157  0.00  0.00    +0.000 A 
ATOM     30  S   UNL     1       0.007  17.123  25.427  0.00  0.00    +0.000 S 
ATOM     31  C   UNL     1      -0.773  16.030  26.492  0.00  0.00    +0.000 A 
ATOM     32  N   UNL     1      -1.742  15.305  25.978  0.00  0.00    +0.000 NA
ENDBRANCH  20  28
ENDBRANCH  18  19
ENDBRANCH  11  18
TORSDOF 4
ENDMDL
MODEL 3
REMARK VINA RESULT:      -6.4      6.683      9.689
REMARK  Name = 
REMARK  4 active torsions:
REMARK  status: ('A' for Active; 'I' for Inactive)
REMARK    1  A    between atoms: C_2  and  C_4
REMARK    2  A    between atoms: C_14  and  C_16
REMARK    3  A    between atoms: C_16  and  N_17
REMARK    4  A    between atoms: C_18  and  C_19
REMARK                            x       y       z     vdW  Elec       q    Type
REMARK                         _______ _______ _______ _____ _____    ______ ____
ROOT
ATOM      1  C   UNL     1       5.276  16.126  20.350  0.00  0.00    +0.000 C 
ATOM      2  C   UNL     1       3.794  15.841  20.646  0.00  0.00    +0.000 C 
ATOM      3  C   UNL     1       2.980  16.358  19.495  0.00  0.00    +0.000 A 
ATOM      4  C   UNL     1       1.795  17.068  19.703  0.00  0.00    +0.000 A 
ATOM      5  C   UNL     1       1.175  17.701  18.629  0.00  0.00    +0.000 A 
ATOM      6  C   UNL     1       1.722  17.599  17.350  0.00  0.00    +0.000 A 
ATOM      7  C   UNL     1       2.871  16.835  17.132  0.00  0.00    +0.000 A 
ATOM      8  C   UNL     1       3.515  16.207  18.203  0.00  0.00    +0.000 A 
ATOM      9  C   UNL     1       4.781  15.397  17.994  0.00  0.00    +0.000 C 
ATOM     10  N   UNL     1       5.704  15.383  19.146  0.00  0.00    +0.000 N 
ATOM     11  C   UNL     1       6.974  14.858  18.928  0.00  0.00    +0.000 C 
ATOM     12  O   UNL     1       7.228  14.256  17.877  0.00  0.00    +0.000 OA
ENDROOT
BRANCH   1  14
ATOM     13  N   UNL     1       5.103  18.496  21.089  0.00  0.00    +0.000 N 
ATOM     14  C   UNL     1       5.587  17.635  20.152  0.00  0.00    +0.000 C 
ATOM     15  O   UNL     1       6.281  18.076  19.239  0.00  0.00    +0.000 OA
ATOM     16  H   UNL     1       5.263  19.479  20.900  0.00  0.00    +0.000 HD
ATOM     17  H   UNL     1       4.379  18.258  21.745  0.00  0.00    +0.000 HD
ENDBRANCH   1  14
BRANCH  11  18
ATOM     18  C   UNL     1       8.037  14.960  20.003  0.00  0.00    +0.000 C 
BRANCH  18  19
ATOM     19  N   UNL     1       8.301  13.792  20.841  0.00  0.00    +0.000 N 
ATOM     20  C   UNL     1       9.295  12.868  20.538  0.00  0.00    +0.000 A 
ATOM     21  N   UNL     1       9.307  11.881  21.406  0.00  0.00    +0.000 NA
ATOM     22  C   UNL     1       8.351  12.188  22.334  0.00  0.00    +0.000 A 
ATOM     23  C   UNL     1       7.995  11.480  23.491  0.00  0.00    +0.000 A 
ATOM     24  C   UNL     1       6.993  11.989  24.320  0.00  0.00    +0.000 A 
ATOM     25  C   UNL     1       6.349  13.180  23.989  0.00  0.00    +0.000 A 
ATOM     26  C   UNL     1       6.683  13.891  22.834  0.00  0.00    +0.000 A 
ATOM     27  C   UNL     1       7.700  13.383  22.012  0.00  0.00    +0.000 A 
BRANCH  20  28
ATOM     28  C   UNL     1      10.276  12.946  19.400  0.00  0.00    +0.000 A 
ATOM     29  C   UNL     1      11.462  13.647  19.505  0.00  0.00    +0.000 A 
ATOM     30  S   UNL     1      12.310  13.591  18.016  0.00  0.00    +0.000 S 
ATOM     31  C   UNL     1      11.043  12.644  17.357  0.00  0.00    +0.000 A 
ATOM     32  N   UNL     1      10.052  12.349  18.169  0.00  0.00    +0.000 NA
ENDBRANCH  20  28
ENDBRANCH  18  19
ENDBRANCH  11  18
TORSDOF 4
ENDMDL
MODEL 4
REMARK VINA RESULT:      -6.4      2.986      5.312
REMARK  Name = 
REMARK  4 active torsions:
REMARK  status: ('A' for Active; 'I' for Inactive)
REMARK    1  A    between atoms: C_2  and  C_4
REMARK    2  A    between atoms: C_14  and  C_16
REMARK    3  A    between atoms: C_16  and  N_17
REMARK    4  A    between atoms: C_18  and  C_19
REMARK                            x       y       z     vdW  Elec       q    Type
REMARK                         _______ _______ _______ _____ _____    ______ ____
ROOT
ATOM      1  C   UNL     1       0.008  12.144  20.090  0.00  0.00    +0.000 C 
ATOM      2  C   UNL     1      -0.352  11.280  18.870  0.00  0.00    +0.000 C 
ATOM      3  C   UNL     1       0.439  10.007  18.948  0.00  0.00    +0.000 A 
ATOM      4  C   UNL     1       1.065   9.468  17.821  0.00  0.00    +0.000 A 
ATOM      5  C   UNL     1       1.950   8.403  17.969  0.00  0.00    +0.000 A 
ATOM      6  C   UNL     1       2.184   7.863  19.234  0.00  0.00    +0.000 A 
ATOM      7  C   UNL     1       1.509   8.360  20.351  0.00  0.00    +0.000 A 
ATOM      8  C   UNL     1       0.630   9.439  20.222  0.00  0.00    +0.000 A 
ATOM      9  C   UNL     1      -0.092  10.016  21.426  0.00  0.00    +0.000 C 
ATOM     10  N   UNL     1      -0.397  11.457  21.334  0.00  0.00    +0.000 N 
ATOM     11  C   UNL     1      -0.840  12.080  22.496  0.00  0.00    +0.000 C 
ATOM     12  O   UNL     1      -1.149  11.407  23.487  0.00  0.00    +0.000 OA
ENDROOT
BRANCH   1  14
ATOM     13  N   UNL     1       2.123  12.910  19.026  0.00  0.00    +0.000 N 
ATOM     14  C   UNL     1       1.519  12.496  20.173  0.00  0.00    +0.000 C 
ATOM     15  O   UNL     1       2.170  12.470  21.214  0.00  0.00    +0.000 OA
ATOM     16  H   UNL     1       3.122  13.069  19.093  0.00  0.00    +0.000 HD
ATOM     17  H   UNL     1       1.732  12.777  18.108  0.00  0.00    +0.000 HD
ENDBRANCH   1  14
BRANCH  11  18
ATOM     18  C   UNL     1      -1.013  13.586  22.535  0.00  0.00    +0.000 C 
BRANCH  18  19
ATOM     19  N   UNL     1      -2.215  14.170  21.944  0.00  0.00    +0.000 N 
ATOM     20  C   UNL     1      -2.160  15.190  21.000  0.00  0.00    +0.000 A 
ATOM     21  N   UNL     1      -3.365  15.586  20.657  0.00  0.00    +0.000 NA
ATOM     22  C   UNL     1      -4.232  14.773  21.334  0.00  0.00    +0.000 A 
ATOM     23  C   UNL     1      -5.633  14.754  21.285  0.00  0.00    +0.000 A 
ATOM     24  C   UNL     1      -6.330  13.815  22.051  0.00  0.00    +0.000 A 
ATOM     25  C   UNL     1      -5.634  12.921  22.863  0.00  0.00    +0.000 A 
ATOM     26  C   UNL     1      -4.239  12.935  22.933  0.00  0.00    +0.000 A 
ATOM     27  C   UNL     1      -3.544  13.870  22.151  0.00  0.00    +0.000 A 
BRANCH  20  28
ATOM     28  C   UNL     1      -0.919  15.784  20.393  0.00  0.00    +0.000 A 
ATOM     29  C   UNL     1      -0.220  16.804  21.011  0.00  0.00    +0.000 A 
ATOM     30  S   UNL     1       1.096  17.294  20.026  0.00  0.00    +0.000 S 
ATOM     31  C   UNL     1       0.637  16.116  18.868  0.00  0.00    +0.000 A 
ATOM     32  N   UNL     1      -0.406  15.375  19.172  0.00  0.00    +0.000 NA
ENDBRANCH  20  28
ENDBRANCH  18  19
ENDBRANCH  11  18
TORSDOF 4
ENDMDL
MODEL 5
REMARK VINA RESULT:      -6.3      3.138      5.480
REMARK  Name = 
REMARK  4 active torsions:
REMARK  status: ('A' for Active; 'I' for Inactive)
REMARK    1  A    between atoms: C_2  and  C_4
REMARK    2  A    between atoms: C_14  and  C_16
REMARK    3  A    between atoms: C_16  and  N_17
REMARK    4  A    between atoms: C_18  and  C_19
REMARK                            x       y       z     vdW  Elec       q    Type
REMARK                         _______ _______ _______ _____ _____    ______ ____
ROOT
ATOM      1  C   UNL     1      -0.022  12.113  20.224  0.00  0.00    +0.000 C 
ATOM      2  C   UNL     1      -0.414  11.318  18.968  0.00  0.00    +0.000 C 
ATOM      3  C   UNL     1       0.390  10.051  18.946  0.00  0.00    +0.000 A 
ATOM      4  C   UNL     1       0.983   9.585  17.770  0.00  0.00    +0.000 A 
ATOM      5  C   UNL     1       1.882   8.522  17.827  0.00  0.00    +0.000 A 
ATOM      6  C   UNL     1       2.162   7.912  19.049  0.00  0.00    +0.000 A 
ATOM      7  C   UNL     1       1.519   8.336  20.215  0.00  0.00    +0.000 A 
ATOM      8  C   UNL     1       0.627   9.412  20.177  0.00  0.00    +0.000 A 
ATOM      9  C   UNL     1      -0.059   9.909  21.436  0.00  0.00    +0.000 C 
ATOM     10  N   UNL     1      -0.380  11.350  21.439  0.00  0.00    +0.000 N 
ATOM     11  C   UNL     1      -0.790  11.900  22.649  0.00  0.00    +0.000 C 
ATOM     12  O   UNL     1      -1.060  11.167  23.608  0.00  0.00    +0.000 OA
ENDROOT
BRANCH   1  14
ATOM     13  N   UNL     1       2.061  12.920  19.128  0.00  0.00    +0.000 N 
ATOM     14  C   UNL     1       1.488  12.475  20.279  0.00  0.00    +0.000 C 
ATOM     15  O   UNL     1       2.164  12.432  21.304  0.00  0.00    +0.000 OA
ATOM     16  H   UNL     1       3.060  13.085  19.174  0.00  0.00    +0.000 HD
ATOM     17  H   UNL     1       1.649  12.804  18.217  0.00  0.00    +0.000 HD
ENDBRANCH   1  14
BRANCH  11  18
ATOM     18  C   UNL     1      -0.975  13.399  22.782  0.00  0.00    +0.000 C 
BRANCH  18  19
ATOM     19  N   UNL     1      -2.295  13.969  22.524  0.00  0.00    +0.000 N 
ATOM     20  C   UNL     1      -2.491  15.022  21.637  0.00  0.00    +0.000 A 
ATOM     21  N   UNL     1      -3.751  15.395  21.613  0.00  0.00    +0.000 NA
ATOM     22  C   UNL     1      -4.411  14.536  22.447  0.00  0.00    +0.000 A 
ATOM     23  C   UNL     1      -5.781  14.480  22.739  0.00  0.00    +0.000 A 
ATOM     24  C   UNL     1      -6.252  13.497  23.614  0.00  0.00    +0.000 A 
ATOM     25  C   UNL     1      -5.362  12.595  24.197  0.00  0.00    +0.000 A 
ATOM     26  C   UNL     1      -3.994  12.646  23.926  0.00  0.00    +0.000 A 
ATOM     27  C   UNL     1      -3.528  13.626  23.036  0.00  0.00    +0.000 A 
BRANCH  20  28
ATOM     28  C   UNL     1      -1.447  15.671  20.770  0.00  0.00    +0.000 A 
ATOM     29  C   UNL     1      -1.161  15.207  19.500  0.00  0.00    +0.000 A 
ATOM     30  S   UNL     1       0.117  16.122  18.815  0.00  0.00    +0.000 S 
ATOM     31  C   UNL     1       0.184  17.058  20.251  0.00  0.00    +0.000 A 
ATOM     32  N   UNL     1      -0.687  16.753  21.187  0.00  0.00    +0.000 NA
ENDBRANCH  20  28
ENDBRANCH  18  19
ENDBRANCH  11  18
TORSDOF 4
ENDMDL
MODEL 6
REMARK VINA RESULT:      -6.3      2.482      3.736
REMARK  Name = 
REMARK  4 active torsions:
REMARK  status: ('A' for Active; 'I' for Inactive)
REMARK    1  A    between atoms: C_2  and  C_4
REMARK    2  A    between atoms: C_14  and  C_16
REMARK    3  A    between atoms: C_16  and  N_17
REMARK    4  A    between atoms: C_18  and  C_19
REMARK                            x       y       z     vdW  Elec       q    Type
REMARK                         _______ _______ _______ _____ _____    ______ ____
ROOT
ATOM      1  C   UNL     1       1.042  13.991  19.557  0.00  0.00    +0.000 C 
ATOM      2  C   UNL     1       0.969  15.482  19.190  0.00  0.00    +0.000 C 
ATOM      3  C   UNL     1       2.308  16.100  19.472  0.00  0.00    +0.000 A 
ATOM      4  C   UNL     1       2.418  17.344  20.100  0.00  0.00    +0.000 A 
ATOM      5  C   UNL     1       3.667  17.791  20.524  0.00  0.00    +0.000 A 
ATOM      6  C   UNL     1       4.801  17.013  20.294  0.00  0.00    +0.000 A 
ATOM      7  C   UNL     1       4.699  15.800  19.607  0.00  0.00    +0.000 A 
ATOM      8  C   UNL     1       3.450  15.329  19.191  0.00  0.00    +0.000 A 
ATOM      9  C   UNL     1       3.311  13.999  18.470  0.00  0.00    +0.000 C 
ATOM     10  N   UNL     1       2.028  13.305  18.694  0.00  0.00    +0.000 N 
ATOM     11  C   UNL     1       1.941  11.988  18.255  0.00  0.00    +0.000 C 
ATOM     12  O   UNL     1       2.829  11.510  17.538  0.00  0.00    +0.000 OA
ENDROOT
BRANCH   1  14
ATOM     13  N   UNL     1       0.721  14.448  21.981  0.00  0.00    +0.000 N 
ATOM     14  C   UNL     1       1.409  13.739  21.045  0.00  0.00    +0.000 C 
ATOM     15  O   UNL     1       2.235  12.907  21.414  0.00  0.00    +0.000 OA
ATOM     16  H   UNL     1       1.026  14.314  22.939  0.00  0.00    +0.000 HD
ATOM     17  H   UNL     1       0.182  15.272  21.774  0.00  0.00    +0.000 HD
ENDBRANCH   1  14
BRANCH  11  18
ATOM     18  C   UNL     1       0.725  11.150  18.594  0.00  0.00    +0.000 C 
BRANCH  18  19
ATOM     19  N   UNL     1       0.900   9.969  19.438  0.00  0.00    +0.000 N 
ATOM     20  C   UNL     1       0.310   9.856  20.691  0.00  0.00    +0.000 A 
ATOM     21  N   UNL     1       0.655   8.732  21.280  0.00  0.00    +0.000 NA
ATOM     22  C   UNL     1       1.432   8.062  20.377  0.00  0.00    +0.000 A 
ATOM     23  C   UNL     1       2.019   6.794  20.499  0.00  0.00    +0.000 A 
ATOM     24  C   UNL     1       2.766   6.283  19.434  0.00  0.00    +0.000 A 
ATOM     25  C   UNL     1       2.935   7.037  18.274  0.00  0.00    +0.000 A 
ATOM     26  C   UNL     1       2.368   8.306  18.141  0.00  0.00    +0.000 A 
ATOM     27  C   UNL     1       1.607   8.809  19.208  0.00  0.00    +0.000 A 
BRANCH  20  28
ATOM     28  C   UNL     1      -0.630  10.840  21.333  0.00  0.00    +0.000 A 
ATOM     29  C   UNL     1      -0.727  10.969  22.705  0.00  0.00    +0.000 A 
ATOM     30  S   UNL     1      -1.932  12.123  23.102  0.00  0.00    +0.000 S 
ATOM     31  C   UNL     1      -2.223  12.359  21.429  0.00  0.00    +0.000 A 
ATOM     32  N   UNL     1      -1.475  11.662  20.602  0.00  0.00    +0.000 NA
ENDBRANCH  20  28
ENDBRANCH  18  19
ENDBRANCH  11  18
TORSDOF 4
ENDMDL
MODEL 7
REMARK VINA RESULT:      -6.2      3.095      6.186
REMARK  Name = 
REMARK  4 active torsions:
REMARK  status: ('A' for Active; 'I' for Inactive)
REMARK    1  A    between atoms: C_2  and  C_4
REMARK    2  A    between atoms: C_14  and  C_16
REMARK    3  A    between atoms: C_16  and  N_17
REMARK    4  A    between atoms: C_18  and  C_19
REMARK                            x       y       z     vdW  Elec       q    Type
REMARK                         _______ _______ _______ _____ _____    ______ ____
ROOT
ATOM      1  C   UNL     1      -0.463  11.821  19.303  0.00  0.00    +0.000 C 
ATOM      2  C   UNL     1      -0.592  10.701  18.257  0.00  0.00    +0.000 C 
ATOM      3  C   UNL     1       0.349   9.596  18.637  0.00  0.00    +0.000 A 
ATOM      4  C   UNL     1       1.141   8.954  17.681  0.00  0.00    +0.000 A 
ATOM      5  C   UNL     1       2.142   8.077  18.094  0.00  0.00    +0.000 A 
ATOM      6  C   UNL     1       2.328   7.822  19.453  0.00  0.00    +0.000 A 
ATOM      7  C   UNL     1       1.492   8.414  20.404  0.00  0.00    +0.000 A 
ATOM      8  C   UNL     1       0.495   9.309  20.007  0.00  0.00    +0.000 A 
ATOM      9  C   UNL     1      -0.405   9.988  21.024  0.00  0.00    +0.000 C 
ATOM     10  N   UNL     1      -0.887  11.325  20.630  0.00  0.00    +0.000 N 
ATOM     11  C   UNL     1      -1.514  12.083  21.614  0.00  0.00    +0.000 C 
ATOM     12  O   UNL     1      -1.821  11.568  22.696  0.00  0.00    +0.000 OA
ENDROOT
BRANCH   1  14
ATOM     13  N   UNL     1       1.591  12.751  18.252  0.00  0.00    +0.000 N 
ATOM     14  C   UNL     1       0.974  12.400  19.413  0.00  0.00    +0.000 C 
ATOM     15  O   UNL     1       1.549  12.603  20.480  0.00  0.00    +0.000 OA
ATOM     16  H   UNL     1       2.551  13.063  18.347  0.00  0.00    +0.000 HD
ATOM     17  H   UNL     1       1.287  12.447  17.343  0.00  0.00    +0.000 HD
ENDBRANCH   1  14
BRANCH  11  18
ATOM     18  C   UNL     1      -1.887  13.527  21.344  0.00  0.00    +0.000 C 
BRANCH  18  19
ATOM     19  N   UNL     1      -2.644  14.258  22.358  0.00  0.00    +0.000 N 
ATOM     20  C   UNL     1      -4.033  14.304  22.359  0.00  0.00    +0.000 A 
ATOM     21  N   UNL     1      -4.483  15.064  23.333  0.00  0.00    +0.000 NA
ATOM     22  C   UNL     1      -3.378  15.474  24.027  0.00  0.00    +0.000 A 
ATOM     23  C   UNL     1      -3.314  16.268  25.181  0.00  0.00    +0.000 A 
ATOM     24  C   UNL     1      -2.067  16.553  25.744  0.00  0.00    +0.000 A 
ATOM     25  C   UNL     1      -0.904  16.062  25.153  0.00  0.00    +0.000 A 
ATOM     26  C   UNL     1      -0.950  15.280  23.997  0.00  0.00    +0.000 A 
ATOM     27  C   UNL     1      -2.205  14.985  23.443  0.00  0.00    +0.000 A 
BRANCH  20  28
ATOM     28  C   UNL     1      -4.956  13.582  21.417  0.00  0.00    +0.000 A 
ATOM     29  C   UNL     1      -5.414  14.166  20.251  0.00  0.00    +0.000 A 
ATOM     30  S   UNL     1      -6.494  13.105  19.447  0.00  0.00    +0.000 S 
ATOM     31  C   UNL     1      -6.266  11.960  20.703  0.00  0.00    +0.000 A 
ATOM     32  N   UNL     1      -5.430  12.301  21.659  0.00  0.00    +0.000 NA
ENDBRANCH  20  28
ENDBRANCH  18  19
ENDBRANCH  11  18
TORSDOF 4
ENDMDL
MODEL 8
REMARK VINA RESULT:      -6.2      2.612      3.363
REMARK  Name = 
REMARK  4 active torsions:
REMARK  status: ('A' for Active; 'I' for Inactive)
REMARK    1  A    between atoms: C_2  and  C_4
REMARK    2  A    between atoms: C_14  and  C_16
REMARK    3  A    between atoms: C_16  and  N_17
REMARK    4  A    between atoms: C_18  and  C_19
REMARK                            x       y       z     vdW  Elec       q    Type
REMARK                         _______ _______ _______ _____ _____    ______ ____
ROOT
ATOM      1  C   UNL     1       1.783  15.568  20.216  0.00  0.00    +0.000 C 
ATOM      2  C   UNL     1       2.530  16.803  19.686  0.00  0.00    +0.000 C 
ATOM      3  C   UNL     1       3.844  16.347  19.121  0.00  0.00    +0.000 A 
ATOM      4  C   UNL     1       5.027  17.047  19.372  0.00  0.00    +0.000 A 
ATOM      5  C   UNL     1       6.248  16.489  19.001  0.00  0.00    +0.000 A 
ATOM      6  C   UNL     1       6.282  15.252  18.358  0.00  0.00    +0.000 A 
ATOM      7  C   UNL     1       5.095  14.583  18.048  0.00  0.00    +0.000 A 
ATOM      8  C   UNL     1       3.862  15.122  18.428  0.00  0.00    +0.000 A 
ATOM      9  C   UNL     1       2.562  14.398  18.130  0.00  0.00    +0.000 C 
ATOM     10  N   UNL     1       1.480  14.643  19.104  0.00  0.00    +0.000 N 
ATOM     11  C   UNL     1       0.355  13.829  19.011  0.00  0.00    +0.000 C 
ATOM     12  O   UNL     1       0.203  13.084  18.035  0.00  0.00    +0.000 OA
ENDROOT
BRANCH   1  14
ATOM     13  N   UNL     1       3.024  15.525  22.372  0.00  0.00    +0.000 N 
ATOM     14  C   UNL     1       2.564  14.799  21.317  0.00  0.00    +0.000 C 
ATOM     15  O   UNL     1       2.736  13.583  21.309  0.00  0.00    +0.000 OA
ATOM     16  H   UNL     1       3.587  15.012  23.041  0.00  0.00    +0.000 HD
ATOM     17  H   UNL     1       3.102  16.528  22.369  0.00  0.00    +0.000 HD
ENDBRANCH   1  14
BRANCH  11  18
ATOM     18  C   UNL     1      -0.725  13.897  20.072  0.00  0.00    +0.000 C 
BRANCH  18  19
ATOM     19  N   UNL     1      -0.685  12.942  21.177  0.00  0.00    +0.000 N 
ATOM     20  C   UNL     1      -0.816  13.334  22.505  0.00  0.00    +0.000 A 
ATOM     21  N   UNL     1      -0.694  12.308  23.318  0.00  0.00    +0.000 NA
ATOM     22  C   UNL     1      -0.544  11.212  22.515  0.00  0.00    +0.000 A 
ATOM     23  C   UNL     1      -0.416   9.866  22.887  0.00  0.00    +0.000 A 
ATOM     24  C   UNL     1      -0.293   8.892  21.893  0.00  0.00    +0.000 A 
ATOM     25  C   UNL     1      -0.283   9.263  20.549  0.00  0.00    +0.000 A 
ATOM     26  C   UNL     1      -0.396  10.600  20.162  0.00  0.00    +0.000 A 
ATOM     27  C   UNL     1      -0.534  11.572  21.164  0.00  0.00    +0.000 A 
BRANCH  20  28
ATOM     28  C   UNL     1      -1.092  14.725  23.006  0.00  0.00    +0.000 A 
ATOM     29  C   UNL     1      -2.368  15.255  23.025  0.00  0.00    +0.000 A 
ATOM     30  S   UNL     1      -2.323  16.874  23.589  0.00  0.00    +0.000 S 
ATOM     31  C   UNL     1      -0.623  16.740  23.764  0.00  0.00    +0.000 A 
ATOM     32  N   UNL     1      -0.094  15.576  23.457  0.00  0.00    +0.000 NA
ENDBRANCH  20  28
ENDBRANCH  18  19
ENDBRANCH  11  18
TORSDOF 4
ENDMDL
MODEL 9
REMARK VINA RESULT:      -6.1      5.826      9.246
REMARK  Name = 
REMARK  4 active torsions:
REMARK  status: ('A' for Active; 'I' for Inactive)
REMARK    1  A    between atoms: C_2  and  C_4
REMARK    2  A    between atoms: C_14  and  C_16
REMARK    3  A    between atoms: C_16  and  N_17
REMARK    4  A    between atoms: C_18  and  C_19
REMARK                            x       y       z     vdW  Elec       q    Type
REMARK                         _______ _______ _______ _____ _____    ______ ____
ROOT
ATOM      1  C   UNL     1       5.295  15.873  20.595  0.00  0.00    +0.000 C 
ATOM      2  C   UNL     1       3.978  15.229  21.057  0.00  0.00    +0.000 C 
ATOM      3  C   UNL     1       2.873  15.744  20.181  0.00  0.00    +0.000 A 
ATOM      4  C   UNL     1       1.643  16.135  20.716  0.00  0.00    +0.000 A 
ATOM      5  C   UNL     1       0.719  16.792  19.907  0.00  0.00    +0.000 A 
ATOM      6  C   UNL     1       1.013  17.029  18.564  0.00  0.00    +0.000 A 
ATOM      7  C   UNL     1       2.216  16.580  18.014  0.00  0.00    +0.000 A 
ATOM      8  C   UNL     1       3.161  15.934  18.817  0.00  0.00    +0.000 A 
ATOM      9  C   UNL     1       4.488  15.464  18.248  0.00  0.00    +0.000 C 
ATOM     10  N   UNL     1       5.606  15.455  19.212  0.00  0.00    +0.000 N 
ATOM     11  C   UNL     1       6.882  15.262  18.692  0.00  0.00    +0.000 C 
ATOM     12  O   UNL     1       7.029  14.917  17.513  0.00  0.00    +0.000 OA
ENDROOT
BRANCH   1  14
ATOM     13  N   UNL     1       4.920  17.988  21.851  0.00  0.00    +0.000 N 
ATOM     14  C   UNL     1       5.281  17.425  20.666  0.00  0.00    +0.000 C 
ATOM     15  O   UNL     1       5.626  18.154  19.739  0.00  0.00    +0.000 OA
ATOM     16  H   UNL     1       4.854  19.000  21.849  0.00  0.00    +0.000 HD
ATOM     17  H   UNL     1       4.444  17.491  22.584  0.00  0.00    +0.000 HD
ENDBRANCH   1  14
BRANCH  11  18
ATOM     18  C   UNL     1       8.099  15.408  19.583  0.00  0.00    +0.000 C 
BRANCH  18  19
ATOM     19  N   UNL     1       8.886  14.217  19.896  0.00  0.00    +0.000 N 
ATOM     20  C   UNL     1       8.826  13.589  21.135  0.00  0.00    +0.000 A 
ATOM     21  N   UNL     1       9.660  12.575  21.195  0.00  0.00    +0.000 NA
ATOM     22  C   UNL     1      10.235  12.490  19.957  0.00  0.00    +0.000 A 
ATOM     23  C   UNL     1      11.164  11.552  19.486  0.00  0.00    +0.000 A 
ATOM     24  C   UNL     1      11.610  11.637  18.164  0.00  0.00    +0.000 A 
ATOM     25  C   UNL     1      11.142  12.655  17.333  0.00  0.00    +0.000 A 
ATOM     26  C   UNL     1      10.225  13.604  17.790  0.00  0.00    +0.000 A 
ATOM     27  C   UNL     1       9.771  13.505  19.115  0.00  0.00    +0.000 A 
BRANCH  20  28
ATOM     28  C   UNL     1       7.927  13.955  22.283  0.00  0.00    +0.000 A 
ATOM     29  C   UNL     1       6.881  13.143  22.680  0.00  0.00    +0.000 A 
ATOM     30  S   UNL     1       6.020  13.882  23.965  0.00  0.00    +0.000 S 
ATOM     31  C   UNL     1       7.100  15.211  23.894  0.00  0.00    +0.000 A 
ATOM     32  N   UNL     1       8.064  15.132  23.003  0.00  0.00    +0.000 NA
ENDBRANCH  20  28
ENDBRANCH  18  19
ENDBRANCH  11  18
TORSDOF 4
ENDMDL
