MODEL 1
REMARK VINA RESULT:      -8.5      0.000      0.000
REMARK  Name = 
REMARK  6 active torsions:
REMARK  status: ('A' for Active; 'I' for Inactive)
REMARK    1  A    between atoms: C_1  and  C_2
REMARK    2  A    between atoms: C_10  and  S_11
REMARK    3  A    between atoms: S_11  and  N_14
REMARK    4  A    between atoms: N_14  and  C_15
REMARK    5  A    between atoms: C_20  and  C_21
REMARK    6  A    between atoms: C_22  and  C_23
REMARK                            x       y       z     vdW  Elec       q    Type
REMARK                         _______ _______ _______ _____ _____    ______ ____
ROOT
ATOM      1  S   UNL     1       0.926   8.879  21.254  0.00  0.00    +0.000 S 
ATOM      2  O   UNL     1      -0.401   8.335  21.442  0.00  0.00    +0.000 OA
ATOM      3  O   UNL     1       1.845   9.025  22.366  0.00  0.00    +0.000 OA
ENDROOT
BRANCH   1  13
ATOM      4  C   UNL     1       2.199   3.715  21.564  0.00  0.00    +0.000 C 
ATOM      5  C   UNL     1       2.925   3.441  20.278  0.00  0.00    +0.000 C 
ATOM      6  O   UNL     1       3.369   2.307  20.070  0.00  0.00    +0.000 OA
ATOM      7  N   UNL     1       3.077   4.447  19.347  0.00  0.00    +0.000 N 
ATOM      8  C   UNL     1       3.715   4.136  18.060  0.00  0.00    +0.000 C 
ATOM      9  C   UNL     1       3.896   5.450  17.301  0.00  0.00    +0.000 C 
ATOM     10  C   UNL     1       3.112   6.403  18.149  0.00  0.00    +0.000 A 
ATOM     11  C   UNL     1       2.871   7.744  17.875  0.00  0.00    +0.000 A 
ATOM     12  C   UNL     1       2.183   8.501  18.822  0.00  0.00    +0.000 A 
ATOM     13  C   UNL     1       1.751   7.897  20.015  0.00  0.00    +0.000 A 
ATOM     14  C   UNL     1       2.010   6.545  20.285  0.00  0.00    +0.000 A 
ATOM     15  C   UNL     1       2.686   5.798  19.339  0.00  0.00    +0.000 A 
ENDBRANCH   1  13
BRANCH   1  16
ATOM     16  N   UNL     1       0.813  10.406  20.532  0.00  0.00    +0.000 N 
ATOM     17  H   UNL     1       1.581  10.576  19.885  0.00  0.00    +0.000 HD
BRANCH  16  18
ATOM     18  C   UNL     1      -0.475  10.886  20.163  0.00  0.00    +0.000 A 
ATOM     19  C   UNL     1      -1.116  11.820  20.978  0.00  0.00    +0.000 A 
ATOM     20  C   UNL     1      -2.340  12.382  20.600  0.00  0.00    +0.000 A 
ATOM     21  C   UNL     1      -2.879  11.946  19.392  0.00  0.00    +0.000 A 
ATOM     22  O   UNL     1      -4.050  12.375  18.856  0.00  0.00    +0.000 OA
ATOM     23  C   UNL     1      -4.225  11.710  17.681  0.00  0.00    +0.000 A 
ATOM     24  C   UNL     1      -5.452  12.037  16.926  0.00  0.00    +0.000 C 
ATOM     25  C   UNL     1      -3.169  10.843  17.450  0.00  0.00    +0.000 A 
ATOM     26  C   UNL     1      -2.992   9.933  16.292  0.00  0.00    +0.000 C 
ATOM     27  C   UNL     1      -2.282  11.007  18.560  0.00  0.00    +0.000 A 
ATOM     28  C   UNL     1      -1.039  10.468  18.949  0.00  0.00    +0.000 A 
ENDBRANCH  16  18
ENDBRANCH   1  16
TORSDOF 3
ENDMDL
MODEL 2
REMARK VINA RESULT:      -8.1      0.848      1.687
REMARK  Name = 
REMARK  6 active torsions:
REMARK  status: ('A' for Active; 'I' for Inactive)
REMARK    1  A    between atoms: C_1  and  C_2
REMARK    2  A    between atoms: C_10  and  S_11
REMARK    3  A    between atoms: S_11  and  N_14
REMARK    4  A    between atoms: N_14  and  C_15
REMARK    5  A    between atoms: C_20  and  C_21
REMARK    6  A    between atoms: C_22  and  C_23
REMARK                            x       y       z     vdW  Elec       q    Type
REMARK                         _______ _______ _______ _____ _____    ______ ____
ROOT
ATOM      1  S   UNL     1       0.802   9.088  20.980  0.00  0.00    +0.000 S 
ATOM      2  O   UNL     1      -0.487   8.460  21.167  0.00  0.00    +0.000 OA
ATOM      3  O   UNL     1       1.676   9.363  22.103  0.00  0.00    +0.000 OA
ENDROOT
BRANCH   1  13
ATOM      4  C   UNL     1       2.115   3.948  21.461  0.00  0.00    +0.000 C 
ATOM      5  C   UNL     1       2.939   3.666  20.237  0.00  0.00    +0.000 C 
ATOM      6  O   UNL     1       3.412   2.535  20.080  0.00  0.00    +0.000 OA
ATOM      7  N   UNL     1       3.147   4.660  19.306  0.00  0.00    +0.000 N 
ATOM      8  C   UNL     1       3.883   4.341  18.074  0.00  0.00    +0.000 C 
ATOM      9  C   UNL     1       4.105   5.647  17.312  0.00  0.00    +0.000 C 
ATOM     10  C   UNL     1       3.246   6.600  18.084  0.00  0.00    +0.000 A 
ATOM     11  C   UNL     1       3.009   7.933  17.773  0.00  0.00    +0.000 A 
ATOM     12  C   UNL     1       2.242   8.694  18.654  0.00  0.00    +0.000 A 
ATOM     13  C   UNL     1       1.731   8.101  19.821  0.00  0.00    +0.000 A 
ATOM     14  C   UNL     1       1.986   6.756  20.130  0.00  0.00    +0.000 A 
ATOM     15  C   UNL     1       2.741   6.006  19.248  0.00  0.00    +0.000 A 
ENDBRANCH   1  13
BRANCH   1  16
ATOM     16  N   UNL     1       0.601  10.560  20.167  0.00  0.00    +0.000 N 
ATOM     17  H   UNL     1       1.480  10.903  19.784  0.00  0.00    +0.000 HD
BRANCH  16  18
ATOM     18  C   UNL     1      -0.573  10.745  19.384  0.00  0.00    +0.000 A 
ATOM     19  C   UNL     1      -0.676  10.107  18.146  0.00  0.00    +0.000 A 
ATOM     20  C   UNL     1      -1.851  10.191  17.391  0.00  0.00    +0.000 A 
ATOM     21  C   UNL     1      -2.885  10.950  17.933  0.00  0.00    +0.000 A 
ATOM     22  O   UNL     1      -4.099  11.145  17.355  0.00  0.00    +0.000 OA
ATOM     23  C   UNL     1      -4.820  11.943  18.190  0.00  0.00    +0.000 A 
ATOM     24  C   UNL     1      -6.189  12.279  17.746  0.00  0.00    +0.000 C 
ATOM     25  C   UNL     1      -4.077  12.273  19.312  0.00  0.00    +0.000 A 
ATOM     26  C   UNL     1      -4.498  13.131  20.447  0.00  0.00    +0.000 C 
ATOM     27  C   UNL     1      -2.819  11.613  19.151  0.00  0.00    +0.000 A 
ATOM     28  C   UNL     1      -1.633  11.499  19.906  0.00  0.00    +0.000 A 
ENDBRANCH  16  18
ENDBRANCH   1  16
TORSDOF 3
ENDMDL
MODEL 3
REMARK VINA RESULT:      -8.0      2.771      4.553
REMARK  Name = 
REMARK  6 active torsions:
REMARK  status: ('A' for Active; 'I' for Inactive)
REMARK    1  A    between atoms: C_1  and  C_2
REMARK    2  A    between atoms: C_10  and  S_11
REMARK    3  A    between atoms: S_11  and  N_14
REMARK    4  A    between atoms: N_14  and  C_15
REMARK    5  A    between atoms: C_20  and  C_21
REMARK    6  A    between atoms: C_22  and  C_23
REMARK                            x       y       z     vdW  Elec       q    Type
REMARK                         _______ _______ _______ _____ _____    ______ ____
ROOT
ATOM      1  S   UNL     1       1.843   4.637  20.638  0.00  0.00    +0.000 S 
ATOM      2  O   UNL     1       0.439   4.799  20.328  0.00  0.00    +0.000 OA
ATOM      3  O   UNL     1       2.290   3.674  21.624  0.00  0.00    +0.000 OA
ENDROOT
BRANCH   1  13
ATOM      4  C   UNL     1       6.991   5.492  19.566  0.00  0.00    +0.000 C 
ATOM      5  C   UNL     1       7.141   5.059  18.136  0.00  0.00    +0.000 C 
ATOM      6  O   UNL     1       8.246   5.162  17.590  0.00  0.00    +0.000 OA
ATOM      7  N   UNL     1       6.059   4.544  17.456  0.00  0.00    +0.000 N 
ATOM      8  C   UNL     1       6.248   4.046  16.086  0.00  0.00    +0.000 C 
ATOM      9  C   UNL     1       4.871   3.691  15.525  0.00  0.00    +0.000 C 
ATOM     10  C   UNL     1       4.008   3.802  16.743  0.00  0.00    +0.000 A 
ATOM     11  C   UNL     1       2.653   3.503  16.824  0.00  0.00    +0.000 A 
ATOM     12  C   UNL     1       1.991   3.743  18.027  0.00  0.00    +0.000 A 
ATOM     13  C   UNL     1       2.701   4.272  19.118  0.00  0.00    +0.000 A 
ATOM     14  C   UNL     1       4.067   4.580  19.022  0.00  0.00    +0.000 A 
ATOM     15  C   UNL     1       4.718   4.333  17.828  0.00  0.00    +0.000 A 
ENDBRANCH   1  13
BRANCH   1  16
ATOM     16  N   UNL     1       2.493   6.128  21.106  0.00  0.00    +0.000 N 
ATOM     17  H   UNL     1       3.500   6.073  21.252  0.00  0.00    +0.000 HD
BRANCH  16  18
ATOM     18  C   UNL     1       1.981   7.310  20.499  0.00  0.00    +0.000 A 
ATOM     19  C   UNL     1       2.243   7.553  19.150  0.00  0.00    +0.000 A 
ATOM     20  C   UNL     1       1.680   8.655  18.497  0.00  0.00    +0.000 A 
ATOM     21  C   UNL     1       0.872   9.488  19.267  0.00  0.00    +0.000 A 
ATOM     22  O   UNL     1       0.237  10.599  18.814  0.00  0.00    +0.000 OA
ATOM     23  C   UNL     1      -0.441  11.135  19.866  0.00  0.00    +0.000 A 
ATOM     24  C   UNL     1      -1.213  12.363  19.585  0.00  0.00    +0.000 C 
ATOM     25  C   UNL     1      -0.246  10.375  21.008  0.00  0.00    +0.000 A 
ATOM     26  C   UNL     1      -0.800  10.631  22.361  0.00  0.00    +0.000 C 
ATOM     27  C   UNL     1       0.600   9.292  20.614  0.00  0.00    +0.000 A 
ATOM     28  C   UNL     1       1.160   8.164  21.249  0.00  0.00    +0.000 A 
ENDBRANCH  16  18
ENDBRANCH   1  16
TORSDOF 3
ENDMDL
MODEL 4
REMARK VINA RESULT:      -8.0      2.754      3.666
REMARK  Name = 
REMARK  6 active torsions:
REMARK  status: ('A' for Active; 'I' for Inactive)
REMARK    1  A    between atoms: C_1  and  C_2
REMARK    2  A    between atoms: C_10  and  S_11
REMARK    3  A    between atoms: S_11  and  N_14
REMARK    4  A    between atoms: N_14  and  C_15
REMARK    5  A    between atoms: C_20  and  C_21
REMARK    6  A    between atoms: C_22  and  C_23
REMARK                            x       y       z     vdW  Elec       q    Type
REMARK                         _______ _______ _______ _____ _____    ______ ____
ROOT
ATOM      1  S   UNL     1       0.473   9.001  21.463  0.00  0.00    +0.000 S 
ATOM      2  O   UNL     1      -0.628   8.142  21.840  0.00  0.00    +0.000 OA
ATOM      3  O   UNL     1       1.422   9.484  22.446  0.00  0.00    +0.000 OA
ENDROOT
BRANCH   1  13
ATOM      4  C   UNL     1       2.148   3.944  21.496  0.00  0.00    +0.000 C 
ATOM      5  C   UNL     1       2.929   3.811  20.220  0.00  0.00    +0.000 C 
ATOM      6  O   UNL     1       3.469   2.730  19.957  0.00  0.00    +0.000 OA
ATOM      7  N   UNL     1       3.025   4.882  19.359  0.00  0.00    +0.000 N 
ATOM      8  C   UNL     1       3.721   4.705  18.076  0.00  0.00    +0.000 C 
ATOM      9  C   UNL     1       3.817   6.075  17.406  0.00  0.00    +0.000 C 
ATOM     10  C   UNL     1       2.935   6.907  18.284  0.00  0.00    +0.000 A 
ATOM     11  C   UNL     1       2.595   8.240  18.086  0.00  0.00    +0.000 A 
ATOM     12  C   UNL     1       1.823   8.879  19.054  0.00  0.00    +0.000 A 
ATOM     13  C   UNL     1       1.409   8.168  20.193  0.00  0.00    +0.000 A 
ATOM     14  C   UNL     1       1.767   6.826  20.388  0.00  0.00    +0.000 A 
ATOM     15  C   UNL     1       2.527   6.197  19.421  0.00  0.00    +0.000 A 
ENDBRANCH   1  13
BRANCH   1  16
ATOM     16  N   UNL     1      -0.126  10.373  20.672  0.00  0.00    +0.000 N 
ATOM     17  H   UNL     1      -0.792  10.127  19.941  0.00  0.00    +0.000 HD
BRANCH  16  18
ATOM     18  C   UNL     1      -0.400  11.534  21.447  0.00  0.00    +0.000 A 
ATOM     19  C   UNL     1       0.434  12.648  21.328  0.00  0.00    +0.000 A 
ATOM     20  C   UNL     1       0.142  13.838  22.004  0.00  0.00    +0.000 A 
ATOM     21  C   UNL     1      -0.998  13.836  22.803  0.00  0.00    +0.000 A 
ATOM     22  O   UNL     1      -1.446  14.892  23.530  0.00  0.00    +0.000 OA
ATOM     23  C   UNL     1      -2.577  14.489  24.172  0.00  0.00    +0.000 A 
ATOM     24  C   UNL     1      -3.236  15.501  25.025  0.00  0.00    +0.000 C 
ATOM     25  C   UNL     1      -2.867  13.169  23.867  0.00  0.00    +0.000 A 
ATOM     26  C   UNL     1      -4.003  12.360  24.374  0.00  0.00    +0.000 C 
ATOM     27  C   UNL     1      -1.844  12.746  22.962  0.00  0.00    +0.000 A 
ATOM     28  C   UNL     1      -1.545  11.563  22.256  0.00  0.00    +0.000 A 
ENDBRANCH  16  18
ENDBRANCH   1  16
TORSDOF 3
ENDMDL
MODEL 5
REMARK VINA RESULT:      -7.8      0.922      1.011
REMARK  Name = 
REMARK  6 active torsions:
REMARK  status: ('A' for Active; 'I' for Inactive)
REMARK    1  A    between atoms: C_1  and  C_2
REMARK    2  A    between atoms: C_10  and  S_11
REMARK    3  A    between atoms: S_11  and  N_14
REMARK    4  A    between atoms: N_14  and  C_15
REMARK    5  A    between atoms: C_20  and  C_21
REMARK    6  A    between atoms: C_22  and  C_23
REMARK                            x       y       z     vdW  Elec       q    Type
REMARK                         _______ _______ _______ _____ _____    ______ ____
ROOT
ATOM      1  S   UNL     1       0.524   9.635  20.874  0.00  0.00    +0.000 S 
ATOM      2  O   UNL     1      -0.701   8.902  21.106  0.00  0.00    +0.000 OA
ATOM      3  O   UNL     1       1.404   9.995  21.968  0.00  0.00    +0.000 OA
ENDROOT
BRANCH   1  13
ATOM      4  C   UNL     1       2.188   4.593  21.307  0.00  0.00    +0.000 C 
ATOM      5  C   UNL     1       3.009   4.373  20.069  0.00  0.00    +0.000 C 
ATOM      6  O   UNL     1       3.555   3.277  19.898  0.00  0.00    +0.000 OA
ATOM      7  N   UNL     1       3.135   5.383  19.140  0.00  0.00    +0.000 N 
ATOM      8  C   UNL     1       3.871   5.119  17.895  0.00  0.00    +0.000 C 
ATOM      9  C   UNL     1       3.992   6.441  17.137  0.00  0.00    +0.000 C 
ATOM     10  C   UNL     1       3.083   7.330  17.927  0.00  0.00    +0.000 A 
ATOM     11  C   UNL     1       2.752   8.646  17.627  0.00  0.00    +0.000 A 
ATOM     12  C   UNL     1       1.950   9.350  18.525  0.00  0.00    +0.000 A 
ATOM     13  C   UNL     1       1.498   8.718  19.696  0.00  0.00    +0.000 A 
ATOM     14  C   UNL     1       1.848   7.392  19.993  0.00  0.00    +0.000 A 
ATOM     15  C   UNL     1       2.638   6.699  19.096  0.00  0.00    +0.000 A 
ENDBRANCH   1  13
BRANCH   1  16
ATOM     16  N   UNL     1       0.174  11.076  20.057  0.00  0.00    +0.000 N 
ATOM     17  H   UNL     1       0.798  11.222  19.264  0.00  0.00    +0.000 HD
BRANCH  16  18
ATOM     18  C   UNL     1      -1.190  11.448  19.896  0.00  0.00    +0.000 A 
ATOM     19  C   UNL     1      -1.824  12.174  20.907  0.00  0.00    +0.000 A 
ATOM     20  C   UNL     1      -3.134  12.636  20.744  0.00  0.00    +0.000 A 
ATOM     21  C   UNL     1      -3.762  12.317  19.543  0.00  0.00    +0.000 A 
ATOM     22  O   UNL     1      -5.025  12.678  19.199  0.00  0.00    +0.000 OA
ATOM     23  C   UNL     1      -5.267  12.172  17.959  0.00  0.00    +0.000 A 
ATOM     24  C   UNL     1      -6.600  12.456  17.389  0.00  0.00    +0.000 C 
ATOM     25  C   UNL     1      -4.163  11.477  17.492  0.00  0.00    +0.000 A 
ATOM     26  C   UNL     1      -4.030  10.769  16.194  0.00  0.00    +0.000 C 
ATOM     27  C   UNL     1      -3.174  11.584  18.520  0.00  0.00    +0.000 A 
ATOM     28  C   UNL     1      -1.846  11.145  18.694  0.00  0.00    +0.000 A 
ENDBRANCH  16  18
ENDBRANCH   1  16
TORSDOF 3
ENDMDL
MODEL 6
REMARK VINA RESULT:      -7.7      1.212      2.438
REMARK  Name = 
REMARK  6 active torsions:
REMARK  status: ('A' for Active; 'I' for Inactive)
REMARK    1  A    between atoms: C_1  and  C_2
REMARK    2  A    between atoms: C_10  and  S_11
REMARK    3  A    between atoms: S_11  and  N_14
REMARK    4  A    between atoms: N_14  and  C_15
REMARK    5  A    between atoms: C_20  and  C_21
REMARK    6  A    between atoms: C_22  and  C_23
REMARK                            x       y       z     vdW  Elec       q    Type
REMARK                         _______ _______ _______ _____ _____    ______ ____
ROOT
ATOM      1  S   UNL     1       0.851   8.937  21.176  0.00  0.00    +0.000 S 
ATOM      2  O   UNL     1      -0.511   8.455  21.246  0.00  0.00    +0.000 OA
ATOM      3  O   UNL     1       1.693   8.990  22.354  0.00  0.00    +0.000 OA
ENDROOT
BRANCH   1  13
ATOM      4  C   UNL     1       2.196   3.794  21.531  0.00  0.00    +0.000 C 
ATOM      5  C   UNL     1       2.951   3.526  20.260  0.00  0.00    +0.000 C 
ATOM      6  O   UNL     1       3.416   2.398  20.065  0.00  0.00    +0.000 OA
ATOM      7  N   UNL     1       3.105   4.530  19.329  0.00  0.00    +0.000 N 
ATOM      8  C   UNL     1       3.772   4.224  18.055  0.00  0.00    +0.000 C 
ATOM      9  C   UNL     1       3.948   5.539  17.295  0.00  0.00    +0.000 C 
ATOM     10  C   UNL     1       3.133   6.482  18.123  0.00  0.00    +0.000 A 
ATOM     11  C   UNL     1       2.877   7.818  17.839  0.00  0.00    +0.000 A 
ATOM     12  C   UNL     1       2.160   8.569  18.769  0.00  0.00    +0.000 A 
ATOM     13  C   UNL     1       1.715   7.962  19.957  0.00  0.00    +0.000 A 
ATOM     14  C   UNL     1       1.989   6.616  20.237  0.00  0.00    +0.000 A 
ATOM     15  C   UNL     1       2.694   5.876  19.308  0.00  0.00    +0.000 A 
ENDBRANCH   1  13
BRANCH   1  16
ATOM     16  N   UNL     1       0.866  10.495  20.514  0.00  0.00    +0.000 N 
ATOM     17  H   UNL     1       1.549  10.580  19.763  0.00  0.00    +0.000 HD
BRANCH  16  18
ATOM     18  C   UNL     1      -0.375  11.173  20.353  0.00  0.00    +0.000 A 
ATOM     19  C   UNL     1      -0.967  11.224  19.090  0.00  0.00    +0.000 A 
ATOM     20  C   UNL     1      -2.229  11.800  18.913  0.00  0.00    +0.000 A 
ATOM     21  C   UNL     1      -2.839  12.327  20.049  0.00  0.00    +0.000 A 
ATOM     22  O   UNL     1      -4.059  12.921  20.079  0.00  0.00    +0.000 OA
ATOM     23  C   UNL     1      -4.291  13.304  21.364  0.00  0.00    +0.000 A 
ATOM     24  C   UNL     1      -5.583  13.974  21.621  0.00  0.00    +0.000 C 
ATOM     25  C   UNL     1      -3.220  12.963  22.175  0.00  0.00    +0.000 A 
ATOM     26  C   UNL     1      -3.079  13.218  23.630  0.00  0.00    +0.000 C 
ATOM     27  C   UNL     1      -2.277  12.312  21.319  0.00  0.00    +0.000 A 
ATOM     28  C   UNL     1      -1.014  11.708  21.481  0.00  0.00    +0.000 A 
ENDBRANCH  16  18
ENDBRANCH   1  16
TORSDOF 3
ENDMDL
MODEL 7
REMARK VINA RESULT:      -7.7      2.606      7.866
REMARK  Name = 
REMARK  6 active torsions:
REMARK  status: ('A' for Active; 'I' for Inactive)
REMARK    1  A    between atoms: C_1  and  C_2
REMARK    2  A    between atoms: C_10  and  S_11
REMARK    3  A    between atoms: S_11  and  N_14
REMARK    4  A    between atoms: N_14  and  C_15
REMARK    5  A    between atoms: C_20  and  C_21
REMARK    6  A    between atoms: C_22  and  C_23
REMARK                            x       y       z     vdW  Elec       q    Type
REMARK                         _______ _______ _______ _____ _____    ______ ____
ROOT
ATOM      1  S   UNL     1       0.303   9.164  22.030  0.00  0.00    +0.000 S 
ATOM      2  O   UNL     1       0.359   9.811  23.322  0.00  0.00    +0.000 OA
ATOM      3  O   UNL     1      -0.676   8.135  21.745  0.00  0.00    +0.000 OA
ENDROOT
BRANCH   1  13
ATOM      4  C   UNL     1       3.142  13.646  21.541  0.00  0.00    +0.000 C 
ATOM      5  C   UNL     1       2.508  14.353  20.377  0.00  0.00    +0.000 C 
ATOM      6  O   UNL     1       2.949  15.456  20.033  0.00  0.00    +0.000 OA
ATOM      7  N   UNL     1       1.458  13.765  19.705  0.00  0.00    +0.000 N 
ATOM      8  C   UNL     1       0.909  14.433  18.516  0.00  0.00    +0.000 C 
ATOM      9  C   UNL     1      -0.330  13.655  18.076  0.00  0.00    +0.000 C 
ATOM     10  C   UNL     1      -0.248  12.435  18.940  0.00  0.00    +0.000 A 
ATOM     11  C   UNL     1      -1.095  11.335  18.897  0.00  0.00    +0.000 A 
ATOM     12  C   UNL     1      -0.915  10.320  19.835  0.00  0.00    +0.000 A 
ATOM     13  C   UNL     1       0.110  10.431  20.790  0.00  0.00    +0.000 A 
ATOM     14  C   UNL     1       0.953  11.552  20.831  0.00  0.00    +0.000 A 
ATOM     15  C   UNL     1       0.773  12.550  19.893  0.00  0.00    +0.000 A 
ENDBRANCH   1  13
BRANCH   1  16
ATOM     16  N   UNL     1       1.814   8.490  21.670  0.00  0.00    +0.000 N 
ATOM     17  H   UNL     1       2.362   8.320  22.511  0.00  0.00    +0.000 HD
BRANCH  16  18
ATOM     18  C   UNL     1       1.892   7.523  20.629  0.00  0.00    +0.000 A 
ATOM     19  C   UNL     1       2.175   7.942  19.327  0.00  0.00    +0.000 A 
ATOM     20  C   UNL     1       2.350   7.012  18.297  0.00  0.00    +0.000 A 
ATOM     21  C   UNL     1       2.209   5.669  18.639  0.00  0.00    +0.000 A 
ATOM     22  O   UNL     1       2.345   4.624  17.783  0.00  0.00    +0.000 OA
ATOM     23  C   UNL     1       2.126   3.486  18.497  0.00  0.00    +0.000 A 
ATOM     24  C   UNL     1       2.231   2.217  17.747  0.00  0.00    +0.000 C 
ATOM     25  C   UNL     1       1.843   3.787  19.820  0.00  0.00    +0.000 A 
ATOM     26  C   UNL     1       1.535   2.830  20.912  0.00  0.00    +0.000 C 
ATOM     27  C   UNL     1       1.911   5.212  19.916  0.00  0.00    +0.000 A 
ATOM     28  C   UNL     1       1.759   6.164  20.945  0.00  0.00    +0.000 A 
ENDBRANCH  16  18
ENDBRANCH   1  16
TORSDOF 3
ENDMDL
MODEL 8
REMARK VINA RESULT:      -7.7      4.221      9.022
REMARK  Name = 
REMARK  6 active torsions:
REMARK  status: ('A' for Active; 'I' for Inactive)
REMARK    1  A    between atoms: C_1  and  C_2
REMARK    2  A    between atoms: C_10  and  S_11
REMARK    3  A    between atoms: S_11  and  N_14
REMARK    4  A    between atoms: N_14  and  C_15
REMARK    5  A    between atoms: C_20  and  C_21
REMARK    6  A    between atoms: C_22  and  C_23
REMARK                            x       y       z     vdW  Elec       q    Type
REMARK                         _______ _______ _______ _____ _____    ______ ____
ROOT
ATOM      1  S   UNL     1       3.055   2.816  18.272  0.00  0.00    +0.000 S 
ATOM      2  O   UNL     1       2.549   1.631  18.927  0.00  0.00    +0.000 OA
ATOM      3  O   UNL     1       2.824   3.053  16.861  0.00  0.00    +0.000 OA
ENDROOT
BRANCH   1  13
ATOM      4  C   UNL     1       3.223   7.902  16.695  0.00  0.00    +0.000 C 
ATOM      5  C   UNL     1       2.621   8.660  17.844  0.00  0.00    +0.000 C 
ATOM      6  O   UNL     1       2.544   9.892  17.776  0.00  0.00    +0.000 OA
ATOM      7  N   UNL     1       2.157   7.978  18.949  0.00  0.00    +0.000 N 
ATOM      8  C   UNL     1       1.495   8.730  20.024  0.00  0.00    +0.000 C 
ATOM      9  C   UNL     1       1.233   7.760  21.176  0.00  0.00    +0.000 C 
ATOM     10  C   UNL     1       1.569   6.443  20.549  0.00  0.00    +0.000 A 
ATOM     11  C   UNL     1       1.430   5.191  21.136  0.00  0.00    +0.000 A 
ATOM     12  C   UNL     1       1.871   4.074  20.429  0.00  0.00    +0.000 A 
ATOM     13  C   UNL     1       2.435   4.238  19.152  0.00  0.00    +0.000 A 
ATOM     14  C   UNL     1       2.580   5.508  18.574  0.00  0.00    +0.000 A 
ATOM     15  C   UNL     1       2.135   6.610  19.278  0.00  0.00    +0.000 A 
ENDBRANCH   1  13
BRANCH   1  16
ATOM     16  N   UNL     1       4.730   2.916  18.498  0.00  0.00    +0.000 N 
ATOM     17  H   UNL     1       5.125   2.024  18.793  0.00  0.00    +0.000 HD
BRANCH  16  18
ATOM     18  C   UNL     1       5.490   3.701  17.586  0.00  0.00    +0.000 A 
ATOM     19  C   UNL     1       6.351   4.682  18.082  0.00  0.00    +0.000 A 
ATOM     20  C   UNL     1       7.181   5.409  17.222  0.00  0.00    +0.000 A 
ATOM     21  C   UNL     1       7.083   5.113  15.865  0.00  0.00    +0.000 A 
ATOM     22  O   UNL     1       7.805   5.707  14.880  0.00  0.00    +0.000 OA
ATOM     23  C   UNL     1       7.416   5.148  13.701  0.00  0.00    +0.000 A 
ATOM     24  C   UNL     1       8.091   5.654  12.488  0.00  0.00    +0.000 C 
ATOM     25  C   UNL     1       6.437   4.192  13.915  0.00  0.00    +0.000 A 
ATOM     26  C   UNL     1       5.745   3.370  12.890  0.00  0.00    +0.000 C 
ATOM     27  C   UNL     1       6.229   4.159  15.329  0.00  0.00    +0.000 A 
ATOM     28  C   UNL     1       5.416   3.422  16.214  0.00  0.00    +0.000 A 
ENDBRANCH  16  18
ENDBRANCH   1  16
TORSDOF 3
ENDMDL
MODEL 9
REMARK VINA RESULT:      -7.6      2.043      8.464
REMARK  Name = 
REMARK  6 active torsions:
REMARK  status: ('A' for Active; 'I' for Inactive)
REMARK    1  A    between atoms: C_1  and  C_2
REMARK    2  A    between atoms: C_10  and  S_11
REMARK    3  A    between atoms: S_11  and  N_14
REMARK    4  A    between atoms: N_14  and  C_15
REMARK    5  A    between atoms: C_20  and  C_21
REMARK    6  A    between atoms: C_22  and  C_23
REMARK                            x       y       z     vdW  Elec       q    Type
REMARK                         _______ _______ _______ _____ _____    ______ ____
ROOT
ATOM      1  S   UNL     1       1.463   9.219  18.272  0.00  0.00    +0.000 S 
ATOM      2  O   UNL     1       0.859   8.197  17.446  0.00  0.00    +0.000 OA
ATOM      3  O   UNL     1       2.444  10.141  17.734  0.00  0.00    +0.000 OA
ENDROOT
BRANCH   1  13
ATOM      4  C   UNL     1      -3.279  10.295  16.096  0.00  0.00    +0.000 C 
ATOM      5  C   UNL     1      -3.940  11.203  17.093  0.00  0.00    +0.000 C 
ATOM      6  O   UNL     1      -5.068  11.645  16.847  0.00  0.00    +0.000 OA
ATOM      7  N   UNL     1      -3.291  11.524  18.267  0.00  0.00    +0.000 N 
ATOM      8  C   UNL     1      -3.989  12.344  19.267  0.00  0.00    +0.000 C 
ATOM      9  C   UNL     1      -2.990  12.675  20.376  0.00  0.00    +0.000 C 
ATOM     10  C   UNL     1      -1.834  11.794  20.019  0.00  0.00    +0.000 A 
ATOM     11  C   UNL     1      -0.664  11.633  20.750  0.00  0.00    +0.000 A 
ATOM     12  C   UNL     1       0.344  10.827  20.222  0.00  0.00    +0.000 A 
ATOM     13  C   UNL     1       0.152  10.201  18.978  0.00  0.00    +0.000 A 
ATOM     14  C   UNL     1      -1.030  10.379  18.244  0.00  0.00    +0.000 A 
ATOM     15  C   UNL     1      -2.027  11.174  18.777  0.00  0.00    +0.000 A 
ENDBRANCH   1  13
BRANCH   1  16
ATOM     16  N   UNL     1       2.185   8.500  19.624  0.00  0.00    +0.000 N 
ATOM     17  H   UNL     1       1.925   8.973  20.488  0.00  0.00    +0.000 HD
BRANCH  16  18
ATOM     18  C   UNL     1       2.291   7.081  19.659  0.00  0.00    +0.000 A 
ATOM     19  C   UNL     1       1.538   6.362  20.589  0.00  0.00    +0.000 A 
ATOM     20  C   UNL     1       1.547   4.963  20.591  0.00  0.00    +0.000 A 
ATOM     21  C   UNL     1       2.351   4.344  19.637  0.00  0.00    +0.000 A 
ATOM     22  O   UNL     1       2.487   3.002  19.479  0.00  0.00    +0.000 OA
ATOM     23  C   UNL     1       3.359   2.802  18.453  0.00  0.00    +0.000 A 
ATOM     24  C   UNL     1       3.647   1.394  18.109  0.00  0.00    +0.000 C 
ATOM     25  C   UNL     1       3.796   4.014  17.942  0.00  0.00    +0.000 A 
ATOM     26  C   UNL     1       4.758   4.225  16.832  0.00  0.00    +0.000 C 
ATOM     27  C   UNL     1       3.127   5.021  18.706  0.00  0.00    +0.000 A 
ATOM     28  C   UNL     1       3.089   6.430  18.706  0.00  0.00    +0.000 A 
ENDBRANCH  16  18
ENDBRANCH   1  16
TORSDOF 3
ENDMDL
