MODEL 1
REMARK VINA RESULT:      -9.0      0.000      0.000
REMARK  Name = 
REMARK  5 active torsions:
REMARK  status: ('A' for Active; 'I' for Inactive)
REMARK    1  A    between atoms: C_2  and  C_14
REMARK    2  A    between atoms: N_3  and  C_4
REMARK    3  A    between atoms: C_19  and  O_20
REMARK    4  A    between atoms: O_20  and  C_21
REMARK    5  A    between atoms: C_21  and  C_22
REMARK                            x       y       z     vdW  Elec       q    Type
REMARK                         _______ _______ _______ _____ _____    ______ ____
ROOT
ATOM      1  O   UNL     1       5.230   6.544  15.189  0.00  0.00    +0.000 OA
ATOM      2  C   UNL     1       4.923   6.635  16.379  0.00  0.00    +0.000 C 
ATOM      3  N   UNL     1       3.661   7.087  16.696  0.00  0.00    +0.000 N 
ATOM      4  H   UNL     1       3.047   7.076  15.884  0.00  0.00    +0.000 HD
ENDROOT
BRANCH   3   5
ATOM      5  C   UNL     1       3.092   7.456  17.925  0.00  0.00    +0.000 A 
ATOM      6  C   UNL     1       3.015   6.571  19.027  0.00  0.00    +0.000 A 
ATOM      7  C   UNL     1       2.208   6.855  20.134  0.00  0.00    +0.000 A 
ATOM      8  C   UNL     1       1.555   8.060  20.121  0.00  0.00    +0.000 A 
ATOM      9  N   UNL     1       0.608   8.559  21.004  0.00  0.00    +0.000 N 
ATOM     10  C   UNL     1       0.216   9.831  20.569  0.00  0.00    +0.000 A 
ATOM     11  O   UNL     1      -0.603  10.560  21.096  0.00  0.00    +0.000 OA
ATOM     12  N   UNL     1       0.939  10.094  19.395  0.00  0.00    +0.000 N 
ATOM     13  C   UNL     1       1.738   8.994  19.106  0.00  0.00    +0.000 A 
ATOM     14  C   UNL     1       2.517   8.736  18.004  0.00  0.00    +0.000 A 
ATOM     15  H   UNL     1       0.207   8.090  21.800  0.00  0.00    +0.000 HD
ATOM     16  H   UNL     1       0.832  10.936  18.851  0.00  0.00    +0.000 HD
ENDBRANCH   3   5
BRANCH   2  17
ATOM     17  C   UNL     1       5.942   6.252  17.382  0.00  0.00    +0.000 A 
ATOM     18  C   UNL     1       6.975   7.175  17.607  0.00  0.00    +0.000 A 
ATOM     19  C   UNL     1       7.960   6.912  18.555  0.00  0.00    +0.000 A 
ATOM     20  C   UNL     1       7.888   5.727  19.251  0.00  0.00    +0.000 A 
ATOM     21  N   UNL     1       6.931   4.805  19.048  0.00  0.00    +0.000 NA
ATOM     22  C   UNL     1       5.981   5.063  18.114  0.00  0.00    +0.000 A 
BRANCH  22  23
ATOM     23  O   UNL     1       5.076   4.049  17.877  0.00  0.00    +0.000 OA
BRANCH  23  24
ATOM     24  C   UNL     1       4.794   3.276  19.062  0.00  0.00    +0.000 C 
BRANCH  24  25
ATOM     25  C   UNL     1       3.344   3.130  19.437  0.00  0.00    +0.000 A 
ATOM     26  C   UNL     1       2.897   3.224  20.756  0.00  0.00    +0.000 A 
ATOM     27  C   UNL     1       1.532   3.187  21.037  0.00  0.00    +0.000 A 
ATOM     28  C   UNL     1       0.606   3.027  20.006  0.00  0.00    +0.000 A 
ATOM     29  C   UNL     1       1.042   2.898  18.689  0.00  0.00    +0.000 A 
ATOM     30  C   UNL     1       2.405   2.951  18.416  0.00  0.00    +0.000 A 
ATOM     31  F   UNL     1       2.811   2.852  17.141  0.00  0.00    +0.000 F 
ENDBRANCH  24  25
ENDBRANCH  23  24
ENDBRANCH  22  23
ENDBRANCH   2  17
TORSDOF 5
ENDMDL
MODEL 2
REMARK VINA RESULT:      -8.9      1.932      4.922
REMARK  Name = 
REMARK  5 active torsions:
REMARK  status: ('A' for Active; 'I' for Inactive)
REMARK    1  A    between atoms: C_2  and  C_14
REMARK    2  A    between atoms: N_3  and  C_4
REMARK    3  A    between atoms: C_19  and  O_20
REMARK    4  A    between atoms: O_20  and  C_21
REMARK    5  A    between atoms: C_21  and  C_22
REMARK                            x       y       z     vdW  Elec       q    Type
REMARK                         _______ _______ _______ _____ _____    ______ ____
ROOT
ATOM      1  O   UNL     1       2.312   3.780  22.225  0.00  0.00    +0.000 OA
ATOM      2  C   UNL     1       2.296   4.417  21.170  0.00  0.00    +0.000 C 
ATOM      3  N   UNL     1       2.199   5.789  21.237  0.00  0.00    +0.000 N 
ATOM      4  H   UNL     1       2.383   6.130  22.178  0.00  0.00    +0.000 HD
ENDROOT
BRANCH   3   5
ATOM      5  C   UNL     1       1.986   6.752  20.237  0.00  0.00    +0.000 A 
ATOM      6  C   UNL     1       2.501   6.616  18.925  0.00  0.00    +0.000 A 
ATOM      7  C   UNL     1       2.518   7.696  18.035  0.00  0.00    +0.000 A 
ATOM      8  C   UNL     1       1.952   8.863  18.478  0.00  0.00    +0.000 A 
ATOM      9  N   UNL     1       1.928  10.114  17.879  0.00  0.00    +0.000 N 
ATOM     10  C   UNL     1       1.243  11.000  18.720  0.00  0.00    +0.000 A 
ATOM     11  O   UNL     1       1.037  12.182  18.519  0.00  0.00    +0.000 OA
ATOM     12  N   UNL     1       0.858  10.264  19.852  0.00  0.00    +0.000 N 
ATOM     13  C   UNL     1       1.320   8.959  19.714  0.00  0.00    +0.000 A 
ATOM     14  C   UNL     1       1.297   7.918  20.610  0.00  0.00    +0.000 A 
ATOM     15  H   UNL     1       2.366  10.386  17.014  0.00  0.00    +0.000 HD
ATOM     16  H   UNL     1       0.369  10.663  20.637  0.00  0.00    +0.000 HD
ENDBRANCH   3   5
BRANCH   2  17
ATOM     17  C   UNL     1       2.381   3.653  19.905  0.00  0.00    +0.000 A 
ATOM     18  C   UNL     1       1.187   3.076  19.443  0.00  0.00    +0.000 A 
ATOM     19  C   UNL     1       1.167   2.366  18.245  0.00  0.00    +0.000 A 
ATOM     20  C   UNL     1       2.344   2.247  17.543  0.00  0.00    +0.000 A 
ATOM     21  N   UNL     1       3.514   2.761  17.964  0.00  0.00    +0.000 NA
ATOM     22  C   UNL     1       3.529   3.442  19.138  0.00  0.00    +0.000 A 
BRANCH  22  23
ATOM     23  O   UNL     1       4.766   3.870  19.572  0.00  0.00    +0.000 OA
BRANCH  23  24
ATOM     24  C   UNL     1       5.730   3.942  18.500  0.00  0.00    +0.000 C 
BRANCH  24  25
ATOM     25  C   UNL     1       6.369   5.283  18.262  0.00  0.00    +0.000 A 
ATOM     26  C   UNL     1       7.495   5.712  18.968  0.00  0.00    +0.000 A 
ATOM     27  C   UNL     1       8.112   6.917  18.635  0.00  0.00    +0.000 A 
ATOM     28  C   UNL     1       7.592   7.716  17.616  0.00  0.00    +0.000 A 
ATOM     29  C   UNL     1       6.448   7.315  16.929  0.00  0.00    +0.000 A 
ATOM     30  C   UNL     1       5.849   6.103  17.257  0.00  0.00    +0.000 A 
ATOM     31  F   UNL     1       4.763   5.715  16.570  0.00  0.00    +0.000 F 
ENDBRANCH  24  25
ENDBRANCH  23  24
ENDBRANCH  22  23
ENDBRANCH   2  17
TORSDOF 5
ENDMDL
MODEL 3
REMARK VINA RESULT:      -8.6      0.948      1.270
REMARK  Name = 
REMARK  5 active torsions:
REMARK  status: ('A' for Active; 'I' for Inactive)
REMARK    1  A    between atoms: C_2  and  C_14
REMARK    2  A    between atoms: N_3  and  C_4
REMARK    3  A    between atoms: C_19  and  O_20
REMARK    4  A    between atoms: O_20  and  C_21
REMARK    5  A    between atoms: C_21  and  C_22
REMARK                            x       y       z     vdW  Elec       q    Type
REMARK                         _______ _______ _______ _____ _____    ______ ____
ROOT
ATOM      1  O   UNL     1       5.163   6.806  15.096  0.00  0.00    +0.000 OA
ATOM      2  C   UNL     1       4.826   6.819  16.282  0.00  0.00    +0.000 C 
ATOM      3  N   UNL     1       3.618   7.392  16.611  0.00  0.00    +0.000 N 
ATOM      4  H   UNL     1       3.037   7.535  15.788  0.00  0.00    +0.000 HD
ENDROOT
BRANCH   3   5
ATOM      5  C   UNL     1       3.053   7.709  17.857  0.00  0.00    +0.000 A 
ATOM      6  C   UNL     1       3.012   6.790  18.933  0.00  0.00    +0.000 A 
ATOM      7  C   UNL     1       2.210   7.018  20.057  0.00  0.00    +0.000 A 
ATOM      8  C   UNL     1       1.525   8.205  20.087  0.00  0.00    +0.000 A 
ATOM      9  N   UNL     1       0.575   8.651  20.994  0.00  0.00    +0.000 N 
ATOM     10  C   UNL     1       0.145   9.925  20.602  0.00  0.00    +0.000 A 
ATOM     11  O   UNL     1      -0.688  10.616  21.159  0.00  0.00    +0.000 OA
ATOM     12  N   UNL     1       0.847  10.242  19.428  0.00  0.00    +0.000 N 
ATOM     13  C   UNL     1       1.671   9.173  19.098  0.00  0.00    +0.000 A 
ATOM     14  C   UNL     1       2.445   8.969  17.980  0.00  0.00    +0.000 A 
ATOM     15  H   UNL     1       0.196   8.148  21.780  0.00  0.00    +0.000 HD
ATOM     16  H   UNL     1       0.711  11.096  18.912  0.00  0.00    +0.000 HD
ENDBRANCH   3   5
BRANCH   2  17
ATOM     17  C   UNL     1       5.753   6.217  17.266  0.00  0.00    +0.000 A 
ATOM     18  C   UNL     1       6.863   6.994  17.634  0.00  0.00    +0.000 A 
ATOM     19  C   UNL     1       7.772   6.520  18.577  0.00  0.00    +0.000 A 
ATOM     20  C   UNL     1       7.548   5.278  19.124  0.00  0.00    +0.000 A 
ATOM     21  N   UNL     1       6.512   4.491  18.780  0.00  0.00    +0.000 NA
ATOM     22  C   UNL     1       5.638   4.954  17.851  0.00  0.00    +0.000 A 
BRANCH  22  23
ATOM     23  O   UNL     1       4.647   4.077  17.464  0.00  0.00    +0.000 OA
BRANCH  23  24
ATOM     24  C   UNL     1       4.478   2.991  18.401  0.00  0.00    +0.000 C 
BRANCH  24  25
ATOM     25  C   UNL     1       3.281   3.070  19.308  0.00  0.00    +0.000 A 
ATOM     26  C   UNL     1       2.036   3.524  18.869  0.00  0.00    +0.000 A 
ATOM     27  C   UNL     1       0.933   3.476  19.721  0.00  0.00    +0.000 A 
ATOM     28  C   UNL     1       1.072   3.001  21.026  0.00  0.00    +0.000 A 
ATOM     29  C   UNL     1       2.317   2.578  21.486  0.00  0.00    +0.000 A 
ATOM     30  C   UNL     1       3.409   2.614  20.624  0.00  0.00    +0.000 A 
ATOM     31  F   UNL     1       4.597   2.179  21.070  0.00  0.00    +0.000 F 
ENDBRANCH  24  25
ENDBRANCH  23  24
ENDBRANCH  22  23
ENDBRANCH   2  17
TORSDOF 5
ENDMDL
MODEL 4
REMARK VINA RESULT:      -8.5      2.685      6.087
REMARK  Name = 
REMARK  5 active torsions:
REMARK  status: ('A' for Active; 'I' for Inactive)
REMARK    1  A    between atoms: C_2  and  C_14
REMARK    2  A    between atoms: N_3  and  C_4
REMARK    3  A    between atoms: C_19  and  O_20
REMARK    4  A    between atoms: O_20  and  C_21
REMARK    5  A    between atoms: C_21  and  C_22
REMARK                            x       y       z     vdW  Elec       q    Type
REMARK                         _______ _______ _______ _____ _____    ______ ____
ROOT
ATOM      1  O   UNL     1       2.114   2.981  16.750  0.00  0.00    +0.000 OA
ATOM      2  C   UNL     1       2.955   3.634  17.370  0.00  0.00    +0.000 C 
ATOM      3  N   UNL     1       4.062   4.089  16.687  0.00  0.00    +0.000 N 
ATOM      4  H   UNL     1       3.933   4.021  15.680  0.00  0.00    +0.000 HD
ENDROOT
BRANCH   3   5
ATOM      5  C   UNL     1       5.246   4.692  17.141  0.00  0.00    +0.000 A 
ATOM      6  C   UNL     1       6.024   4.150  18.192  0.00  0.00    +0.000 A 
ATOM      7  C   UNL     1       7.033   4.896  18.811  0.00  0.00    +0.000 A 
ATOM      8  C   UNL     1       7.269   6.146  18.300  0.00  0.00    +0.000 A 
ATOM      9  N   UNL     1       8.106   7.147  18.771  0.00  0.00    +0.000 N 
ATOM     10  C   UNL     1       8.001   8.256  17.922  0.00  0.00    +0.000 A 
ATOM     11  O   UNL     1       8.587   9.316  18.034  0.00  0.00    +0.000 OA
ATOM     12  N   UNL     1       7.072   7.912  16.927  0.00  0.00    +0.000 N 
ATOM     13  C   UNL     1       6.602   6.628  17.178  0.00  0.00    +0.000 A 
ATOM     14  C   UNL     1       5.602   5.919  16.558  0.00  0.00    +0.000 A 
ATOM     15  H   UNL     1       8.666   7.133  19.609  0.00  0.00    +0.000 HD
ATOM     16  H   UNL     1       6.784   8.540  16.194  0.00  0.00    +0.000 HD
ENDBRANCH   3   5
BRANCH   2  17
ATOM     17  C   UNL     1       2.712   3.877  18.809  0.00  0.00    +0.000 A 
ATOM     18  C   UNL     1       2.759   2.753  19.649  0.00  0.00    +0.000 A 
ATOM     19  C   UNL     1       2.573   2.892  21.022  0.00  0.00    +0.000 A 
ATOM     20  C   UNL     1       2.338   4.154  21.519  0.00  0.00    +0.000 A 
ATOM     21  N   UNL     1       2.259   5.252  20.746  0.00  0.00    +0.000 NA
ATOM     22  C   UNL     1       2.430   5.107  19.408  0.00  0.00    +0.000 A 
BRANCH  22  23
ATOM     23  O   UNL     1       2.248   6.245  18.649  0.00  0.00    +0.000 OA
BRANCH  23  24
ATOM     24  C   UNL     1       2.621   7.444  19.360  0.00  0.00    +0.000 C 
BRANCH  24  25
ATOM     25  C   UNL     1       1.597   8.546  19.397  0.00  0.00    +0.000 A 
ATOM     26  C   UNL     1       1.182   9.223  18.248  0.00  0.00    +0.000 A 
ATOM     27  C   UNL     1       0.154  10.162  18.322  0.00  0.00    +0.000 A 
ATOM     28  C   UNL     1      -0.447  10.452  19.547  0.00  0.00    +0.000 A 
ATOM     29  C   UNL     1      -0.018   9.808  20.706  0.00  0.00    +0.000 A 
ATOM     30  C   UNL     1       0.998   8.861  20.620  0.00  0.00    +0.000 A 
ATOM     31  F   UNL     1       1.385   8.229  21.739  0.00  0.00    +0.000 F 
ENDBRANCH  24  25
ENDBRANCH  23  24
ENDBRANCH  22  23
ENDBRANCH   2  17
TORSDOF 5
ENDMDL
MODEL 5
REMARK VINA RESULT:      -8.5      1.329      1.618
REMARK  Name = 
REMARK  5 active torsions:
REMARK  status: ('A' for Active; 'I' for Inactive)
REMARK    1  A    between atoms: C_2  and  C_14
REMARK    2  A    between atoms: N_3  and  C_4
REMARK    3  A    between atoms: C_19  and  O_20
REMARK    4  A    between atoms: O_20  and  C_21
REMARK    5  A    between atoms: C_21  and  C_22
REMARK                            x       y       z     vdW  Elec       q    Type
REMARK                         _______ _______ _______ _____ _____    ______ ____
ROOT
ATOM      1  O   UNL     1       5.119   4.854  15.643  0.00  0.00    +0.000 OA
ATOM      2  C   UNL     1       4.895   5.509  16.663  0.00  0.00    +0.000 C 
ATOM      3  N   UNL     1       3.635   6.036  16.838  0.00  0.00    +0.000 N 
ATOM      4  H   UNL     1       2.964   5.619  16.196  0.00  0.00    +0.000 HD
ENDROOT
BRANCH   3   5
ATOM      5  C   UNL     1       3.135   6.947  17.782  0.00  0.00    +0.000 A 
ATOM      6  C   UNL     1       2.868   6.586  19.124  0.00  0.00    +0.000 A 
ATOM      7  C   UNL     1       2.120   7.417  19.967  0.00  0.00    +0.000 A 
ATOM      8  C   UNL     1       1.723   8.620  19.443  0.00  0.00    +0.000 A 
ATOM      9  N   UNL     1       0.885   9.583  19.984  0.00  0.00    +0.000 N 
ATOM     10  C   UNL     1       0.763  10.637  19.070  0.00  0.00    +0.000 A 
ATOM     11  O   UNL     1       0.100  11.648  19.208  0.00  0.00    +0.000 OA
ATOM     12  N   UNL     1       1.538  10.290  17.953  0.00  0.00    +0.000 N 
ATOM     13  C   UNL     1       2.103   9.039  18.171  0.00  0.00    +0.000 A 
ATOM     14  C   UNL     1       2.829   8.239  17.322  0.00  0.00    +0.000 A 
ATOM     15  H   UNL     1       0.387   9.539  20.860  0.00  0.00    +0.000 HD
ATOM     16  H   UNL     1       1.610  10.860  17.126  0.00  0.00    +0.000 HD
ENDBRANCH   3   5
BRANCH   2  17
ATOM     17  C   UNL     1       6.006   5.682  17.626  0.00  0.00    +0.000 A 
ATOM     18  C   UNL     1       6.827   6.806  17.436  0.00  0.00    +0.000 A 
ATOM     19  C   UNL     1       7.877   7.065  18.312  0.00  0.00    +0.000 A 
ATOM     20  C   UNL     1       8.084   6.190  19.353  0.00  0.00    +0.000 A 
ATOM     21  N   UNL     1       7.338   5.088  19.554  0.00  0.00    +0.000 NA
ATOM     22  C   UNL     1       6.323   4.835  18.690  0.00  0.00    +0.000 A 
BRANCH  22  23
ATOM     23  O   UNL     1       5.647   3.649  18.883  0.00  0.00    +0.000 OA
BRANCH  23  24
ATOM     24  C   UNL     1       4.696   3.728  19.965  0.00  0.00    +0.000 C 
BRANCH  24  25
ATOM     25  C   UNL     1       3.279   3.340  19.641  0.00  0.00    +0.000 A 
ATOM     26  C   UNL     1       2.918   2.771  18.418  0.00  0.00    +0.000 A 
ATOM     27  C   UNL     1       1.612   2.331  18.209  0.00  0.00    +0.000 A 
ATOM     28  C   UNL     1       0.650   2.482  19.209  0.00  0.00    +0.000 A 
ATOM     29  C   UNL     1       0.990   3.080  20.421  0.00  0.00    +0.000 A 
ATOM     30  C   UNL     1       2.300   3.502  20.626  0.00  0.00    +0.000 A 
ATOM     31  F   UNL     1       2.622   4.052  21.807  0.00  0.00    +0.000 F 
ENDBRANCH  24  25
ENDBRANCH  23  24
ENDBRANCH  22  23
ENDBRANCH   2  17
TORSDOF 5
ENDMDL
MODEL 6
REMARK VINA RESULT:      -8.5      1.154      1.220
REMARK  Name = 
REMARK  5 active torsions:
REMARK  status: ('A' for Active; 'I' for Inactive)
REMARK    1  A    between atoms: C_2  and  C_14
REMARK    2  A    between atoms: N_3  and  C_4
REMARK    3  A    between atoms: C_19  and  O_20
REMARK    4  A    between atoms: O_20  and  C_21
REMARK    5  A    between atoms: C_21  and  C_22
REMARK                            x       y       z     vdW  Elec       q    Type
REMARK                         _______ _______ _______ _____ _____    ______ ____
ROOT
ATOM      1  O   UNL     1       4.647   4.458  15.943  0.00  0.00    +0.000 OA
ATOM      2  C   UNL     1       4.529   5.235  16.892  0.00  0.00    +0.000 C 
ATOM      3  N   UNL     1       3.291   5.790  17.132  0.00  0.00    +0.000 N 
ATOM      4  H   UNL     1       2.559   5.302  16.620  0.00  0.00    +0.000 HD
ENDROOT
BRANCH   3   5
ATOM      5  C   UNL     1       2.889   6.815  18.003  0.00  0.00    +0.000 A 
ATOM      6  C   UNL     1       2.609   6.588  19.372  0.00  0.00    +0.000 A 
ATOM      7  C   UNL     1       1.950   7.547  20.150  0.00  0.00    +0.000 A 
ATOM      8  C   UNL     1       1.657   8.736  19.533  0.00  0.00    +0.000 A 
ATOM      9  N   UNL     1       0.916   9.812  20.001  0.00  0.00    +0.000 N 
ATOM     10  C   UNL     1       0.878  10.796  19.006  0.00  0.00    +0.000 A 
ATOM     11  O   UNL     1       0.311  11.871  19.067  0.00  0.00    +0.000 OA
ATOM     12  N   UNL     1       1.604  10.293  17.915  0.00  0.00    +0.000 N 
ATOM     13  C   UNL     1       2.056   9.016  18.230  0.00  0.00    +0.000 A 
ATOM     14  C   UNL     1       2.694   8.089  17.443  0.00  0.00    +0.000 A 
ATOM     15  H   UNL     1       0.429   9.883  20.881  0.00  0.00    +0.000 HD
ATOM     16  H   UNL     1       1.715  10.787  17.045  0.00  0.00    +0.000 HD
ENDBRANCH   3   5
BRANCH   2  17
ATOM     17  C   UNL     1       5.734   5.517  17.704  0.00  0.00    +0.000 A 
ATOM     18  C   UNL     1       6.458   6.672  17.367  0.00  0.00    +0.000 A 
ATOM     19  C   UNL     1       7.588   7.032  18.096  0.00  0.00    +0.000 A 
ATOM     20  C   UNL     1       7.968   6.223  19.143  0.00  0.00    +0.000 A 
ATOM     21  N   UNL     1       7.317   5.095  19.482  0.00  0.00    +0.000 NA
ATOM     22  C   UNL     1       6.224   4.744  18.759  0.00  0.00    +0.000 A 
BRANCH  22  23
ATOM     23  O   UNL     1       5.647   3.535  19.086  0.00  0.00    +0.000 OA
BRANCH  23  24
ATOM     24  C   UNL     1       4.756   3.639  20.216  0.00  0.00    +0.000 C 
BRANCH  24  25
ATOM     25  C   UNL     1       3.321   3.257  19.976  0.00  0.00    +0.000 A 
ATOM     26  C   UNL     1       2.291   3.626  20.843  0.00  0.00    +0.000 A 
ATOM     27  C   UNL     1       0.966   3.339  20.519  0.00  0.00    +0.000 A 
ATOM     28  C   UNL     1       0.663   2.656  19.341  0.00  0.00    +0.000 A 
ATOM     29  C   UNL     1       1.684   2.251  18.485  0.00  0.00    +0.000 A 
ATOM     30  C   UNL     1       3.002   2.556  18.809  0.00  0.00    +0.000 A 
ATOM     31  F   UNL     1       3.976   2.185  17.963  0.00  0.00    +0.000 F 
ENDBRANCH  24  25
ENDBRANCH  23  24
ENDBRANCH  22  23
ENDBRANCH   2  17
TORSDOF 5
ENDMDL
MODEL 7
REMARK VINA RESULT:      -8.3      2.627      5.983
REMARK  Name = 
REMARK  5 active torsions:
REMARK  status: ('A' for Active; 'I' for Inactive)
REMARK    1  A    between atoms: C_2  and  C_14
REMARK    2  A    between atoms: N_3  and  C_4
REMARK    3  A    between atoms: C_19  and  O_20
REMARK    4  A    between atoms: O_20  and  C_21
REMARK    5  A    between atoms: C_21  and  C_22
REMARK                            x       y       z     vdW  Elec       q    Type
REMARK                         _______ _______ _______ _____ _____    ______ ____
ROOT
ATOM      1  O   UNL     1       1.915   2.906  16.855  0.00  0.00    +0.000 OA
ATOM      2  C   UNL     1       2.789   3.541  17.448  0.00  0.00    +0.000 C 
ATOM      3  N   UNL     1       3.864   4.007  16.724  0.00  0.00    +0.000 N 
ATOM      4  H   UNL     1       3.687   3.961  15.723  0.00  0.00    +0.000 HD
ENDROOT
BRANCH   3   5
ATOM      5  C   UNL     1       5.072   4.594  17.135  0.00  0.00    +0.000 A 
ATOM      6  C   UNL     1       5.884   4.039  18.153  0.00  0.00    +0.000 A 
ATOM      7  C   UNL     1       6.924   4.772  18.735  0.00  0.00    +0.000 A 
ATOM      8  C   UNL     1       7.153   6.021  18.221  0.00  0.00    +0.000 A 
ATOM      9  N   UNL     1       8.019   7.011  18.664  0.00  0.00    +0.000 N 
ATOM     10  C   UNL     1       7.893   8.125  17.824  0.00  0.00    +0.000 A 
ATOM     11  O   UNL     1       8.494   9.179  17.918  0.00  0.00    +0.000 OA
ATOM     12  N   UNL     1       6.923   7.796  16.864  0.00  0.00    +0.000 N 
ATOM     13  C   UNL     1       6.449   6.516  17.127  0.00  0.00    +0.000 A 
ATOM     14  C   UNL     1       5.418   5.821  16.544  0.00  0.00    +0.000 A 
ATOM     15  H   UNL     1       8.611   6.987  19.479  0.00  0.00    +0.000 HD
ATOM     16  H   UNL     1       6.613   8.431  16.146  0.00  0.00    +0.000 HD
ENDBRANCH   3   5
BRANCH   2  17
ATOM     17  C   UNL     1       2.615   3.753  18.903  0.00  0.00    +0.000 A 
ATOM     18  C   UNL     1       2.627   2.602  19.707  0.00  0.00    +0.000 A 
ATOM     19  C   UNL     1       2.501   2.709  21.090  0.00  0.00    +0.000 A 
ATOM     20  C   UNL     1       2.361   3.966  21.632  0.00  0.00    +0.000 A 
ATOM     21  N   UNL     1       2.319   5.091  20.895  0.00  0.00    +0.000 NA
ATOM     22  C   UNL     1       2.430   4.978  19.548  0.00  0.00    +0.000 A 
BRANCH  22  23
ATOM     23  O   UNL     1       2.289   6.147  18.830  0.00  0.00    +0.000 OA
BRANCH  23  24
ATOM     24  C   UNL     1       2.649   7.313  19.602  0.00  0.00    +0.000 C 
BRANCH  24  25
ATOM     25  C   UNL     1       1.601   8.385  19.725  0.00  0.00    +0.000 A 
ATOM     26  C   UNL     1       0.931   8.645  20.922  0.00  0.00    +0.000 A 
ATOM     27  C   UNL     1       0.046   9.719  21.010  0.00  0.00    +0.000 A 
ATOM     28  C   UNL     1      -0.197  10.523  19.895  0.00  0.00    +0.000 A 
ATOM     29  C   UNL     1       0.438  10.251  18.686  0.00  0.00    +0.000 A 
ATOM     30  C   UNL     1       1.332   9.187  18.611  0.00  0.00    +0.000 A 
ATOM     31  F   UNL     1       1.958   8.952  17.449  0.00  0.00    +0.000 F 
ENDBRANCH  24  25
ENDBRANCH  23  24
ENDBRANCH  22  23
ENDBRANCH   2  17
TORSDOF 5
ENDMDL
MODEL 8
REMARK VINA RESULT:      -8.2      2.227      3.207
REMARK  Name = 
REMARK  5 active torsions:
REMARK  status: ('A' for Active; 'I' for Inactive)
REMARK    1  A    between atoms: C_2  and  C_14
REMARK    2  A    between atoms: N_3  and  C_4
REMARK    3  A    between atoms: C_19  and  O_20
REMARK    4  A    between atoms: O_20  and  C_21
REMARK    5  A    between atoms: C_21  and  C_22
REMARK                            x       y       z     vdW  Elec       q    Type
REMARK                         _______ _______ _______ _____ _____    ______ ____
ROOT
ATOM      1  O   UNL     1       8.332   4.150  17.729  0.00  0.00    +0.000 OA
ATOM      2  C   UNL     1       7.245   4.645  17.424  0.00  0.00    +0.000 C 
ATOM      3  N   UNL     1       6.587   5.407  18.364  0.00  0.00    +0.000 N 
ATOM      4  H   UNL     1       7.201   5.659  19.135  0.00  0.00    +0.000 HD
ENDROOT
BRANCH   3   5
ATOM      5  C   UNL     1       5.290   5.944  18.376  0.00  0.00    +0.000 A 
ATOM      6  C   UNL     1       4.813   6.812  17.365  0.00  0.00    +0.000 A 
ATOM      7  C   UNL     1       3.634   7.549  17.534  0.00  0.00    +0.000 A 
ATOM      8  C   UNL     1       2.940   7.331  18.696  0.00  0.00    +0.000 A 
ATOM      9  N   UNL     1       1.823   7.989  19.190  0.00  0.00    +0.000 N 
ATOM     10  C   UNL     1       1.479   7.423  20.424  0.00  0.00    +0.000 A 
ATOM     11  O   UNL     1       0.558   7.755  21.146  0.00  0.00    +0.000 OA
ATOM     12  N   UNL     1       2.418   6.411  20.677  0.00  0.00    +0.000 N 
ATOM     13  C   UNL     1       3.331   6.376  19.629  0.00  0.00    +0.000 A 
ATOM     14  C   UNL     1       4.487   5.647  19.491  0.00  0.00    +0.000 A 
ATOM     15  H   UNL     1       1.349   8.780  18.784  0.00  0.00    +0.000 HD
ATOM     16  H   UNL     1       2.425   5.854  21.516  0.00  0.00    +0.000 HD
ENDBRANCH   3   5
BRANCH   2  17
ATOM     17  C   UNL     1       6.727   4.379  16.063  0.00  0.00    +0.000 A 
ATOM     18  C   UNL     1       7.374   5.042  15.008  0.00  0.00    +0.000 A 
ATOM     19  C   UNL     1       6.973   4.828  13.692  0.00  0.00    +0.000 A 
ATOM     20  C   UNL     1       5.931   3.958  13.466  0.00  0.00    +0.000 A 
ATOM     21  N   UNL     1       5.268   3.324  14.450  0.00  0.00    +0.000 NA
ATOM     22  C   UNL     1       5.656   3.546  15.730  0.00  0.00    +0.000 A 
BRANCH  22  23
ATOM     23  O   UNL     1       4.889   2.947  16.707  0.00  0.00    +0.000 OA
BRANCH  23  24
ATOM     24  C   UNL     1       3.523   3.415  16.697  0.00  0.00    +0.000 C 
BRANCH  24  25
ATOM     25  C   UNL     1       2.709   3.131  17.930  0.00  0.00    +0.000 A 
ATOM     26  C   UNL     1       3.143   2.261  18.931  0.00  0.00    +0.000 A 
ATOM     27  C   UNL     1       2.401   2.115  20.102  0.00  0.00    +0.000 A 
ATOM     28  C   UNL     1       1.206   2.815  20.269  0.00  0.00    +0.000 A 
ATOM     29  C   UNL     1       0.745   3.660  19.262  0.00  0.00    +0.000 A 
ATOM     30  C   UNL     1       1.500   3.812  18.103  0.00  0.00    +0.000 A 
ATOM     31  F   UNL     1       1.059   4.648  17.151  0.00  0.00    +0.000 F 
ENDBRANCH  24  25
ENDBRANCH  23  24
ENDBRANCH  22  23
ENDBRANCH   2  17
TORSDOF 5
ENDMDL
MODEL 9
REMARK VINA RESULT:      -8.1      2.161      4.948
REMARK  Name = 
REMARK  5 active torsions:
REMARK  status: ('A' for Active; 'I' for Inactive)
REMARK    1  A    between atoms: C_2  and  C_14
REMARK    2  A    between atoms: N_3  and  C_4
REMARK    3  A    between atoms: C_19  and  O_20
REMARK    4  A    between atoms: O_20  and  C_21
REMARK    5  A    between atoms: C_21  and  C_22
REMARK                            x       y       z     vdW  Elec       q    Type
REMARK                         _______ _______ _______ _____ _____    ______ ____
ROOT
ATOM      1  O   UNL     1       2.294   3.650  22.378  0.00  0.00    +0.000 OA
ATOM      2  C   UNL     1       2.238   4.250  21.303  0.00  0.00    +0.000 C 
ATOM      3  N   UNL     1       2.265   5.627  21.320  0.00  0.00    +0.000 N 
ATOM      4  H   UNL     1       2.563   5.982  22.226  0.00  0.00    +0.000 HD
ENDROOT
BRANCH   3   5
ATOM      5  C   UNL     1       2.047   6.570  20.303  0.00  0.00    +0.000 A 
ATOM      6  C   UNL     1       2.579   6.424  18.999  0.00  0.00    +0.000 A 
ATOM      7  C   UNL     1       2.588   7.490  18.092  0.00  0.00    +0.000 A 
ATOM      8  C   UNL     1       1.996   8.653  18.512  0.00  0.00    +0.000 A 
ATOM      9  N   UNL     1       1.957   9.894  17.893  0.00  0.00    +0.000 N 
ATOM     10  C   UNL     1       1.247  10.781  18.712  0.00  0.00    +0.000 A 
ATOM     11  O   UNL     1       1.022  11.956  18.490  0.00  0.00    +0.000 OA
ATOM     12  N   UNL     1       0.862  10.055  19.851  0.00  0.00    +0.000 N 
ATOM     13  C   UNL     1       1.348   8.757  19.739  0.00  0.00    +0.000 A 
ATOM     14  C   UNL     1       1.333   7.729  20.650  0.00  0.00    +0.000 A 
ATOM     15  H   UNL     1       2.400  10.161  17.028  0.00  0.00    +0.000 HD
ATOM     16  H   UNL     1       0.357  10.458  20.624  0.00  0.00    +0.000 HD
ENDBRANCH   3   5
BRANCH   2  17
ATOM     17  C   UNL     1       2.141   3.439  20.068  0.00  0.00    +0.000 A 
ATOM     18  C   UNL     1       0.858   2.992  19.713  0.00  0.00    +0.000 A 
ATOM     19  C   UNL     1       0.669   2.249  18.551  0.00  0.00    +0.000 A 
ATOM     20  C   UNL     1       1.770   1.968  17.776  0.00  0.00    +0.000 A 
ATOM     21  N   UNL     1       3.019   2.355  18.093  0.00  0.00    +0.000 NA
ATOM     22  C   UNL     1       3.198   3.068  19.234  0.00  0.00    +0.000 A 
BRANCH  22  23
ATOM     23  O   UNL     1       4.504   3.361  19.563  0.00  0.00    +0.000 OA
BRANCH  23  24
ATOM     24  C   UNL     1       5.385   3.306  18.421  0.00  0.00    +0.000 C 
BRANCH  24  25
ATOM     25  C   UNL     1       5.612   4.600  17.687  0.00  0.00    +0.000 A 
ATOM     26  C   UNL     1       5.064   4.853  16.428  0.00  0.00    +0.000 A 
ATOM     27  C   UNL     1       5.216   6.107  15.838  0.00  0.00    +0.000 A 
ATOM     28  C   UNL     1       5.940   7.107  16.488  0.00  0.00    +0.000 A 
ATOM     29  C   UNL     1       6.521   6.855  17.729  0.00  0.00    +0.000 A 
ATOM     30  C   UNL     1       6.351   5.605  18.317  0.00  0.00    +0.000 A 
ATOM     31  F   UNL     1       6.893   5.382  19.525  0.00  0.00    +0.000 F 
ENDBRANCH  24  25
ENDBRANCH  23  24
ENDBRANCH  22  23
ENDBRANCH   2  17
TORSDOF 5
ENDMDL
