MODEL 1
REMARK VINA RESULT:      -8.4      0.000      0.000
REMARK  Name = 
REMARK  7 active torsions:
REMARK  status: ('A' for Active; 'I' for Inactive)
REMARK    1  A    between atoms: C_1  and  N_2
REMARK    2  A    between atoms: C_6  and  C_7
REMARK    3  A    between atoms: C_7  and  C_8
REMARK    4  A    between atoms: C_8  and  C_9
REMARK    5  A    between atoms: C_13  and  N_14
REMARK    6  A    between atoms: C_19  and  C_20
REMARK    7  A    between atoms: C_23  and  C_24
REMARK                            x       y       z     vdW  Elec       q    Type
REMARK                         _______ _______ _______ _____ _____    ______ ____
ROOT
ATOM      1  C   UNL     1       1.911   8.267  19.446  0.00  0.00    +0.000 A 
ATOM      2  C   UNL     1       2.494   8.851  18.301  0.00  0.00    +0.000 A 
ATOM      3  C   UNL     1       3.101   8.081  17.311  0.00  0.00    +0.000 A 
ATOM      4  C   UNL     1       3.244   6.714  17.494  0.00  0.00    +0.000 A 
ATOM      5  C   UNL     1       2.903   6.152  18.731  0.00  0.00    +0.000 A 
ATOM      6  C   UNL     1       2.099   6.882  19.609  0.00  0.00    +0.000 A 
ENDROOT
BRANCH   5   7
ATOM      7  N   UNL     1       3.738   5.105  19.306  0.00  0.00    +0.000 N 
ATOM      8  C   UNL     1       5.136   5.597  19.447  0.00  0.00    +0.000 C 
ATOM      9  C   UNL     1       5.731   5.218  18.129  0.00  0.00    +0.000 A 
ATOM     10  C   UNL     1       5.030   4.091  17.669  0.00  0.00    +0.000 A 
ATOM     11  C   UNL     1       5.173   3.576  16.395  0.00  0.00    +0.000 A 
ATOM     12  C   UNL     1       6.034   4.243  15.519  0.00  0.00    +0.000 A 
ATOM     13  C   UNL     1       6.745   5.385  15.969  0.00  0.00    +0.000 A 
ATOM     14  C   UNL     1       6.606   5.894  17.280  0.00  0.00    +0.000 A 
ATOM     15  C   UNL     1       3.839   3.919  18.533  0.00  0.00    +0.000 C 
ATOM     16  O   UNL     1       3.018   3.030  18.394  0.00  0.00    +0.000 OA
BRANCH  14  17
ATOM     17  C   UNL     1       7.285   7.192  17.641  0.00  0.00    +0.000 C 
ATOM     18  F   UNL     1       8.025   7.132  18.781  0.00  0.00    +0.000 F 
ATOM     19  F   UNL     1       8.140   7.612  16.670  0.00  0.00    +0.000 F 
ATOM     20  F   UNL     1       6.398   8.209  17.827  0.00  0.00    +0.000 F 
ENDBRANCH  14  17
BRANCH  12  21
ATOM     21  C   UNL     1       6.107   3.814  14.077  0.00  0.00    +0.000 C 
ATOM     22  F   UNL     1       4.948   4.025  13.390  0.00  0.00    +0.000 F 
ENDBRANCH  12  21
ENDBRANCH   5   7
BRANCH   1  23
ATOM     23  C   UNL     1       1.072   9.145  20.506  0.00  0.00    +0.000 C 
ATOM     24  C   UNL     1      -0.210   8.509  21.106  0.00  0.00    +0.000 C 
ATOM     25  O   UNL     1       0.327   8.517  22.442  0.00  0.00    +0.000 OA
ATOM     26  C   UNL     1       1.569   9.092  21.983  0.00  0.00    +0.000 C 
BRANCH  23  27
ATOM     27  C   UNL     1       0.870  10.520  19.843  0.00  0.00    +0.000 C 
BRANCH  27  33
ATOM     28  C   UNL     1      -1.470  11.984  21.347  0.00  0.00    +0.000 C 
ATOM     29  N   UNL     1      -1.389  11.671  19.944  0.00  0.00    +0.000 N 
ATOM     30  C   UNL     1      -2.535  11.847  19.080  0.00  0.00    +0.000 C 
ATOM     31  C   UNL     1      -2.319  10.712  18.076  0.00  0.00    +0.000 C 
ATOM     32  N   UNL     1      -0.894  10.299  18.196  0.00  0.00    +0.000 NA
ATOM     33  C   UNL     1      -0.496  10.840  19.322  0.00  0.00    +0.000 C 
ENDBRANCH  27  33
ENDBRANCH  23  27
ENDBRANCH   1  23
TORSDOF 6
ENDMDL
MODEL 2
REMARK VINA RESULT:      -8.3      6.402      9.086
REMARK  Name = 
REMARK  7 active torsions:
REMARK  status: ('A' for Active; 'I' for Inactive)
REMARK    1  A    between atoms: C_1  and  N_2
REMARK    2  A    between atoms: C_6  and  C_7
REMARK    3  A    between atoms: C_7  and  C_8
REMARK    4  A    between atoms: C_8  and  C_9
REMARK    5  A    between atoms: C_13  and  N_14
REMARK    6  A    between atoms: C_19  and  C_20
REMARK    7  A    between atoms: C_23  and  C_24
REMARK                            x       y       z     vdW  Elec       q    Type
REMARK                         _______ _______ _______ _____ _____    ______ ____
ROOT
ATOM      1  C   UNL     1      -3.775  11.232  18.070  0.00  0.00    +0.000 A 
ATOM      2  C   UNL     1      -3.760  10.579  16.820  0.00  0.00    +0.000 A 
ATOM      3  C   UNL     1      -2.659   9.843  16.388  0.00  0.00    +0.000 A 
ATOM      4  C   UNL     1      -1.497   9.836  17.145  0.00  0.00    +0.000 A 
ATOM      5  C   UNL     1      -1.403  10.679  18.260  0.00  0.00    +0.000 A 
ATOM      6  C   UNL     1      -2.571  11.224  18.798  0.00  0.00    +0.000 A 
ENDROOT
BRANCH   5   7
ATOM      7  N   UNL     1      -0.153  11.377  18.537  0.00  0.00    +0.000 N 
ATOM      8  C   UNL     1       0.608  10.647  19.589  0.00  0.00    +0.000 C 
ATOM      9  C   UNL     1       0.087  11.278  20.839  0.00  0.00    +0.000 A 
ATOM     10  C   UNL     1      -0.305  12.585  20.510  0.00  0.00    +0.000 A 
ATOM     11  C   UNL     1      -1.011  13.405  21.368  0.00  0.00    +0.000 A 
ATOM     12  C   UNL     1      -1.380  12.880  22.610  0.00  0.00    +0.000 A 
ATOM     13  C   UNL     1      -0.994  11.559  22.954  0.00  0.00    +0.000 A 
ATOM     14  C   UNL     1      -0.256  10.734  22.076  0.00  0.00    +0.000 A 
ATOM     15  C   UNL     1      -0.295  12.699  19.033  0.00  0.00    +0.000 C 
ATOM     16  O   UNL     1      -0.592  13.710  18.424  0.00  0.00    +0.000 OA
BRANCH  14  17
ATOM     17  C   UNL     1      -0.005   9.295  22.456  0.00  0.00    +0.000 C 
ATOM     18  F   UNL     1      -0.286   9.007  23.755  0.00  0.00    +0.000 F 
ATOM     19  F   UNL     1      -0.752   8.431  21.717  0.00  0.00    +0.000 F 
ATOM     20  F   UNL     1       1.293   8.927  22.266  0.00  0.00    +0.000 F 
ENDBRANCH  14  17
BRANCH  12  21
ATOM     21  C   UNL     1      -2.281  13.677  23.517  0.00  0.00    +0.000 C 
ATOM     22  F   UNL     1      -1.603  14.407  24.448  0.00  0.00    +0.000 F 
ENDBRANCH  12  21
ENDBRANCH   5   7
BRANCH   1  23
ATOM     23  C   UNL     1      -5.107  11.946  18.633  0.00  0.00    +0.000 C 
ATOM     24  C   UNL     1      -6.021  12.666  17.605  0.00  0.00    +0.000 C 
ATOM     25  O   UNL     1      -7.123  11.774  17.856  0.00  0.00    +0.000 OA
ATOM     26  C   UNL     1      -6.350  11.024  18.817  0.00  0.00    +0.000 C 
BRANCH  23  27
ATOM     27  C   UNL     1      -4.647  12.814  19.818  0.00  0.00    +0.000 C 
BRANCH  27  33
ATOM     28  C   UNL     1      -6.725  15.142  20.197  0.00  0.00    +0.000 C 
ATOM     29  N   UNL     1      -6.639  13.914  20.943  0.00  0.00    +0.000 N 
ATOM     30  C   UNL     1      -7.434  13.714  22.133  0.00  0.00    +0.000 C 
ATOM     31  C   UNL     1      -6.497  12.835  22.965  0.00  0.00    +0.000 C 
ATOM     32  N   UNL     1      -5.489  12.273  22.025  0.00  0.00    +0.000 NA
ATOM     33  C   UNL     1      -5.612  13.007  20.946  0.00  0.00    +0.000 C 
ENDBRANCH  27  33
ENDBRANCH  23  27
ENDBRANCH   1  23
TORSDOF 6
ENDMDL
MODEL 3
REMARK VINA RESULT:      -8.2      0.635      1.465
REMARK  Name = 
REMARK  7 active torsions:
REMARK  status: ('A' for Active; 'I' for Inactive)
REMARK    1  A    between atoms: C_1  and  N_2
REMARK    2  A    between atoms: C_6  and  C_7
REMARK    3  A    between atoms: C_7  and  C_8
REMARK    4  A    between atoms: C_8  and  C_9
REMARK    5  A    between atoms: C_13  and  N_14
REMARK    6  A    between atoms: C_19  and  C_20
REMARK    7  A    between atoms: C_23  and  C_24
REMARK                            x       y       z     vdW  Elec       q    Type
REMARK                         _______ _______ _______ _____ _____    ______ ____
ROOT
ATOM      1  C   UNL     1       1.906   8.253  19.512  0.00  0.00    +0.000 A 
ATOM      2  C   UNL     1       2.471   8.849  18.365  0.00  0.00    +0.000 A 
ATOM      3  C   UNL     1       3.047   8.090  17.349  0.00  0.00    +0.000 A 
ATOM      4  C   UNL     1       3.176   6.718  17.506  0.00  0.00    +0.000 A 
ATOM      5  C   UNL     1       2.854   6.138  18.740  0.00  0.00    +0.000 A 
ATOM      6  C   UNL     1       2.079   6.864  19.648  0.00  0.00    +0.000 A 
ENDROOT
BRANCH   5   7
ATOM      7  N   UNL     1       3.687   5.070  19.279  0.00  0.00    +0.000 N 
ATOM      8  C   UNL     1       5.087   5.554  19.434  0.00  0.00    +0.000 C 
ATOM      9  C   UNL     1       5.679   5.218  18.104  0.00  0.00    +0.000 A 
ATOM     10  C   UNL     1       4.975   4.109  17.607  0.00  0.00    +0.000 A 
ATOM     11  C   UNL     1       5.115   3.636  16.317  0.00  0.00    +0.000 A 
ATOM     12  C   UNL     1       5.977   4.330  15.462  0.00  0.00    +0.000 A 
ATOM     13  C   UNL     1       6.691   5.455  15.950  0.00  0.00    +0.000 A 
ATOM     14  C   UNL     1       6.554   5.920  17.277  0.00  0.00    +0.000 A 
ATOM     15  C   UNL     1       3.785   3.911  18.466  0.00  0.00    +0.000 C 
ATOM     16  O   UNL     1       2.962   3.029  18.299  0.00  0.00    +0.000 OA
BRANCH  14  17
ATOM     17  C   UNL     1       7.238   7.203  17.680  0.00  0.00    +0.000 C 
ATOM     18  F   UNL     1       6.383   8.234  17.921  0.00  0.00    +0.000 F 
ATOM     19  F   UNL     1       7.970   7.061  18.818  0.00  0.00    +0.000 F 
ATOM     20  F   UNL     1       8.104   7.652  16.729  0.00  0.00    +0.000 F 
ENDBRANCH  14  17
BRANCH  12  21
ATOM     21  C   UNL     1       6.048   3.949  14.007  0.00  0.00    +0.000 C 
ATOM     22  F   UNL     1       4.832   3.942  13.390  0.00  0.00    +0.000 F 
ENDBRANCH  12  21
ENDBRANCH   5   7
BRANCH   1  23
ATOM     23  C   UNL     1       1.101   9.124  20.605  0.00  0.00    +0.000 C 
ATOM     24  C   UNL     1      -0.207   8.518  21.180  0.00  0.00    +0.000 C 
ATOM     25  O   UNL     1       0.328   8.452  22.515  0.00  0.00    +0.000 OA
ATOM     26  C   UNL     1       1.593   8.993  22.078  0.00  0.00    +0.000 C 
BRANCH  23  27
ATOM     27  C   UNL     1       0.956  10.529  19.995  0.00  0.00    +0.000 C 
BRANCH  27  33
ATOM     28  C   UNL     1      -1.900  11.475  19.085  0.00  0.00    +0.000 C 
ATOM     29  N   UNL     1      -1.270  11.692  20.361  0.00  0.00    +0.000 N 
ATOM     30  C   UNL     1      -1.859  12.583  21.335  0.00  0.00    +0.000 C 
ATOM     31  C   UNL     1      -0.606  13.136  22.019  0.00  0.00    +0.000 C 
ATOM     32  N   UNL     1       0.509  12.209  21.685  0.00  0.00    +0.000 NA
ATOM     33  C   UNL     1       0.045  11.492  20.691  0.00  0.00    +0.000 C 
ENDBRANCH  27  33
ENDBRANCH  23  27
ENDBRANCH   1  23
TORSDOF 6
ENDMDL
MODEL 4
REMARK VINA RESULT:      -8.1      3.419      8.215
REMARK  Name = 
REMARK  7 active torsions:
REMARK  status: ('A' for Active; 'I' for Inactive)
REMARK    1  A    between atoms: C_1  and  N_2
REMARK    2  A    between atoms: C_6  and  C_7
REMARK    3  A    between atoms: C_7  and  C_8
REMARK    4  A    between atoms: C_8  and  C_9
REMARK    5  A    between atoms: C_13  and  N_14
REMARK    6  A    between atoms: C_19  and  C_20
REMARK    7  A    between atoms: C_23  and  C_24
REMARK                            x       y       z     vdW  Elec       q    Type
REMARK                         _______ _______ _______ _____ _____    ______ ____
ROOT
ATOM      1  C   UNL     1       2.383   5.866  18.941  0.00  0.00    +0.000 A 
ATOM      2  C   UNL     1       2.316   6.647  17.768  0.00  0.00    +0.000 A 
ATOM      3  C   UNL     1       2.182   8.033  17.813  0.00  0.00    +0.000 A 
ATOM      4  C   UNL     1       1.993   8.666  19.033  0.00  0.00    +0.000 A 
ATOM      5  C   UNL     1       1.802   7.888  20.183  0.00  0.00    +0.000 A 
ATOM      6  C   UNL     1       2.162   6.539  20.157  0.00  0.00    +0.000 A 
ENDROOT
BRANCH   5   7
ATOM      7  N   UNL     1       0.817   8.296  21.177  0.00  0.00    +0.000 N 
ATOM      8  C   UNL     1      -0.474   8.615  20.507  0.00  0.00    +0.000 C 
ATOM      9  C   UNL     1      -0.313  10.070  20.205  0.00  0.00    +0.000 A 
ATOM     10  C   UNL     1       0.552  10.600  21.176  0.00  0.00    +0.000 A 
ATOM     11  C   UNL     1       1.084  11.873  21.106  0.00  0.00    +0.000 A 
ATOM     12  C   UNL     1       0.765  12.648  19.987  0.00  0.00    +0.000 A 
ATOM     13  C   UNL     1      -0.105  12.124  18.997  0.00  0.00    +0.000 A 
ATOM     14  C   UNL     1      -0.658  10.827  19.086  0.00  0.00    +0.000 A 
ATOM     15  C   UNL     1       1.149   9.463  21.914  0.00  0.00    +0.000 C 
ATOM     16  O   UNL     1       1.950   9.585  22.823  0.00  0.00    +0.000 OA
BRANCH  14  17
ATOM     17  C   UNL     1      -1.459  10.287  17.927  0.00  0.00    +0.000 C 
ATOM     18  F   UNL     1      -2.596   9.635  18.294  0.00  0.00    +0.000 F 
ATOM     19  F   UNL     1      -1.859  11.271  17.076  0.00  0.00    +0.000 F 
ATOM     20  F   UNL     1      -0.751   9.402  17.172  0.00  0.00    +0.000 F 
ENDBRANCH  14  17
BRANCH  12  21
ATOM     21  C   UNL     1       1.439  13.980  19.788  0.00  0.00    +0.000 C 
ATOM     22  F   UNL     1       0.925  14.697  18.748  0.00  0.00    +0.000 F 
ENDBRANCH  12  21
ENDBRANCH   5   7
BRANCH   1  23
ATOM     23  C   UNL     1       2.699   4.286  18.886  0.00  0.00    +0.000 C 
ATOM     24  C   UNL     1       2.911   3.551  20.236  0.00  0.00    +0.000 C 
ATOM     25  O   UNL     1       1.757   2.712  20.041  0.00  0.00    +0.000 OA
ATOM     26  C   UNL     1       1.460   3.345  18.778  0.00  0.00    +0.000 C 
BRANCH  23  27
ATOM     27  C   UNL     1       3.841   4.124  17.868  0.00  0.00    +0.000 C 
BRANCH  27  33
ATOM     28  C   UNL     1       5.455   5.922  15.856  0.00  0.00    +0.000 C 
ATOM     29  N   UNL     1       5.638   5.817  17.280  0.00  0.00    +0.000 N 
ATOM     30  C   UNL     1       6.778   6.429  17.926  0.00  0.00    +0.000 C 
ATOM     31  C   UNL     1       7.024   5.445  19.074  0.00  0.00    +0.000 C 
ATOM     32  N   UNL     1       5.778   4.647  19.229  0.00  0.00    +0.000 NA
ATOM     33  C   UNL     1       5.108   4.880  18.126  0.00  0.00    +0.000 C 
ENDBRANCH  27  33
ENDBRANCH  23  27
ENDBRANCH   1  23
TORSDOF 6
ENDMDL
MODEL 5
REMARK VINA RESULT:      -8.1      3.710      8.590
REMARK  Name = 
REMARK  7 active torsions:
REMARK  status: ('A' for Active; 'I' for Inactive)
REMARK    1  A    between atoms: C_1  and  N_2
REMARK    2  A    between atoms: C_6  and  C_7
REMARK    3  A    between atoms: C_7  and  C_8
REMARK    4  A    between atoms: C_8  and  C_9
REMARK    5  A    between atoms: C_13  and  N_14
REMARK    6  A    between atoms: C_19  and  C_20
REMARK    7  A    between atoms: C_23  and  C_24
REMARK                            x       y       z     vdW  Elec       q    Type
REMARK                         _______ _______ _______ _____ _____    ______ ____
ROOT
ATOM      1  C   UNL     1       2.562   7.255  18.666  0.00  0.00    +0.000 A 
ATOM      2  C   UNL     1       2.513   8.180  17.601  0.00  0.00    +0.000 A 
ATOM      3  C   UNL     1       2.087   9.493  17.788  0.00  0.00    +0.000 A 
ATOM      4  C   UNL     1       1.589   9.886  19.021  0.00  0.00    +0.000 A 
ATOM      5  C   UNL     1       1.392   8.921  20.017  0.00  0.00    +0.000 A 
ATOM      6  C   UNL     1       2.026   7.682  19.894  0.00  0.00    +0.000 A 
ENDROOT
BRANCH   5   7
ATOM      7  N   UNL     1       0.206   8.983  20.862  0.00  0.00    +0.000 N 
ATOM      8  C   UNL     1      -1.018   8.971  20.013  0.00  0.00    +0.000 C 
ATOM      9  C   UNL     1      -1.233  10.428  19.763  0.00  0.00    +0.000 A 
ATOM     10  C   UNL     1      -0.694  11.119  20.860  0.00  0.00    +0.000 A 
ATOM     11  C   UNL     1      -0.539  12.492  20.891  0.00  0.00    +0.000 A 
ATOM     12  C   UNL     1      -0.907  13.212  19.751  0.00  0.00    +0.000 A 
ATOM     13  C   UNL     1      -1.449  12.526  18.634  0.00  0.00    +0.000 A 
ATOM     14  C   UNL     1      -1.620  11.123  18.619  0.00  0.00    +0.000 A 
ATOM     15  C   UNL     1       0.092  10.151  21.659  0.00  0.00    +0.000 C 
ATOM     16  O   UNL     1       0.693  10.436  22.679  0.00  0.00    +0.000 OA
BRANCH  14  17
ATOM     17  C   UNL     1      -2.071  10.452  17.345  0.00  0.00    +0.000 C 
ATOM     18  F   UNL     1      -2.323  11.314  16.323  0.00  0.00    +0.000 F 
ATOM     19  F   UNL     1      -1.142   9.579  16.868  0.00  0.00    +0.000 F 
ATOM     20  F   UNL     1      -3.214   9.729  17.513  0.00  0.00    +0.000 F 
ENDBRANCH  14  17
BRANCH  12  21
ATOM     21  C   UNL     1      -0.614  14.688  19.677  0.00  0.00    +0.000 C 
ATOM     22  F   UNL     1      -0.465  15.146  18.401  0.00  0.00    +0.000 F 
ENDBRANCH  12  21
ENDBRANCH   5   7
BRANCH   1  23
ATOM     23  C   UNL     1       3.205   5.788  18.479  0.00  0.00    +0.000 C 
ATOM     24  C   UNL     1       4.146   5.569  17.265  0.00  0.00    +0.000 C 
ATOM     25  O   UNL     1       5.284   5.298  18.105  0.00  0.00    +0.000 OA
ATOM     26  C   UNL     1       4.499   5.500  19.300  0.00  0.00    +0.000 C 
BRANCH  23  27
ATOM     27  C   UNL     1       2.030   4.801  18.581  0.00  0.00    +0.000 C 
BRANCH  27  33
ATOM     28  C   UNL     1       3.369   1.966  18.810  0.00  0.00    +0.000 C 
ATOM     29  N   UNL     1       2.795   2.753  19.870  0.00  0.00    +0.000 N 
ATOM     30  C   UNL     1       2.603   2.191  21.188  0.00  0.00    +0.000 C 
ATOM     31  C   UNL     1       1.338   2.927  21.637  0.00  0.00    +0.000 C 
ATOM     32  N   UNL     1       1.195   4.114  20.750  0.00  0.00    +0.000 NA
ATOM     33  C   UNL     1       2.010   3.870  19.753  0.00  0.00    +0.000 C 
ENDBRANCH  27  33
ENDBRANCH  23  27
ENDBRANCH   1  23
TORSDOF 6
ENDMDL
MODEL 6
REMARK VINA RESULT:      -8.1      1.099      1.607
REMARK  Name = 
REMARK  7 active torsions:
REMARK  status: ('A' for Active; 'I' for Inactive)
REMARK    1  A    between atoms: C_1  and  N_2
REMARK    2  A    between atoms: C_6  and  C_7
REMARK    3  A    between atoms: C_7  and  C_8
REMARK    4  A    between atoms: C_8  and  C_9
REMARK    5  A    between atoms: C_13  and  N_14
REMARK    6  A    between atoms: C_19  and  C_20
REMARK    7  A    between atoms: C_23  and  C_24
REMARK                            x       y       z     vdW  Elec       q    Type
REMARK                         _______ _______ _______ _____ _____    ______ ____
ROOT
ATOM      1  C   UNL     1       1.840   8.256  19.431  0.00  0.00    +0.000 A 
ATOM      2  C   UNL     1       2.464   8.891  18.337  0.00  0.00    +0.000 A 
ATOM      3  C   UNL     1       3.131   8.169  17.350  0.00  0.00    +0.000 A 
ATOM      4  C   UNL     1       3.291   6.798  17.491  0.00  0.00    +0.000 A 
ATOM      5  C   UNL     1       2.903   6.185  18.690  0.00  0.00    +0.000 A 
ATOM      6  C   UNL     1       2.046   6.870  19.555  0.00  0.00    +0.000 A 
ENDROOT
BRANCH   5   7
ATOM      7  N   UNL     1       3.730   5.132  19.266  0.00  0.00    +0.000 N 
ATOM      8  C   UNL     1       5.131   5.615  19.412  0.00  0.00    +0.000 C 
ATOM      9  C   UNL     1       5.727   5.235  18.095  0.00  0.00    +0.000 A 
ATOM     10  C   UNL     1       5.021   4.113  17.631  0.00  0.00    +0.000 A 
ATOM     11  C   UNL     1       5.164   3.598  16.357  0.00  0.00    +0.000 A 
ATOM     12  C   UNL     1       6.032   4.261  15.485  0.00  0.00    +0.000 A 
ATOM     13  C   UNL     1       6.749   5.398  15.939  0.00  0.00    +0.000 A 
ATOM     14  C   UNL     1       6.609   5.906  17.249  0.00  0.00    +0.000 A 
ATOM     15  C   UNL     1       3.826   3.947  18.492  0.00  0.00    +0.000 C 
ATOM     16  O   UNL     1       3.000   3.063  18.349  0.00  0.00    +0.000 OA
BRANCH  14  17
ATOM     17  C   UNL     1       7.295   7.199  17.614  0.00  0.00    +0.000 C 
ATOM     18  F   UNL     1       8.170   7.647  16.673  0.00  0.00    +0.000 F 
ATOM     19  F   UNL     1       6.411   8.215  17.806  0.00  0.00    +0.000 F 
ATOM     20  F   UNL     1       8.011   7.100  18.770  0.00  0.00    +0.000 F 
ENDBRANCH  14  17
BRANCH  12  21
ATOM     21  C   UNL     1       6.107   3.833  14.042  0.00  0.00    +0.000 C 
ATOM     22  F   UNL     1       7.031   4.526  13.319  0.00  0.00    +0.000 F 
ENDBRANCH  12  21
ENDBRANCH   5   7
BRANCH   1  23
ATOM     23  C   UNL     1       0.936   9.081  20.482  0.00  0.00    +0.000 C 
ATOM     24  C   UNL     1      -0.093   8.280  21.324  0.00  0.00    +0.000 C 
ATOM     25  O   UNL     1       0.566   8.602  22.563  0.00  0.00    +0.000 OA
ATOM     26  C   UNL     1       1.585   9.356  21.872  0.00  0.00    +0.000 C 
BRANCH  23  27
ATOM     27  C   UNL     1       0.352  10.265  19.691  0.00  0.00    +0.000 C 
BRANCH  27  33
ATOM     28  C   UNL     1      -1.484  12.051  21.512  0.00  0.00    +0.000 C 
ATOM     29  N   UNL     1      -0.104  12.276  21.170  0.00  0.00    +0.000 N 
ATOM     30  C   UNL     1       0.547  13.523  21.504  0.00  0.00    +0.000 C 
ATOM     31  C   UNL     1       1.526  13.662  20.334  0.00  0.00    +0.000 C 
ATOM     32  N   UNL     1       1.646  12.315  19.713  0.00  0.00    +0.000 NA
ATOM     33  C   UNL     1       0.633  11.643  20.205  0.00  0.00    +0.000 C 
ENDBRANCH  27  33
ENDBRANCH  23  27
ENDBRANCH   1  23
TORSDOF 6
ENDMDL
MODEL 7
REMARK VINA RESULT:      -8.0      0.944      1.513
REMARK  Name = 
REMARK  7 active torsions:
REMARK  status: ('A' for Active; 'I' for Inactive)
REMARK    1  A    between atoms: C_1  and  N_2
REMARK    2  A    between atoms: C_6  and  C_7
REMARK    3  A    between atoms: C_7  and  C_8
REMARK    4  A    between atoms: C_8  and  C_9
REMARK    5  A    between atoms: C_13  and  N_14
REMARK    6  A    between atoms: C_19  and  C_20
REMARK    7  A    between atoms: C_23  and  C_24
REMARK                            x       y       z     vdW  Elec       q    Type
REMARK                         _______ _______ _______ _____ _____    ______ ____
ROOT
ATOM      1  C   UNL     1       1.831   8.227  19.388  0.00  0.00    +0.000 A 
ATOM      2  C   UNL     1       2.470   8.872  18.308  0.00  0.00    +0.000 A 
ATOM      3  C   UNL     1       3.159   8.160  17.329  0.00  0.00    +0.000 A 
ATOM      4  C   UNL     1       3.326   6.790  17.466  0.00  0.00    +0.000 A 
ATOM      5  C   UNL     1       2.921   6.168  18.654  0.00  0.00    +0.000 A 
ATOM      6  C   UNL     1       2.045   6.842  19.508  0.00  0.00    +0.000 A 
ENDROOT
BRANCH   5   7
ATOM      7  N   UNL     1       3.746   5.117  19.239  0.00  0.00    +0.000 N 
ATOM      8  C   UNL     1       5.143   5.605  19.401  0.00  0.00    +0.000 C 
ATOM      9  C   UNL     1       5.755   5.227  18.090  0.00  0.00    +0.000 A 
ATOM     10  C   UNL     1       5.058   4.103  17.619  0.00  0.00    +0.000 A 
ATOM     11  C   UNL     1       5.217   3.589  16.347  0.00  0.00    +0.000 A 
ATOM     12  C   UNL     1       6.092   4.255  15.484  0.00  0.00    +0.000 A 
ATOM     13  C   UNL     1       6.800   5.394  15.946  0.00  0.00    +0.000 A 
ATOM     14  C   UNL     1       6.644   5.901  17.255  0.00  0.00    +0.000 A 
ATOM     15  C   UNL     1       3.854   3.932  18.466  0.00  0.00    +0.000 C 
ATOM     16  O   UNL     1       3.033   3.046  18.314  0.00  0.00    +0.000 OA
BRANCH  14  17
ATOM     17  C   UNL     1       7.322   7.197  17.628  0.00  0.00    +0.000 C 
ATOM     18  F   UNL     1       8.192   7.658  16.688  0.00  0.00    +0.000 F 
ATOM     19  F   UNL     1       6.430   8.205  17.829  0.00  0.00    +0.000 F 
ATOM     20  F   UNL     1       8.040   7.095  18.781  0.00  0.00    +0.000 F 
ENDBRANCH  14  17
BRANCH  12  21
ATOM     21  C   UNL     1       6.184   3.828  14.042  0.00  0.00    +0.000 C 
ATOM     22  F   UNL     1       5.017   3.985  13.355  0.00  0.00    +0.000 F 
ENDBRANCH  12  21
ENDBRANCH   5   7
BRANCH   1  23
ATOM     23  C   UNL     1       0.903   9.040  20.427  0.00  0.00    +0.000 C 
ATOM     24  C   UNL     1       0.139   8.218  21.498  0.00  0.00    +0.000 C 
ATOM     25  O   UNL     1       0.851   8.839  22.584  0.00  0.00    +0.000 OA
ATOM     26  C   UNL     1       1.631   9.638  21.669  0.00  0.00    +0.000 C 
BRANCH  23  27
ATOM     27  C   UNL     1       0.026   9.967  19.566  0.00  0.00    +0.000 C 
BRANCH  27  33
ATOM     28  C   UNL     1       1.857  12.486  19.136  0.00  0.00    +0.000 C 
ATOM     29  N   UNL     1       0.516  12.456  19.658  0.00  0.00    +0.000 N 
ATOM     30  C   UNL     1      -0.076  13.637  20.245  0.00  0.00    +0.000 C 
ATOM     31  C   UNL     1      -0.973  13.011  21.317  0.00  0.00    +0.000 C 
ATOM     32  N   UNL     1      -1.139  11.577  20.954  0.00  0.00    +0.000 NA
ATOM     33  C   UNL     1      -0.200  11.361  20.065  0.00  0.00    +0.000 C 
ENDBRANCH  27  33
ENDBRANCH  23  27
ENDBRANCH   1  23
TORSDOF 6
ENDMDL
MODEL 8
REMARK VINA RESULT:      -8.0      3.284      8.214
REMARK  Name = 
REMARK  7 active torsions:
REMARK  status: ('A' for Active; 'I' for Inactive)
REMARK    1  A    between atoms: C_1  and  N_2
REMARK    2  A    between atoms: C_6  and  C_7
REMARK    3  A    between atoms: C_7  and  C_8
REMARK    4  A    between atoms: C_8  and  C_9
REMARK    5  A    between atoms: C_13  and  N_14
REMARK    6  A    between atoms: C_19  and  C_20
REMARK    7  A    between atoms: C_23  and  C_24
REMARK                            x       y       z     vdW  Elec       q    Type
REMARK                         _______ _______ _______ _____ _____    ______ ____
ROOT
ATOM      1  C   UNL     1       2.218   5.681  19.116  0.00  0.00    +0.000 A 
ATOM      2  C   UNL     1       2.248   6.448  17.932  0.00  0.00    +0.000 A 
ATOM      3  C   UNL     1       2.219   7.840  17.956  0.00  0.00    +0.000 A 
ATOM      4  C   UNL     1       2.043   8.503  19.162  0.00  0.00    +0.000 A 
ATOM      5  C   UNL     1       1.759   7.759  20.314  0.00  0.00    +0.000 A 
ATOM      6  C   UNL     1       2.014   6.386  20.316  0.00  0.00    +0.000 A 
ENDROOT
BRANCH   5   7
ATOM      7  N   UNL     1       0.779   8.256  21.273  0.00  0.00    +0.000 N 
ATOM      8  C   UNL     1      -0.484   8.607  20.567  0.00  0.00    +0.000 C 
ATOM      9  C   UNL     1      -0.248  10.038  20.207  0.00  0.00    +0.000 A 
ATOM     10  C   UNL     1       0.626  10.567  21.170  0.00  0.00    +0.000 A 
ATOM     11  C   UNL     1       1.219  11.809  21.056  0.00  0.00    +0.000 A 
ATOM     12  C   UNL     1       0.956  12.550  19.900  0.00  0.00    +0.000 A 
ATOM     13  C   UNL     1       0.077  12.025  18.917  0.00  0.00    +0.000 A 
ATOM     14  C   UNL     1      -0.539  10.761  19.051  0.00  0.00    +0.000 A 
ATOM     15  C   UNL     1       1.156   9.436  21.966  0.00  0.00    +0.000 C 
ATOM     16  O   UNL     1       1.947   9.559  22.883  0.00  0.00    +0.000 OA
BRANCH  14  17
ATOM     17  C   UNL     1      -1.347  10.211  17.902  0.00  0.00    +0.000 C 
ATOM     18  F   UNL     1      -2.489   9.575  18.281  0.00  0.00    +0.000 F 
ATOM     19  F   UNL     1      -1.739  11.185  17.036  0.00  0.00    +0.000 F 
ATOM     20  F   UNL     1      -0.648   9.308  17.159  0.00  0.00    +0.000 F 
ENDBRANCH  14  17
BRANCH  12  21
ATOM     21  C   UNL     1       1.697  13.839  19.656  0.00  0.00    +0.000 C 
ATOM     22  F   UNL     1       3.042  13.735  19.855  0.00  0.00    +0.000 F 
ENDBRANCH  12  21
ENDBRANCH   5   7
BRANCH   1  23
ATOM     23  C   UNL     1       2.413   4.080  19.089  0.00  0.00    +0.000 C 
ATOM     24  C   UNL     1       1.461   3.229  19.970  0.00  0.00    +0.000 C 
ATOM     25  O   UNL     1       0.880   2.570  18.829  0.00  0.00    +0.000 OA
ATOM     26  C   UNL     1       1.709   3.326  17.920  0.00  0.00    +0.000 C 
BRANCH  23  27
ATOM     27  C   UNL     1       3.914   3.838  19.327  0.00  0.00    +0.000 C 
BRANCH  27  33
ATOM     28  C   UNL     1       6.562   5.531  19.254  0.00  0.00    +0.000 C 
ATOM     29  N   UNL     1       6.085   4.606  18.259  0.00  0.00    +0.000 N 
ATOM     30  C   UNL     1       6.730   4.509  16.969  0.00  0.00    +0.000 C 
ATOM     31  C   UNL     1       5.537   4.161  16.073  0.00  0.00    +0.000 C 
ATOM     32  N   UNL     1       4.455   3.673  16.971  0.00  0.00    +0.000 NA
ATOM     33  C   UNL     1       4.838   4.044  18.168  0.00  0.00    +0.000 C 
ENDBRANCH  27  33
ENDBRANCH  23  27
ENDBRANCH   1  23
TORSDOF 6
ENDMDL
MODEL 9
REMARK VINA RESULT:      -7.9      3.256      8.186
REMARK  Name = 
REMARK  7 active torsions:
REMARK  status: ('A' for Active; 'I' for Inactive)
REMARK    1  A    between atoms: C_1  and  N_2
REMARK    2  A    between atoms: C_6  and  C_7
REMARK    3  A    between atoms: C_7  and  C_8
REMARK    4  A    between atoms: C_8  and  C_9
REMARK    5  A    between atoms: C_13  and  N_14
REMARK    6  A    between atoms: C_19  and  C_20
REMARK    7  A    between atoms: C_23  and  C_24
REMARK                            x       y       z     vdW  Elec       q    Type
REMARK                         _______ _______ _______ _____ _____    ______ ____
ROOT
ATOM      1  C   UNL     1       2.257   5.795  18.978  0.00  0.00    +0.000 A 
ATOM      2  C   UNL     1       2.300   6.618  17.833  0.00  0.00    +0.000 A 
ATOM      3  C   UNL     1       2.276   8.008  17.925  0.00  0.00    +0.000 A 
ATOM      4  C   UNL     1       2.092   8.612  19.159  0.00  0.00    +0.000 A 
ATOM      5  C   UNL     1       1.794   7.815  20.272  0.00  0.00    +0.000 A 
ATOM      6  C   UNL     1       2.045   6.442  20.209  0.00  0.00    +0.000 A 
ENDROOT
BRANCH   5   7
ATOM      7  N   UNL     1       0.807   8.268  21.245  0.00  0.00    +0.000 N 
ATOM      8  C   UNL     1      -0.465   8.611  20.551  0.00  0.00    +0.000 C 
ATOM      9  C   UNL     1      -0.258  10.055  20.225  0.00  0.00    +0.000 A 
ATOM     10  C   UNL     1       0.608  10.578  21.199  0.00  0.00    +0.000 A 
ATOM     11  C   UNL     1       1.176  11.834  21.114  0.00  0.00    +0.000 A 
ATOM     12  C   UNL     1       0.895  12.597  19.977  0.00  0.00    +0.000 A 
ATOM     13  C   UNL     1       0.025  12.080  18.984  0.00  0.00    +0.000 A 
ATOM     14  C   UNL     1      -0.566  10.800  19.089  0.00  0.00    +0.000 A 
ATOM     15  C   UNL     1       1.162   9.438  21.966  0.00  0.00    +0.000 C 
ATOM     16  O   UNL     1       1.954   9.554  22.884  0.00  0.00    +0.000 OA
BRANCH  14  17
ATOM     17  C   UNL     1      -1.366  10.263  17.928  0.00  0.00    +0.000 C 
ATOM     18  F   UNL     1      -0.697   9.356  17.166  0.00  0.00    +0.000 F 
ATOM     19  F   UNL     1      -2.503   9.635  18.334  0.00  0.00    +0.000 F 
ATOM     20  F   UNL     1      -1.765  11.245  17.072  0.00  0.00    +0.000 F 
ENDBRANCH  14  17
BRANCH  12  21
ATOM     21  C   UNL     1       1.610  13.906  19.764  0.00  0.00    +0.000 C 
ATOM     22  F   UNL     1       2.941  13.760  19.508  0.00  0.00    +0.000 F 
ENDBRANCH  12  21
ENDBRANCH   5   7
BRANCH   1  23
ATOM     23  C   UNL     1       2.446   4.197  18.875  0.00  0.00    +0.000 C 
ATOM     24  C   UNL     1       1.344   3.304  19.505  0.00  0.00    +0.000 C 
ATOM     25  O   UNL     1       0.981   2.734  18.233  0.00  0.00    +0.000 OA
ATOM     26  C   UNL     1       1.966   3.536  17.548  0.00  0.00    +0.000 C 
BRANCH  23  27
ATOM     27  C   UNL     1       3.877   3.913  19.367  0.00  0.00    +0.000 C 
BRANCH  27  33
ATOM     28  C   UNL     1       5.027   3.697  16.450  0.00  0.00    +0.000 C 
ATOM     29  N   UNL     1       5.291   4.725  17.422  0.00  0.00    +0.000 N 
ATOM     30  C   UNL     1       6.321   5.713  17.194  0.00  0.00    +0.000 C 
ATOM     31  C   UNL     1       6.801   5.969  18.626  0.00  0.00    +0.000 C 
ATOM     32  N   UNL     1       5.737   5.457  19.532  0.00  0.00    +0.000 NA
ATOM     33  C   UNL     1       4.987   4.712  18.758  0.00  0.00    +0.000 C 
ENDBRANCH  27  33
ENDBRANCH  23  27
ENDBRANCH   1  23
TORSDOF 6
ENDMDL
