MODEL 1
REMARK VINA RESULT:      -9.1      0.000      0.000
REMARK  Name = 
REMARK  4 active torsions:
REMARK  status: ('A' for Active; 'I' for Inactive)
REMARK    1  A    between atoms: C_1  and  C_2
REMARK    2  A    between atoms: C_7  and  C_8
REMARK    3  A    between atoms: N_10  and  C_11
REMARK    4  A    between atoms: C_17  and  C_18
REMARK                            x       y       z     vdW  Elec       q    Type
REMARK                         _______ _______ _______ _____ _____    ______ ____
ROOT
ATOM      1  C   UNL     1       1.830   8.669  18.351  0.00  0.00    +0.000 C 
ATOM      2  O   UNL     1       2.209   9.037  17.242  0.00  0.00    +0.000 OA
ATOM      3  N   UNL     1       2.041   7.423  18.918  0.00  0.00    +0.000 N 
ATOM      4  H   UNL     1       1.501   7.184  19.740  0.00  0.00    +0.000 HD
ENDROOT
BRANCH   1  11
ATOM      5  C   UNL     1      -2.759  12.610  23.418  0.00  0.00    +0.000 C 
ATOM      6  C   UNL     1      -1.800  11.723  22.684  0.00  0.00    +0.000 A 
ATOM      7  C   UNL     1      -1.220  10.632  23.315  0.00  0.00    +0.000 A 
ATOM      8  C   UNL     1      -0.353   9.828  22.587  0.00  0.00    +0.000 A 
ATOM      9  C   UNL     1      -0.089  10.130  21.246  0.00  0.00    +0.000 A 
ATOM     10  C   UNL     1       0.758   9.326  20.472  0.00  0.00    +0.000 A 
ATOM     11  C   UNL     1       1.002   9.629  19.126  0.00  0.00    +0.000 A 
ATOM     12  C   UNL     1       0.397  10.749  18.558  0.00  0.00    +0.000 A 
ATOM     13  C   UNL     1      -0.449  11.547  19.343  0.00  0.00    +0.000 A 
ATOM     14  C   UNL     1      -0.712  11.259  20.681  0.00  0.00    +0.000 A 
ATOM     15  N   UNL     1      -1.549  12.039  21.387  0.00  0.00    +0.000 NA
ENDBRANCH   1  11
BRANCH   3  16
ATOM     16  C   UNL     1       2.759   6.365  18.306  0.00  0.00    +0.000 A 
ATOM     17  C   UNL     1       2.171   5.139  17.980  0.00  0.00    +0.000 A 
ATOM     18  C   UNL     1       2.908   4.076  17.444  0.00  0.00    +0.000 A 
ATOM     19  C   UNL     1       4.270   4.289  17.246  0.00  0.00    +0.000 A 
ATOM     20  N   UNL     1       5.255   3.462  16.784  0.00  0.00    +0.000 N 
ATOM     21  N   UNL     1       6.475   4.023  16.742  0.00  0.00    +0.000 NA
ATOM     22  C   UNL     1       6.269   5.281  17.197  0.00  0.00    +0.000 A 
ATOM     23  C   UNL     1       4.896   5.499  17.524  0.00  0.00    +0.000 A 
ATOM     24  C   UNL     1       4.124   6.565  18.039  0.00  0.00    +0.000 A 
ATOM     25  H   UNL     1       5.157   2.496  16.494  0.00  0.00    +0.000 HD
BRANCH  22  26
ATOM     26  C   UNL     1       7.376   6.235  17.332  0.00  0.00    +0.000 C 
ATOM     27  N   UNL     1       7.842   6.375  18.611  0.00  0.00    +0.000 N 
ATOM     28  O   UNL     1       7.858   6.872  16.403  0.00  0.00    +0.000 OA
ATOM     29  H   UNL     1       7.399   5.841  19.350  0.00  0.00    +0.000 HD
ATOM     30  H   UNL     1       8.586   7.026  18.807  0.00  0.00    +0.000 HD
ENDBRANCH  22  26
ENDBRANCH   3  16
TORSDOF 3
ENDMDL
MODEL 2
REMARK VINA RESULT:      -8.9      0.857      1.580
REMARK  Name = 
REMARK  4 active torsions:
REMARK  status: ('A' for Active; 'I' for Inactive)
REMARK    1  A    between atoms: C_1  and  C_2
REMARK    2  A    between atoms: C_7  and  C_8
REMARK    3  A    between atoms: N_10  and  C_11
REMARK    4  A    between atoms: C_17  and  C_18
REMARK                            x       y       z     vdW  Elec       q    Type
REMARK                         _______ _______ _______ _____ _____    ______ ____
ROOT
ATOM      1  C   UNL     1       1.777   8.168  19.349  0.00  0.00    +0.000 C 
ATOM      2  O   UNL     1       1.983   8.749  18.287  0.00  0.00    +0.000 OA
ATOM      3  N   UNL     1       2.138   6.866  19.654  0.00  0.00    +0.000 N 
ATOM      4  H   UNL     1       1.728   6.446  20.479  0.00  0.00    +0.000 HD
ENDROOT
BRANCH   1  11
ATOM      5  C   UNL     1      -2.463  13.165  23.744  0.00  0.00    +0.000 C 
ATOM      6  C   UNL     1      -1.804  12.322  22.694  0.00  0.00    +0.000 A 
ATOM      7  C   UNL     1      -1.992  12.595  21.347  0.00  0.00    +0.000 A 
ATOM      8  C   UNL     1      -1.345  11.798  20.412  0.00  0.00    +0.000 A 
ATOM      9  C   UNL     1      -0.523  10.751  20.844  0.00  0.00    +0.000 A 
ATOM     10  C   UNL     1       0.169   9.944  19.932  0.00  0.00    +0.000 A 
ATOM     11  C   UNL     1       1.003   8.909  20.376  0.00  0.00    +0.000 A 
ATOM     12  C   UNL     1       1.136   8.681  21.746  0.00  0.00    +0.000 A 
ATOM     13  C   UNL     1       0.438   9.496  22.650  0.00  0.00    +0.000 A 
ATOM     14  C   UNL     1      -0.389  10.536  22.229  0.00  0.00    +0.000 A 
ATOM     15  N   UNL     1      -1.019  11.305  23.135  0.00  0.00    +0.000 NA
ENDBRANCH   1  11
BRANCH   3  16
ATOM     16  C   UNL     1       2.832   5.991  18.781  0.00  0.00    +0.000 A 
ATOM     17  C   UNL     1       2.255   4.830  18.255  0.00  0.00    +0.000 A 
ATOM     18  C   UNL     1       2.976   3.937  17.453  0.00  0.00    +0.000 A 
ATOM     19  C   UNL     1       4.308   4.251  17.195  0.00  0.00    +0.000 A 
ATOM     20  N   UNL     1       5.274   3.584  16.495  0.00  0.00    +0.000 N 
ATOM     21  N   UNL     1       6.467   4.200  16.473  0.00  0.00    +0.000 NA
ATOM     22  C   UNL     1       6.263   5.327  17.195  0.00  0.00    +0.000 A 
ATOM     23  C   UNL     1       4.918   5.407  17.668  0.00  0.00    +0.000 A 
ATOM     24  C   UNL     1       4.161   6.307  18.453  0.00  0.00    +0.000 A 
ATOM     25  H   UNL     1       5.181   2.694  16.020  0.00  0.00    +0.000 HD
BRANCH  22  26
ATOM     26  C   UNL     1       7.348   6.286  17.437  0.00  0.00    +0.000 C 
ATOM     27  N   UNL     1       7.855   6.249  18.707  0.00  0.00    +0.000 N 
ATOM     28  O   UNL     1       7.778   7.070  16.600  0.00  0.00    +0.000 OA
ATOM     29  H   UNL     1       7.454   5.596  19.371  0.00  0.00    +0.000 HD
ATOM     30  H   UNL     1       8.588   6.887  18.975  0.00  0.00    +0.000 HD
ENDBRANCH  22  26
ENDBRANCH   3  16
TORSDOF 3
ENDMDL
MODEL 3
REMARK VINA RESULT:      -8.8      1.019      1.019
REMARK  Name = 
REMARK  4 active torsions:
REMARK  status: ('A' for Active; 'I' for Inactive)
REMARK    1  A    between atoms: C_1  and  C_2
REMARK    2  A    between atoms: C_7  and  C_8
REMARK    3  A    between atoms: N_10  and  C_11
REMARK    4  A    between atoms: C_17  and  C_18
REMARK                            x       y       z     vdW  Elec       q    Type
REMARK                         _______ _______ _______ _____ _____    ______ ____
ROOT
ATOM      1  C   UNL     1       2.104   8.374  18.258  0.00  0.00    +0.000 C 
ATOM      2  O   UNL     1       2.415   8.697  17.115  0.00  0.00    +0.000 OA
ATOM      3  N   UNL     1       2.249   7.118  18.823  0.00  0.00    +0.000 N 
ATOM      4  H   UNL     1       1.765   6.935  19.694  0.00  0.00    +0.000 HD
ENDROOT
BRANCH   1  11
ATOM      5  C   UNL     1      -1.995  12.714  23.419  0.00  0.00    +0.000 C 
ATOM      6  C   UNL     1      -1.195  11.707  22.650  0.00  0.00    +0.000 A 
ATOM      7  C   UNL     1      -0.977  10.436  23.163  0.00  0.00    +0.000 A 
ATOM      8  C   UNL     1      -0.246   9.530  22.404  0.00  0.00    +0.000 A 
ATOM      9  C   UNL     1       0.248   9.915  21.153  0.00  0.00    +0.000 A 
ATOM     10  C   UNL     1       0.966   9.021  20.348  0.00  0.00    +0.000 A 
ATOM     11  C   UNL     1       1.442   9.412  19.089  0.00  0.00    +0.000 A 
ATOM     12  C   UNL     1       1.200  10.710  18.641  0.00  0.00    +0.000 A 
ATOM     13  C   UNL     1       0.480  11.597  19.456  0.00  0.00    +0.000 A 
ATOM     14  C   UNL     1      -0.010  11.226  20.707  0.00  0.00    +0.000 A 
ATOM     15  N   UNL     1      -0.715  12.103  21.443  0.00  0.00    +0.000 NA
ENDBRANCH   1  11
BRANCH   3  16
ATOM     16  C   UNL     1       2.808   5.993  18.166  0.00  0.00    +0.000 A 
ATOM     17  C   UNL     1       2.178   4.744  18.133  0.00  0.00    +0.000 A 
ATOM     18  C   UNL     1       2.775   3.623  17.544  0.00  0.00    +0.000 A 
ATOM     19  C   UNL     1       4.038   3.800  16.986  0.00  0.00    +0.000 A 
ATOM     20  N   UNL     1       4.889   2.918  16.381  0.00  0.00    +0.000 N 
ATOM     21  N   UNL     1       6.049   3.459  15.971  0.00  0.00    +0.000 NA
ATOM     22  C   UNL     1       5.942   4.761  16.327  0.00  0.00    +0.000 A 
ATOM     23  C   UNL     1       4.692   5.026  16.966  0.00  0.00    +0.000 A 
ATOM     24  C   UNL     1       4.057   6.149  17.543  0.00  0.00    +0.000 A 
ATOM     25  H   UNL     1       4.739   1.927  16.230  0.00  0.00    +0.000 HD
BRANCH  22  26
ATOM     26  C   UNL     1       7.030   5.713  16.075  0.00  0.00    +0.000 C 
ATOM     27  N   UNL     1       7.644   5.553  14.863  0.00  0.00    +0.000 N 
ATOM     28  O   UNL     1       7.386   6.581  16.862  0.00  0.00    +0.000 OA
ATOM     29  H   UNL     1       7.327   4.808  14.252  0.00  0.00    +0.000 HD
ATOM     30  H   UNL     1       8.418   6.146  14.609  0.00  0.00    +0.000 HD
ENDBRANCH  22  26
ENDBRANCH   3  16
TORSDOF 3
ENDMDL
MODEL 4
REMARK VINA RESULT:      -8.6      1.104      1.184
REMARK  Name = 
REMARK  4 active torsions:
REMARK  status: ('A' for Active; 'I' for Inactive)
REMARK    1  A    between atoms: C_1  and  C_2
REMARK    2  A    between atoms: C_7  and  C_8
REMARK    3  A    between atoms: N_10  and  C_11
REMARK    4  A    between atoms: C_17  and  C_18
REMARK                            x       y       z     vdW  Elec       q    Type
REMARK                         _______ _______ _______ _____ _____    ______ ____
ROOT
ATOM      1  C   UNL     1       1.567   8.053  19.873  0.00  0.00    +0.000 C 
ATOM      2  O   UNL     1       1.833   7.371  20.860  0.00  0.00    +0.000 OA
ATOM      3  N   UNL     1       2.020   7.838  18.582  0.00  0.00    +0.000 N 
ATOM      4  H   UNL     1       1.896   8.585  17.910  0.00  0.00    +0.000 HD
ENDROOT
BRANCH   1  11
ATOM      5  C   UNL     1      -3.258  13.783  22.354  0.00  0.00    +0.000 C 
ATOM      6  C   UNL     1      -2.298  12.649  22.157  0.00  0.00    +0.000 A 
ATOM      7  C   UNL     1      -1.910  11.856  23.227  0.00  0.00    +0.000 A 
ATOM      8  C   UNL     1      -1.034  10.804  22.990  0.00  0.00    +0.000 A 
ATOM      9  C   UNL     1      -0.570  10.569  21.692  0.00  0.00    +0.000 A 
ATOM     10  C   UNL     1       0.292   9.501  21.409  0.00  0.00    +0.000 A 
ATOM     11  C   UNL     1       0.738   9.264  20.102  0.00  0.00    +0.000 A 
ATOM     12  C   UNL     1       0.320  10.109  19.075  0.00  0.00    +0.000 A 
ATOM     13  C   UNL     1      -0.543  11.175  19.370  0.00  0.00    +0.000 A 
ATOM     14  C   UNL     1      -1.005  11.423  20.661  0.00  0.00    +0.000 A 
ATOM     15  N   UNL     1      -1.851  12.444  20.891  0.00  0.00    +0.000 NA
ENDBRANCH   1  11
BRANCH   3  16
ATOM     16  C   UNL     1       2.860   6.768  18.185  0.00  0.00    +0.000 A 
ATOM     17  C   UNL     1       2.380   5.476  17.944  0.00  0.00    +0.000 A 
ATOM     18  C   UNL     1       3.231   4.411  17.625  0.00  0.00    +0.000 A 
ATOM     19  C   UNL     1       4.594   4.690  17.556  0.00  0.00    +0.000 A 
ATOM     20  N   UNL     1       5.669   3.883  17.311  0.00  0.00    +0.000 N 
ATOM     21  N   UNL     1       6.854   4.515  17.339  0.00  0.00    +0.000 NA
ATOM     22  C   UNL     1       6.530   5.800  17.615  0.00  0.00    +0.000 A 
ATOM     23  C   UNL     1       5.117   5.962  17.757  0.00  0.00    +0.000 A 
ATOM     24  C   UNL     1       4.235   7.026  18.052  0.00  0.00    +0.000 A 
ATOM     25  H   UNL     1       5.657   2.886  17.129  0.00  0.00    +0.000 HD
BRANCH  22  26
ATOM     26  C   UNL     1       7.561   6.834  17.759  0.00  0.00    +0.000 C 
ATOM     27  N   UNL     1       8.252   6.776  18.938  0.00  0.00    +0.000 N 
ATOM     28  O   UNL     1       7.801   7.693  16.919  0.00  0.00    +0.000 OA
ATOM     29  H   UNL     1       8.005   6.059  19.611  0.00  0.00    +0.000 HD
ATOM     30  H   UNL     1       8.964   7.459  19.138  0.00  0.00    +0.000 HD
ENDBRANCH  22  26
ENDBRANCH   3  16
TORSDOF 3
ENDMDL
MODEL 5
REMARK VINA RESULT:      -8.5      2.490      9.186
REMARK  Name = 
REMARK  4 active torsions:
REMARK  status: ('A' for Active; 'I' for Inactive)
REMARK    1  A    between atoms: C_1  and  C_2
REMARK    2  A    between atoms: C_7  and  C_8
REMARK    3  A    between atoms: N_10  and  C_11
REMARK    4  A    between atoms: C_17  and  C_18
REMARK                            x       y       z     vdW  Elec       q    Type
REMARK                         _______ _______ _______ _____ _____    ______ ____
ROOT
ATOM      1  C   UNL     1       1.940   6.642  20.114  0.00  0.00    +0.000 C 
ATOM      2  O   UNL     1       1.342   5.996  20.969  0.00  0.00    +0.000 OA
ATOM      3  N   UNL     1       1.873   8.012  19.925  0.00  0.00    +0.000 N 
ATOM      4  H   UNL     1       2.248   8.387  19.062  0.00  0.00    +0.000 HD
ENDROOT
BRANCH   1  11
ATOM      5  C   UNL     1       6.258   3.810  14.147  0.00  0.00    +0.000 C 
ATOM      6  C   UNL     1       5.559   4.593  15.217  0.00  0.00    +0.000 A 
ATOM      7  C   UNL     1       5.614   5.979  15.229  0.00  0.00    +0.000 A 
ATOM      8  C   UNL     1       4.934   6.661  16.230  0.00  0.00    +0.000 A 
ATOM      9  C   UNL     1       4.213   5.944  17.190  0.00  0.00    +0.000 A 
ATOM     10  C   UNL     1       3.491   6.598  18.197  0.00  0.00    +0.000 A 
ATOM     11  C   UNL     1       2.758   5.870  19.144  0.00  0.00    +0.000 A 
ATOM     12  C   UNL     1       2.757   4.477  19.081  0.00  0.00    +0.000 A 
ATOM     13  C   UNL     1       3.484   3.833  18.068  0.00  0.00    +0.000 A 
ATOM     14  C   UNL     1       4.211   4.538  17.112  0.00  0.00    +0.000 A 
ATOM     15  N   UNL     1       4.874   3.877  16.145  0.00  0.00    +0.000 NA
ENDBRANCH   1  11
BRANCH   3  16
ATOM     16  C   UNL     1       1.104   8.903  20.716  0.00  0.00    +0.000 A 
ATOM     17  C   UNL     1       1.044   8.818  22.111  0.00  0.00    +0.000 A 
ATOM     18  C   UNL     1       0.223   9.656  22.875  0.00  0.00    +0.000 A 
ATOM     19  C   UNL     1      -0.543  10.591  22.184  0.00  0.00    +0.000 A 
ATOM     20  N   UNL     1      -1.454  11.512  22.620  0.00  0.00    +0.000 N 
ATOM     21  N   UNL     1      -2.013  12.245  21.643  0.00  0.00    +0.000 NA
ATOM     22  C   UNL     1      -1.432  11.776  20.514  0.00  0.00    +0.000 A 
ATOM     23  C   UNL     1      -0.496  10.736  20.802  0.00  0.00    +0.000 A 
ATOM     24  C   UNL     1       0.361   9.896  20.056  0.00  0.00    +0.000 A 
ATOM     25  H   UNL     1      -1.746  11.678  23.577  0.00  0.00    +0.000 HD
BRANCH  22  26
ATOM     26  C   UNL     1      -1.791  12.305  19.193  0.00  0.00    +0.000 C 
ATOM     27  N   UNL     1      -3.127  12.237  18.907  0.00  0.00    +0.000 N 
ATOM     28  O   UNL     1      -0.989  12.768  18.392  0.00  0.00    +0.000 OA
ATOM     29  H   UNL     1      -3.751  11.828  19.594  0.00  0.00    +0.000 HD
ATOM     30  H   UNL     1      -3.467  12.555  18.013  0.00  0.00    +0.000 HD
ENDBRANCH  22  26
ENDBRANCH   3  16
TORSDOF 3
ENDMDL
MODEL 6
REMARK VINA RESULT:      -8.4      0.916      1.667
REMARK  Name = 
REMARK  4 active torsions:
REMARK  status: ('A' for Active; 'I' for Inactive)
REMARK    1  A    between atoms: C_1  and  C_2
REMARK    2  A    between atoms: C_7  and  C_8
REMARK    3  A    between atoms: N_10  and  C_11
REMARK    4  A    between atoms: C_17  and  C_18
REMARK                            x       y       z     vdW  Elec       q    Type
REMARK                         _______ _______ _______ _____ _____    ______ ____
ROOT
ATOM      1  C   UNL     1       1.772   8.533  18.630  0.00  0.00    +0.000 C 
ATOM      2  O   UNL     1       2.086   9.006  17.541  0.00  0.00    +0.000 OA
ATOM      3  N   UNL     1       2.121   7.282  19.112  0.00  0.00    +0.000 N 
ATOM      4  H   UNL     1       1.629   6.938  19.927  0.00  0.00    +0.000 HD
ENDROOT
BRANCH   1  11
ATOM      5  C   UNL     1      -3.330  13.613  21.860  0.00  0.00    +0.000 C 
ATOM      6  C   UNL     1      -2.524  12.670  21.019  0.00  0.00    +0.000 A 
ATOM      7  C   UNL     1      -2.758  12.561  19.656  0.00  0.00    +0.000 A 
ATOM      8  C   UNL     1      -1.972  11.688  18.915  0.00  0.00    +0.000 A 
ATOM      9  C   UNL     1      -0.970  10.947  19.552  0.00  0.00    +0.000 A 
ATOM     10  C   UNL     1      -0.139  10.078  18.834  0.00  0.00    +0.000 A 
ATOM     11  C   UNL     1       0.872   9.353  19.480  0.00  0.00    +0.000 A 
ATOM     12  C   UNL     1       1.043   9.500  20.856  0.00  0.00    +0.000 A 
ATOM     13  C   UNL     1       0.205  10.373  21.565  0.00  0.00    +0.000 A 
ATOM     14  C   UNL     1      -0.801  11.110  20.941  0.00  0.00    +0.000 A 
ATOM     15  N   UNL     1      -1.565  11.953  21.658  0.00  0.00    +0.000 NA
ENDBRANCH   1  11
BRANCH   3  16
ATOM     16  C   UNL     1       2.927   6.343  18.421  0.00  0.00    +0.000 A 
ATOM     17  C   UNL     1       2.434   5.119  17.955  0.00  0.00    +0.000 A 
ATOM     18  C   UNL     1       3.257   4.169  17.339  0.00  0.00    +0.000 A 
ATOM     19  C   UNL     1       4.605   4.492  17.206  0.00  0.00    +0.000 A 
ATOM     20  N   UNL     1       5.657   3.784  16.696  0.00  0.00    +0.000 N 
ATOM     21  N   UNL     1       6.836   4.428  16.748  0.00  0.00    +0.000 NA
ATOM     22  C   UNL     1       6.531   5.615  17.321  0.00  0.00    +0.000 A 
ATOM     23  C   UNL     1       5.138   5.706  17.624  0.00  0.00    +0.000 A 
ATOM     24  C   UNL     1       4.280   6.660  18.218  0.00  0.00    +0.000 A 
ATOM     25  H   UNL     1       5.634   2.848  16.307  0.00  0.00    +0.000 HD
BRANCH  22  26
ATOM     26  C   UNL     1       7.564   6.624  17.585  0.00  0.00    +0.000 C 
ATOM     27  N   UNL     1       8.087   6.571  18.848  0.00  0.00    +0.000 N 
ATOM     28  O   UNL     1       7.942   7.457  16.771  0.00  0.00    +0.000 OA
ATOM     29  H   UNL     1       7.729   5.876  19.493  0.00  0.00    +0.000 HD
ATOM     30  H   UNL     1       8.786   7.239  19.131  0.00  0.00    +0.000 HD
ENDBRANCH  22  26
ENDBRANCH   3  16
TORSDOF 3
ENDMDL
MODEL 7
REMARK VINA RESULT:      -8.4      2.937      4.278
REMARK  Name = 
REMARK  4 active torsions:
REMARK  status: ('A' for Active; 'I' for Inactive)
REMARK    1  A    between atoms: C_1  and  C_2
REMARK    2  A    between atoms: C_7  and  C_8
REMARK    3  A    between atoms: N_10  and  C_11
REMARK    4  A    between atoms: C_17  and  C_18
REMARK                            x       y       z     vdW  Elec       q    Type
REMARK                         _______ _______ _______ _____ _____    ______ ____
ROOT
ATOM      1  C   UNL     1       1.625   8.727  19.000  0.00  0.00    +0.000 C 
ATOM      2  O   UNL     1       1.660   8.300  20.150  0.00  0.00    +0.000 OA
ATOM      3  N   UNL     1       2.167   8.116  17.881  0.00  0.00    +0.000 N 
ATOM      4  H   UNL     1       2.251   8.669  17.038  0.00  0.00    +0.000 HD
ENDROOT
BRANCH   1  11
ATOM      5  C   UNL     1      -0.409  16.342  18.617  0.00  0.00    +0.000 C 
ATOM      6  C   UNL     1       0.240  14.992  18.663  0.00  0.00    +0.000 A 
ATOM      7  C   UNL     1       1.615  14.872  18.802  0.00  0.00    +0.000 A 
ATOM      8  C   UNL     1       2.168  13.599  18.860  0.00  0.00    +0.000 A 
ATOM      9  C   UNL     1       1.335  12.478  18.782  0.00  0.00    +0.000 A 
ATOM     10  C   UNL     1       1.853  11.179  18.865  0.00  0.00    +0.000 A 
ATOM     11  C   UNL     1       1.007  10.063  18.802  0.00  0.00    +0.000 A 
ATOM     12  C   UNL     1      -0.365  10.255  18.648  0.00  0.00    +0.000 A 
ATOM     13  C   UNL     1      -0.872  11.561  18.565  0.00  0.00    +0.000 A 
ATOM     14  C   UNL     1      -0.050  12.684  18.635  0.00  0.00    +0.000 A 
ATOM     15  N   UNL     1      -0.585  13.917  18.575  0.00  0.00    +0.000 NA
ENDBRANCH   1  11
BRANCH   3  16
ATOM     16  C   UNL     1       2.840   6.868  17.886  0.00  0.00    +0.000 A 
ATOM     17  C   UNL     1       4.156   6.715  17.436  0.00  0.00    +0.000 A 
ATOM     18  C   UNL     1       4.784   5.465  17.377  0.00  0.00    +0.000 A 
ATOM     19  C   UNL     1       4.038   4.363  17.788  0.00  0.00    +0.000 A 
ATOM     20  N   UNL     1       4.338   3.030  17.818  0.00  0.00    +0.000 N 
ATOM     21  N   UNL     1       3.344   2.248  18.274  0.00  0.00    +0.000 NA
ATOM     22  C   UNL     1       2.349   3.122  18.556  0.00  0.00    +0.000 A 
ATOM     23  C   UNL     1       2.739   4.466  18.271  0.00  0.00    +0.000 A 
ATOM     24  C   UNL     1       2.137   5.743  18.347  0.00  0.00    +0.000 A 
ATOM     25  H   UNL     1       5.203   2.591  17.526  0.00  0.00    +0.000 HD
BRANCH  22  26
ATOM     26  C   UNL     1       1.052   2.662  19.067  0.00  0.00    +0.000 C 
ATOM     27  N   UNL     1       0.836   2.952  20.387  0.00  0.00    +0.000 N 
ATOM     28  O   UNL     1       0.219   2.062  18.399  0.00  0.00    +0.000 OA
ATOM     29  H   UNL     1       1.563   3.434  20.904  0.00  0.00    +0.000 HD
ATOM     30  H   UNL     1      -0.017   2.656  20.833  0.00  0.00    +0.000 HD
ENDBRANCH  22  26
ENDBRANCH   3  16
TORSDOF 3
ENDMDL
MODEL 8
REMARK VINA RESULT:      -8.4      1.511      2.138
REMARK  Name = 
REMARK  4 active torsions:
REMARK  status: ('A' for Active; 'I' for Inactive)
REMARK    1  A    between atoms: C_1  and  C_2
REMARK    2  A    between atoms: C_7  and  C_8
REMARK    3  A    between atoms: N_10  and  C_11
REMARK    4  A    between atoms: C_17  and  C_18
REMARK                            x       y       z     vdW  Elec       q    Type
REMARK                         _______ _______ _______ _____ _____    ______ ____
ROOT
ATOM      1  C   UNL     1       1.576   8.080  20.074  0.00  0.00    +0.000 C 
ATOM      2  O   UNL     1       1.823   8.502  18.947  0.00  0.00    +0.000 OA
ATOM      3  N   UNL     1       1.912   6.833  20.574  0.00  0.00    +0.000 N 
ATOM      4  H   UNL     1       1.470   6.538  21.436  0.00  0.00    +0.000 HD
ENDROOT
BRANCH   1  11
ATOM      5  C   UNL     1      -2.530  13.790  23.652  0.00  0.00    +0.000 C 
ATOM      6  C   UNL     1      -1.854  12.816  22.736  0.00  0.00    +0.000 A 
ATOM      7  C   UNL     1      -1.839  13.027  21.365  0.00  0.00    +0.000 A 
ATOM      8  C   UNL     1      -1.183  12.106  20.558  0.00  0.00    +0.000 A 
ATOM      9  C   UNL     1      -0.556  10.998  21.140  0.00  0.00    +0.000 A 
ATOM     10  C   UNL     1       0.139  10.063  20.363  0.00  0.00    +0.000 A 
ATOM     11  C   UNL     1       0.777   8.966  20.958  0.00  0.00    +0.000 A 
ATOM     12  C   UNL     1       0.709   8.807  22.341  0.00  0.00    +0.000 A 
ATOM     13  C   UNL     1       0.010   9.750  23.110  0.00  0.00    +0.000 A 
ATOM     14  C   UNL     1      -0.623  10.852  22.539  0.00  0.00    +0.000 A 
ATOM     15  N   UNL     1      -1.262  11.742  23.319  0.00  0.00    +0.000 NA
ENDBRANCH   1  11
BRANCH   3  16
ATOM     16  C   UNL     1       2.624   5.838  19.860  0.00  0.00    +0.000 A 
ATOM     17  C   UNL     1       2.578   4.481  20.200  0.00  0.00    +0.000 A 
ATOM     18  C   UNL     1       3.344   3.518  19.532  0.00  0.00    +0.000 A 
ATOM     19  C   UNL     1       4.166   3.968  18.501  0.00  0.00    +0.000 A 
ATOM     20  N   UNL     1       5.047   3.304  17.695  0.00  0.00    +0.000 N 
ATOM     21  N   UNL     1       5.682   4.087  16.806  0.00  0.00    +0.000 NA
ATOM     22  C   UNL     1       5.185   5.322  17.049  0.00  0.00    +0.000 A 
ATOM     23  C   UNL     1       4.223   5.299  18.105  0.00  0.00    +0.000 A 
ATOM     24  C   UNL     1       3.420   6.247  18.778  0.00  0.00    +0.000 A 
ATOM     25  H   UNL     1       5.267   2.315  17.712  0.00  0.00    +0.000 HD
BRANCH  22  26
ATOM     26  C   UNL     1       5.646   6.493  16.293  0.00  0.00    +0.000 C 
ATOM     27  N   UNL     1       6.693   7.156  16.872  0.00  0.00    +0.000 N 
ATOM     28  O   UNL     1       5.153   6.873  15.239  0.00  0.00    +0.000 OA
ATOM     29  H   UNL     1       7.056   6.814  17.755  0.00  0.00    +0.000 HD
ATOM     30  H   UNL     1       7.063   7.986  16.439  0.00  0.00    +0.000 HD
ENDBRANCH  22  26
ENDBRANCH   3  16
TORSDOF 3
ENDMDL
MODEL 9
REMARK VINA RESULT:      -8.4      1.961      3.001
REMARK  Name = 
REMARK  4 active torsions:
REMARK  status: ('A' for Active; 'I' for Inactive)
REMARK    1  A    between atoms: C_1  and  C_2
REMARK    2  A    between atoms: C_7  and  C_8
REMARK    3  A    between atoms: N_10  and  C_11
REMARK    4  A    between atoms: C_17  and  C_18
REMARK                            x       y       z     vdW  Elec       q    Type
REMARK                         _______ _______ _______ _____ _____    ______ ____
ROOT
ATOM      1  C   UNL     1       1.595   9.242  18.468  0.00  0.00    +0.000 C 
ATOM      2  O   UNL     1       1.945   9.562  17.335  0.00  0.00    +0.000 OA
ATOM      3  N   UNL     1       1.906   8.059  19.119  0.00  0.00    +0.000 N 
ATOM      4  H   UNL     1       1.386   7.834  19.958  0.00  0.00    +0.000 HD
ENDROOT
BRANCH   1  11
ATOM      5  C   UNL     1      -3.316  13.132  23.265  0.00  0.00    +0.000 C 
ATOM      6  C   UNL     1      -2.287  12.277  22.591  0.00  0.00    +0.000 A 
ATOM      7  C   UNL     1      -1.628  11.277  23.292  0.00  0.00    +0.000 A 
ATOM      8  C   UNL     1      -0.696  10.498  22.618  0.00  0.00    +0.000 A 
ATOM      9  C   UNL     1      -0.449  10.732  21.261  0.00  0.00    +0.000 A 
ATOM     10  C   UNL     1       0.463   9.948  20.541  0.00  0.00    +0.000 A 
ATOM     11  C   UNL     1       0.691  10.182  19.178  0.00  0.00    +0.000 A 
ATOM     12  C   UNL     1       0.004  11.213  18.539  0.00  0.00    +0.000 A 
ATOM     13  C   UNL     1      -0.906  11.991  19.270  0.00  0.00    +0.000 A 
ATOM     14  C   UNL     1      -1.154  11.770  20.623  0.00  0.00    +0.000 A 
ATOM     15  N   UNL     1      -2.053  12.528  21.277  0.00  0.00    +0.000 NA
ENDBRANCH   1  11
BRANCH   3  16
ATOM     16  C   UNL     1       2.709   7.023  18.579  0.00  0.00    +0.000 A 
ATOM     17  C   UNL     1       3.735   7.262  17.658  0.00  0.00    +0.000 A 
ATOM     18  C   UNL     1       4.472   6.223  17.076  0.00  0.00    +0.000 A 
ATOM     19  C   UNL     1       4.139   4.924  17.453  0.00  0.00    +0.000 A 
ATOM     20  N   UNL     1       4.629   3.714  17.050  0.00  0.00    +0.000 N 
ATOM     21  N   UNL     1       4.042   2.656  17.634  0.00  0.00    +0.000 NA
ATOM     22  C   UNL     1       3.124   3.210  18.460  0.00  0.00    +0.000 A 
ATOM     23  C   UNL     1       3.149   4.636  18.385  0.00  0.00    +0.000 A 
ATOM     24  C   UNL     1       2.438   5.704  18.979  0.00  0.00    +0.000 A 
ATOM     25  H   UNL     1       5.359   3.545  16.367  0.00  0.00    +0.000 HD
BRANCH  22  26
ATOM     26  C   UNL     1       2.235   2.380  19.281  0.00  0.00    +0.000 C 
ATOM     27  N   UNL     1       1.389   1.582  18.560  0.00  0.00    +0.000 N 
ATOM     28  O   UNL     1       2.221   2.383  20.506  0.00  0.00    +0.000 OA
ATOM     29  H   UNL     1       1.424   1.628  17.548  0.00  0.00    +0.000 HD
ATOM     30  H   UNL     1       0.725   0.993  19.036  0.00  0.00    +0.000 HD
ENDBRANCH  22  26
ENDBRANCH   3  16
TORSDOF 3
ENDMDL
