MODEL 1
REMARK VINA RESULT:      -9.2      0.000      0.000
REMARK  Name = 
REMARK  8 active torsions:
REMARK  status: ('A' for Active; 'I' for Inactive)
REMARK    1  A    between atoms: C_1  and  O_2
REMARK    2  A    between atoms: O_2  and  C_3
REMARK    3  A    between atoms: C_7  and  C_8
REMARK    4  A    between atoms: N_10  and  C_11
REMARK    5  A    between atoms: C_11  and  C_12
REMARK    6  A    between atoms: C_19  and  C_20
REMARK    7  A    between atoms: N_22  and  C_23
REMARK    8  A    between atoms: C_28  and  C_29
REMARK                            x       y       z     vdW  Elec       q    Type
REMARK                         _______ _______ _______ _____ _____    ______ ____
ROOT
ATOM      1  C   UNL     1       3.876   5.196  17.740  0.00  0.00    +0.000 A 
ATOM      2  N   UNL     1       4.978   4.594  17.266  0.00  0.00    +0.000 NA
ATOM      3  N   UNL     1       5.697   5.578  16.706  0.00  0.00    +0.000 N 
ATOM      4  C   UNL     1       5.048   6.782  16.693  0.00  0.00    +0.000 A 
ATOM      5  C   UNL     1       3.896   6.599  17.436  0.00  0.00    +0.000 A 
ENDROOT
BRANCH   1  10
ATOM      6  C   UNL     1       1.996   3.411  20.486  0.00  0.00    +0.000 A 
ATOM      7  C   UNL     1       0.865   2.971  19.798  0.00  0.00    +0.000 A 
ATOM      8  C   UNL     1       0.725   3.236  18.438  0.00  0.00    +0.000 A 
ATOM      9  C   UNL     1       1.718   3.939  17.761  0.00  0.00    +0.000 A 
ATOM     10  C   UNL     1       2.848   4.415  18.438  0.00  0.00    +0.000 A 
ATOM     11  C   UNL     1       2.984   4.124  19.801  0.00  0.00    +0.000 A 
BRANCH   6  13
ATOM     12  C   UNL     1       1.427   2.271  22.489  0.00  0.00    +0.000 C 
ATOM     13  O   UNL     1       2.246   3.220  21.819  0.00  0.00    +0.000 OA
ENDBRANCH   6  13
ENDBRANCH   1  10
BRANCH   5  14
ATOM     14  C   UNL     1       2.946   7.603  17.899  0.00  0.00    +0.000 C 
ATOM     15  O   UNL     1       2.652   8.541  17.170  0.00  0.00    +0.000 OA
ATOM     16  N   UNL     1       2.485   7.443  19.203  0.00  0.00    +0.000 N 
ATOM     17  H   UNL     1       2.920   6.723  19.760  0.00  0.00    +0.000 HD
BRANCH  16  18
ATOM     18  C   UNL     1       1.602   8.346  19.854  0.00  0.00    +0.000 A 
ATOM     19  C   UNL     1       1.225   8.193  21.191  0.00  0.00    +0.000 A 
ATOM     20  C   UNL     1       0.305   9.048  21.793  0.00  0.00    +0.000 A 
ATOM     21  C   UNL     1      -0.230  10.097  21.062  0.00  0.00    +0.000 A 
ATOM     22  F   UNL     1      -1.123  10.889  21.674  0.00  0.00    +0.000 F 
ATOM     23  C   UNL     1       0.157  10.313  19.735  0.00  0.00    +0.000 A 
ATOM     24  C   UNL     1       1.077   9.427  19.130  0.00  0.00    +0.000 A 
BRANCH  23  25
ATOM     25  C   UNL     1      -0.385  11.453  18.949  0.00  0.00    +0.000 C 
ATOM     26  N   UNL     1      -1.071  11.175  17.803  0.00  0.00    +0.000 N 
ATOM     27  O   UNL     1      -0.228  12.610  19.323  0.00  0.00    +0.000 OA
ATOM     28  H   UNL     1      -1.223  10.233  17.458  0.00  0.00    +0.000 HD
ATOM     29  H   UNL     1      -1.449  11.949  17.263  0.00  0.00    +0.000 HD
ENDBRANCH  23  25
ENDBRANCH  16  18
ENDBRANCH   5  14
BRANCH   3  30
ATOM     30  C   UNL     1       7.015   5.269  16.158  0.00  0.00    +0.000 C 
BRANCH  30  31
ATOM     31  C   UNL     1       6.946   4.857  14.705  0.00  0.00    +0.000 A 
ATOM     32  C   UNL     1       7.783   5.450  13.745  0.00  0.00    +0.000 A 
ATOM     33  C   UNL     1       7.694   5.090  12.399  0.00  0.00    +0.000 A 
ATOM     34  C   UNL     1       6.785   4.113  12.000  0.00  0.00    +0.000 A 
ATOM     35  C   UNL     1       5.975   3.489  12.946  0.00  0.00    +0.000 A 
ATOM     36  C   UNL     1       6.055   3.857  14.292  0.00  0.00    +0.000 A 
ENDBRANCH  30  31
ENDBRANCH   3  30
TORSDOF 7
ENDMDL
MODEL 2
REMARK VINA RESULT:      -9.1      1.653      2.081
REMARK  Name = 
REMARK  8 active torsions:
REMARK  status: ('A' for Active; 'I' for Inactive)
REMARK    1  A    between atoms: C_1  and  O_2
REMARK    2  A    between atoms: O_2  and  C_3
REMARK    3  A    between atoms: C_7  and  C_8
REMARK    4  A    between atoms: N_10  and  C_11
REMARK    5  A    between atoms: C_11  and  C_12
REMARK    6  A    between atoms: C_19  and  C_20
REMARK    7  A    between atoms: N_22  and  C_23
REMARK    8  A    between atoms: C_28  and  C_29
REMARK                            x       y       z     vdW  Elec       q    Type
REMARK                         _______ _______ _______ _____ _____    ______ ____
ROOT
ATOM      1  C   UNL     1       4.495   4.364  16.749  0.00  0.00    +0.000 A 
ATOM      2  N   UNL     1       5.179   3.701  15.804  0.00  0.00    +0.000 NA
ATOM      3  N   UNL     1       5.804   4.653  15.095  0.00  0.00    +0.000 N 
ATOM      4  C   UNL     1       5.457   5.922  15.472  0.00  0.00    +0.000 A 
ATOM      5  C   UNL     1       4.676   5.781  16.603  0.00  0.00    +0.000 A 
ENDROOT
BRANCH   1  10
ATOM      6  C   UNL     1       3.486   2.543  19.900  0.00  0.00    +0.000 A 
ATOM      7  C   UNL     1       2.141   2.276  19.639  0.00  0.00    +0.000 A 
ATOM      8  C   UNL     1       1.569   2.670  18.432  0.00  0.00    +0.000 A 
ATOM      9  C   UNL     1       2.343   3.328  17.479  0.00  0.00    +0.000 A 
ATOM     10  C   UNL     1       3.687   3.631  17.730  0.00  0.00    +0.000 A 
ATOM     11  C   UNL     1       4.252   3.212  18.942  0.00  0.00    +0.000 A 
BRANCH   6  13
ATOM     12  C   UNL     1       5.255   1.319  20.903  0.00  0.00    +0.000 C 
ATOM     13  O   UNL     1       4.159   2.213  21.045  0.00  0.00    +0.000 OA
ENDBRANCH   6  13
ENDBRANCH   1  10
BRANCH   5  14
ATOM     14  C   UNL     1       4.204   6.817  17.515  0.00  0.00    +0.000 C 
ATOM     15  O   UNL     1       5.001   7.619  17.984  0.00  0.00    +0.000 OA
ATOM     16  N   UNL     1       2.852   6.764  17.842  0.00  0.00    +0.000 N 
ATOM     17  H   UNL     1       2.331   5.963  17.520  0.00  0.00    +0.000 HD
BRANCH  16  18
ATOM     18  C   UNL     1       2.217   7.647  18.757  0.00  0.00    +0.000 A 
ATOM     19  C   UNL     1       1.991   7.307  20.093  0.00  0.00    +0.000 A 
ATOM     20  C   UNL     1       1.306   8.158  20.958  0.00  0.00    +0.000 A 
ATOM     21  C   UNL     1       0.862   9.386  20.494  0.00  0.00    +0.000 A 
ATOM     22  F   UNL     1       0.194  10.169  21.354  0.00  0.00    +0.000 F 
ATOM     23  C   UNL     1       1.108   9.784  19.176  0.00  0.00    +0.000 A 
ATOM     24  C   UNL     1       1.788   8.904  18.304  0.00  0.00    +0.000 A 
BRANCH  23  25
ATOM     25  C   UNL     1       0.664  11.112  18.675  0.00  0.00    +0.000 C 
ATOM     26  N   UNL     1      -0.498  11.174  17.962  0.00  0.00    +0.000 N 
ATOM     27  O   UNL     1       1.318  12.123  18.903  0.00  0.00    +0.000 OA
ATOM     28  H   UNL     1      -1.068  10.362  17.752  0.00  0.00    +0.000 HD
ATOM     29  H   UNL     1      -0.810  12.079  17.621  0.00  0.00    +0.000 HD
ENDBRANCH  23  25
ENDBRANCH  16  18
ENDBRANCH   5  14
BRANCH   3  30
ATOM     30  C   UNL     1       6.712   4.258  14.022  0.00  0.00    +0.000 C 
BRANCH  30  31
ATOM     31  C   UNL     1       5.990   3.557  12.894  0.00  0.00    +0.000 A 
ATOM     32  C   UNL     1       4.735   4.006  12.450  0.00  0.00    +0.000 A 
ATOM     33  C   UNL     1       4.057   3.337  11.430  0.00  0.00    +0.000 A 
ATOM     34  C   UNL     1       4.636   2.227  10.821  0.00  0.00    +0.000 A 
ATOM     35  C   UNL     1       5.898   1.794  11.224  0.00  0.00    +0.000 A 
ATOM     36  C   UNL     1       6.573   2.454  12.253  0.00  0.00    +0.000 A 
ENDBRANCH  30  31
ENDBRANCH   3  30
TORSDOF 7
ENDMDL
MODEL 3
REMARK VINA RESULT:      -9.1      0.764      1.157
REMARK  Name = 
REMARK  8 active torsions:
REMARK  status: ('A' for Active; 'I' for Inactive)
REMARK    1  A    between atoms: C_1  and  O_2
REMARK    2  A    between atoms: O_2  and  C_3
REMARK    3  A    between atoms: C_7  and  C_8
REMARK    4  A    between atoms: N_10  and  C_11
REMARK    5  A    between atoms: C_11  and  C_12
REMARK    6  A    between atoms: C_19  and  C_20
REMARK    7  A    between atoms: N_22  and  C_23
REMARK    8  A    between atoms: C_28  and  C_29
REMARK                            x       y       z     vdW  Elec       q    Type
REMARK                         _______ _______ _______ _____ _____    ______ ____
ROOT
ATOM      1  C   UNL     1       4.080   5.113  17.800  0.00  0.00    +0.000 A 
ATOM      2  N   UNL     1       5.173   4.541  17.273  0.00  0.00    +0.000 NA
ATOM      3  N   UNL     1       5.768   5.514  16.566  0.00  0.00    +0.000 N 
ATOM      4  C   UNL     1       5.037   6.670  16.518  0.00  0.00    +0.000 A 
ATOM      5  C   UNL     1       3.974   6.483  17.381  0.00  0.00    +0.000 A 
ENDROOT
BRANCH   1  10
ATOM      6  C   UNL     1       2.837   2.845  20.552  0.00  0.00    +0.000 A 
ATOM      7  C   UNL     1       1.459   2.886  20.334  0.00  0.00    +0.000 A 
ATOM      8  C   UNL     1       0.937   3.634  19.282  0.00  0.00    +0.000 A 
ATOM      9  C   UNL     1       1.793   4.340  18.440  0.00  0.00    +0.000 A 
ATOM     10  C   UNL     1       3.177   4.336  18.656  0.00  0.00    +0.000 A 
ATOM     11  C   UNL     1       3.688   3.563  19.707  0.00  0.00    +0.000 A 
BRANCH   6  13
ATOM     12  C   UNL     1       4.732   1.588  21.231  0.00  0.00    +0.000 C 
ATOM     13  O   UNL     1       3.468   2.154  21.551  0.00  0.00    +0.000 OA
ENDBRANCH   6  13
ENDBRANCH   1  10
BRANCH   5  14
ATOM     14  C   UNL     1       3.002   7.463  17.850  0.00  0.00    +0.000 C 
ATOM     15  O   UNL     1       2.640   8.362  17.102  0.00  0.00    +0.000 OA
ATOM     16  N   UNL     1       2.602   7.331  19.177  0.00  0.00    +0.000 N 
ATOM     17  H   UNL     1       3.089   6.649  19.738  0.00  0.00    +0.000 HD
BRANCH  16  18
ATOM     18  C   UNL     1       1.709   8.220  19.834  0.00  0.00    +0.000 A 
ATOM     19  C   UNL     1       1.323   8.045  21.165  0.00  0.00    +0.000 A 
ATOM     20  C   UNL     1       0.394   8.888  21.773  0.00  0.00    +0.000 A 
ATOM     21  C   UNL     1      -0.141   9.944  21.052  0.00  0.00    +0.000 A 
ATOM     22  F   UNL     1      -1.043  10.722  21.668  0.00  0.00    +0.000 F 
ATOM     23  C   UNL     1       0.254  10.180  19.732  0.00  0.00    +0.000 A 
ATOM     24  C   UNL     1       1.184   9.308  19.122  0.00  0.00    +0.000 A 
BRANCH  23  25
ATOM     25  C   UNL     1      -0.288  11.329  18.958  0.00  0.00    +0.000 C 
ATOM     26  N   UNL     1      -0.990  11.061  17.819  0.00  0.00    +0.000 N 
ATOM     27  O   UNL     1      -0.117  12.482  19.335  0.00  0.00    +0.000 OA
ATOM     28  H   UNL     1      -1.154  10.122  17.471  0.00  0.00    +0.000 HD
ATOM     29  H   UNL     1      -1.368  11.841  17.287  0.00  0.00    +0.000 HD
ENDBRANCH  23  25
ENDBRANCH  16  18
ENDBRANCH   5  14
BRANCH   3  30
ATOM     30  C   UNL     1       7.048   5.240  15.920  0.00  0.00    +0.000 C 
BRANCH  30  31
ATOM     31  C   UNL     1       6.878   4.768  14.494  0.00  0.00    +0.000 A 
ATOM     32  C   UNL     1       5.845   3.883  14.145  0.00  0.00    +0.000 A 
ATOM     33  C   UNL     1       5.711   3.424  12.834  0.00  0.00    +0.000 A 
ATOM     34  C   UNL     1       6.592   3.865  11.849  0.00  0.00    +0.000 A 
ATOM     35  C   UNL     1       7.597   4.773  12.172  0.00  0.00    +0.000 A 
ATOM     36  C   UNL     1       7.740   5.225  13.487  0.00  0.00    +0.000 A 
ENDBRANCH  30  31
ENDBRANCH   3  30
TORSDOF 7
ENDMDL
MODEL 4
REMARK VINA RESULT:      -9.0      1.523      1.882
REMARK  Name = 
REMARK  8 active torsions:
REMARK  status: ('A' for Active; 'I' for Inactive)
REMARK    1  A    between atoms: C_1  and  O_2
REMARK    2  A    between atoms: O_2  and  C_3
REMARK    3  A    between atoms: C_7  and  C_8
REMARK    4  A    between atoms: N_10  and  C_11
REMARK    5  A    between atoms: C_11  and  C_12
REMARK    6  A    between atoms: C_19  and  C_20
REMARK    7  A    between atoms: N_22  and  C_23
REMARK    8  A    between atoms: C_28  and  C_29
REMARK                            x       y       z     vdW  Elec       q    Type
REMARK                         _______ _______ _______ _____ _____    ______ ____
ROOT
ATOM      1  C   UNL     1       3.824   5.175  17.809  0.00  0.00    +0.000 A 
ATOM      2  N   UNL     1       4.916   4.702  17.189  0.00  0.00    +0.000 NA
ATOM      3  N   UNL     1       5.558   5.790  16.739  0.00  0.00    +0.000 N 
ATOM      4  C   UNL     1       4.862   6.951  16.941  0.00  0.00    +0.000 A 
ATOM      5  C   UNL     1       3.768   6.607  17.713  0.00  0.00    +0.000 A 
ENDROOT
BRANCH   1  10
ATOM      6  C   UNL     1       2.125   3.025  20.407  0.00  0.00    +0.000 A 
ATOM      7  C   UNL     1       1.038   2.533  19.683  0.00  0.00    +0.000 A 
ATOM      8  C   UNL     1       0.870   2.884  18.346  0.00  0.00    +0.000 A 
ATOM      9  C   UNL     1       1.792   3.724  17.727  0.00  0.00    +0.000 A 
ATOM     10  C   UNL     1       2.874   4.253  18.442  0.00  0.00    +0.000 A 
ATOM     11  C   UNL     1       3.040   3.875  19.781  0.00  0.00    +0.000 A 
BRANCH   6  13
ATOM     12  C   UNL     1       1.309   2.296  22.514  0.00  0.00    +0.000 C 
ATOM     13  O   UNL     1       2.395   2.759  21.723  0.00  0.00    +0.000 OA
ENDBRANCH   6  13
ENDBRANCH   1  10
BRANCH   5  14
ATOM     14  C   UNL     1       2.810   7.486  18.373  0.00  0.00    +0.000 C 
ATOM     15  O   UNL     1       2.509   7.284  19.542  0.00  0.00    +0.000 OA
ATOM     16  N   UNL     1       2.246   8.475  17.572  0.00  0.00    +0.000 N 
ATOM     17  H   UNL     1       2.453   8.441  16.585  0.00  0.00    +0.000 HD
BRANCH  16  18
ATOM     18  C   UNL     1       1.253   9.390  18.013  0.00  0.00    +0.000 A 
ATOM     19  C   UNL     1       1.482  10.304  19.045  0.00  0.00    +0.000 A 
ATOM     20  C   UNL     1       0.475  11.148  19.510  0.00  0.00    +0.000 A 
ATOM     21  C   UNL     1      -0.778  11.103  18.919  0.00  0.00    +0.000 A 
ATOM     22  F   UNL     1      -1.723  11.920  19.406  0.00  0.00    +0.000 F 
ATOM     23  C   UNL     1      -1.034  10.235  17.853  0.00  0.00    +0.000 A 
ATOM     24  C   UNL     1      -0.010   9.372  17.402  0.00  0.00    +0.000 A 
BRANCH  23  25
ATOM     25  C   UNL     1      -2.364  10.200  17.188  0.00  0.00    +0.000 C 
ATOM     26  N   UNL     1      -3.357   9.472  17.777  0.00  0.00    +0.000 N 
ATOM     27  O   UNL     1      -2.567  10.813  16.147  0.00  0.00    +0.000 OA
ATOM     28  H   UNL     1      -3.232   8.951  18.638  0.00  0.00    +0.000 HD
ATOM     29  H   UNL     1      -4.271   9.448  17.332  0.00  0.00    +0.000 HD
ENDBRANCH  23  25
ENDBRANCH  16  18
ENDBRANCH   5  14
BRANCH   3  30
ATOM     30  C   UNL     1       6.850   5.629  16.076  0.00  0.00    +0.000 C 
BRANCH  30  31
ATOM     31  C   UNL     1       6.714   5.002  14.707  0.00  0.00    +0.000 A 
ATOM     32  C   UNL     1       5.632   4.160  14.403  0.00  0.00    +0.000 A 
ATOM     33  C   UNL     1       5.527   3.557  13.148  0.00  0.00    +0.000 A 
ATOM     34  C   UNL     1       6.489   3.808  12.173  0.00  0.00    +0.000 A 
ATOM     35  C   UNL     1       7.547   4.672  12.448  0.00  0.00    +0.000 A 
ATOM     36  C   UNL     1       7.660   5.267  13.707  0.00  0.00    +0.000 A 
ENDBRANCH  30  31
ENDBRANCH   3  30
TORSDOF 7
ENDMDL
MODEL 5
REMARK VINA RESULT:      -9.0      1.632      1.800
REMARK  Name = 
REMARK  8 active torsions:
REMARK  status: ('A' for Active; 'I' for Inactive)
REMARK    1  A    between atoms: C_1  and  O_2
REMARK    2  A    between atoms: O_2  and  C_3
REMARK    3  A    between atoms: C_7  and  C_8
REMARK    4  A    between atoms: N_10  and  C_11
REMARK    5  A    between atoms: C_11  and  C_12
REMARK    6  A    between atoms: C_19  and  C_20
REMARK    7  A    between atoms: N_22  and  C_23
REMARK    8  A    between atoms: C_28  and  C_29
REMARK                            x       y       z     vdW  Elec       q    Type
REMARK                         _______ _______ _______ _____ _____    ______ ____
ROOT
ATOM      1  C   UNL     1       3.784   5.210  17.959  0.00  0.00    +0.000 A 
ATOM      2  N   UNL     1       4.896   4.699  17.407  0.00  0.00    +0.000 NA
ATOM      3  N   UNL     1       5.565   5.760  16.930  0.00  0.00    +0.000 N 
ATOM      4  C   UNL     1       4.872   6.934  17.048  0.00  0.00    +0.000 A 
ATOM      5  C   UNL     1       3.746   6.636  17.792  0.00  0.00    +0.000 A 
ENDROOT
BRANCH   1  10
ATOM      6  C   UNL     1       1.899   3.286  20.606  0.00  0.00    +0.000 A 
ATOM      7  C   UNL     1       0.898   2.685  19.842  0.00  0.00    +0.000 A 
ATOM      8  C   UNL     1       0.849   2.889  18.465  0.00  0.00    +0.000 A 
ATOM      9  C   UNL     1       1.805   3.691  17.847  0.00  0.00    +0.000 A 
ATOM     10  C   UNL     1       2.802   4.327  18.598  0.00  0.00    +0.000 A 
ATOM     11  C   UNL     1       2.849   4.097  19.979  0.00  0.00    +0.000 A 
BRANCH   6  13
ATOM     12  C   UNL     1       1.286   2.155  22.601  0.00  0.00    +0.000 C 
ATOM     13  O   UNL     1       2.051   3.169  21.962  0.00  0.00    +0.000 OA
ENDBRANCH   6  13
ENDBRANCH   1  10
BRANCH   5  14
ATOM     14  C   UNL     1       2.770   7.553  18.369  0.00  0.00    +0.000 C 
ATOM     15  O   UNL     1       2.409   7.401  19.528  0.00  0.00    +0.000 OA
ATOM     16  N   UNL     1       2.264   8.520  17.505  0.00  0.00    +0.000 N 
ATOM     17  H   UNL     1       2.518   8.446  16.532  0.00  0.00    +0.000 HD
BRANCH  16  18
ATOM     18  C   UNL     1       1.265   9.465  17.861  0.00  0.00    +0.000 A 
ATOM     19  C   UNL     1       1.529  10.558  18.691  0.00  0.00    +0.000 A 
ATOM     20  C   UNL     1       0.522  11.437  19.085  0.00  0.00    +0.000 A 
ATOM     21  C   UNL     1      -0.770  11.244  18.621  0.00  0.00    +0.000 A 
ATOM     22  F   UNL     1      -1.712  12.103  19.036  0.00  0.00    +0.000 F 
ATOM     23  C   UNL     1      -1.066  10.189  17.752  0.00  0.00    +0.000 A 
ATOM     24  C   UNL     1      -0.040   9.295  17.374  0.00  0.00    +0.000 A 
BRANCH  23  25
ATOM     25  C   UNL     1      -2.442   9.990  17.222  0.00  0.00    +0.000 C 
ATOM     26  N   UNL     1      -2.674  10.290  15.911  0.00  0.00    +0.000 N 
ATOM     27  O   UNL     1      -3.339   9.560  17.937  0.00  0.00    +0.000 OA
ATOM     28  H   UNL     1      -1.960  10.647  15.285  0.00  0.00    +0.000 HD
ATOM     29  H   UNL     1      -3.610  10.152  15.539  0.00  0.00    +0.000 HD
ENDBRANCH  23  25
ENDBRANCH  16  18
ENDBRANCH   5  14
BRANCH   3  30
ATOM     30  C   UNL     1       6.880   5.557  16.329  0.00  0.00    +0.000 C 
BRANCH  30  31
ATOM     31  C   UNL     1       6.785   5.006  14.924  0.00  0.00    +0.000 A 
ATOM     32  C   UNL     1       7.698   5.399  13.931  0.00  0.00    +0.000 A 
ATOM     33  C   UNL     1       7.587   4.914  12.627  0.00  0.00    +0.000 A 
ATOM     34  C   UNL     1       6.579   4.008  12.305  0.00  0.00    +0.000 A 
ATOM     35  C   UNL     1       5.691   3.580  13.289  0.00  0.00    +0.000 A 
ATOM     36  C   UNL     1       5.792   4.074  14.592  0.00  0.00    +0.000 A 
ENDBRANCH  30  31
ENDBRANCH   3  30
TORSDOF 7
ENDMDL
MODEL 6
REMARK VINA RESULT:      -8.9      1.835      2.505
REMARK  Name = 
REMARK  8 active torsions:
REMARK  status: ('A' for Active; 'I' for Inactive)
REMARK    1  A    between atoms: C_1  and  O_2
REMARK    2  A    between atoms: O_2  and  C_3
REMARK    3  A    between atoms: C_7  and  C_8
REMARK    4  A    between atoms: N_10  and  C_11
REMARK    5  A    between atoms: C_11  and  C_12
REMARK    6  A    between atoms: C_19  and  C_20
REMARK    7  A    between atoms: N_22  and  C_23
REMARK    8  A    between atoms: C_28  and  C_29
REMARK                            x       y       z     vdW  Elec       q    Type
REMARK                         _______ _______ _______ _____ _____    ______ ____
ROOT
ATOM      1  C   UNL     1       4.993   4.424  16.678  0.00  0.00    +0.000 A 
ATOM      2  N   UNL     1       5.670   3.801  15.701  0.00  0.00    +0.000 NA
ATOM      3  N   UNL     1       6.054   4.779  14.867  0.00  0.00    +0.000 N 
ATOM      4  C   UNL     1       5.548   6.005  15.203  0.00  0.00    +0.000 A 
ATOM      5  C   UNL     1       4.925   5.836  16.425  0.00  0.00    +0.000 A 
ENDROOT
BRANCH   1  10
ATOM      6  C   UNL     1       2.613   2.312  18.711  0.00  0.00    +0.000 A 
ATOM      7  C   UNL     1       3.342   2.139  19.888  0.00  0.00    +0.000 A 
ATOM      8  C   UNL     1       4.598   2.726  20.028  0.00  0.00    +0.000 A 
ATOM      9  C   UNL     1       5.125   3.492  18.991  0.00  0.00    +0.000 A 
ATOM     10  C   UNL     1       4.424   3.655  17.790  0.00  0.00    +0.000 A 
ATOM     11  C   UNL     1       3.154   3.075  17.672  0.00  0.00    +0.000 A 
BRANCH   6  13
ATOM     12  C   UNL     1       0.262   2.479  18.995  0.00  0.00    +0.000 C 
ATOM     13  O   UNL     1       1.377   1.784  18.452  0.00  0.00    +0.000 OA
ENDBRANCH   6  13
ENDBRANCH   1  10
BRANCH   5  14
ATOM     14  C   UNL     1       4.392   6.855  17.321  0.00  0.00    +0.000 C 
ATOM     15  O   UNL     1       5.125   7.747  17.727  0.00  0.00    +0.000 OA
ATOM     16  N   UNL     1       3.065   6.686  17.708  0.00  0.00    +0.000 N 
ATOM     17  H   UNL     1       2.613   5.827  17.435  0.00  0.00    +0.000 HD
BRANCH  16  18
ATOM     18  C   UNL     1       2.384   7.538  18.618  0.00  0.00    +0.000 A 
ATOM     19  C   UNL     1       2.152   7.180  19.949  0.00  0.00    +0.000 A 
ATOM     20  C   UNL     1       1.423   7.999  20.809  0.00  0.00    +0.000 A 
ATOM     21  C   UNL     1       0.940   9.213  20.347  0.00  0.00    +0.000 A 
ATOM     22  F   UNL     1       0.231   9.964  21.202  0.00  0.00    +0.000 F 
ATOM     23  C   UNL     1       1.191   9.629  19.036  0.00  0.00    +0.000 A 
ATOM     24  C   UNL     1       1.916   8.782  18.168  0.00  0.00    +0.000 A 
BRANCH  23  25
ATOM     25  C   UNL     1       0.706  10.944  18.537  0.00  0.00    +0.000 C 
ATOM     26  N   UNL     1       1.633  11.852  18.116  0.00  0.00    +0.000 N 
ATOM     27  O   UNL     1      -0.491  11.202  18.496  0.00  0.00    +0.000 OA
ATOM     28  H   UNL     1       2.633  11.679  18.133  0.00  0.00    +0.000 HD
ATOM     29  H   UNL     1       1.309  12.751  17.769  0.00  0.00    +0.000 HD
ENDBRANCH  23  25
ENDBRANCH  16  18
ENDBRANCH   5  14
BRANCH   3  30
ATOM     30  C   UNL     1       6.894   4.445  13.720  0.00  0.00    +0.000 C 
BRANCH  30  31
ATOM     31  C   UNL     1       6.161   3.602  12.702  0.00  0.00    +0.000 A 
ATOM     32  C   UNL     1       4.843   3.909  12.325  0.00  0.00    +0.000 A 
ATOM     33  C   UNL     1       4.158   3.109  11.409  0.00  0.00    +0.000 A 
ATOM     34  C   UNL     1       4.790   2.007  10.838  0.00  0.00    +0.000 A 
ATOM     35  C   UNL     1       6.110   1.713  11.173  0.00  0.00    +0.000 A 
ATOM     36  C   UNL     1       6.794   2.505  12.099  0.00  0.00    +0.000 A 
ENDBRANCH  30  31
ENDBRANCH   3  30
TORSDOF 7
ENDMDL
MODEL 7
REMARK VINA RESULT:      -8.8      1.715      1.813
REMARK  Name = 
REMARK  8 active torsions:
REMARK  status: ('A' for Active; 'I' for Inactive)
REMARK    1  A    between atoms: C_1  and  O_2
REMARK    2  A    between atoms: O_2  and  C_3
REMARK    3  A    between atoms: C_7  and  C_8
REMARK    4  A    between atoms: N_10  and  C_11
REMARK    5  A    between atoms: C_11  and  C_12
REMARK    6  A    between atoms: C_19  and  C_20
REMARK    7  A    between atoms: N_22  and  C_23
REMARK    8  A    between atoms: C_28  and  C_29
REMARK                            x       y       z     vdW  Elec       q    Type
REMARK                         _______ _______ _______ _____ _____    ______ ____
ROOT
ATOM      1  C   UNL     1       3.921   5.148  17.622  0.00  0.00    +0.000 A 
ATOM      2  N   UNL     1       4.993   4.630  17.004  0.00  0.00    +0.000 NA
ATOM      3  N   UNL     1       5.694   5.691  16.576  0.00  0.00    +0.000 N 
ATOM      4  C   UNL     1       5.055   6.882  16.791  0.00  0.00    +0.000 A 
ATOM      5  C   UNL     1       3.939   6.583  17.548  0.00  0.00    +0.000 A 
ENDROOT
BRANCH   1  10
ATOM      6  C   UNL     1       2.180   2.903  20.111  0.00  0.00    +0.000 A 
ATOM      7  C   UNL     1       0.992   2.622  19.436  0.00  0.00    +0.000 A 
ATOM      8  C   UNL     1       0.766   3.145  18.165  0.00  0.00    +0.000 A 
ATOM      9  C   UNL     1       1.731   3.947  17.562  0.00  0.00    +0.000 A 
ATOM     10  C   UNL     1       2.919   4.267  18.232  0.00  0.00    +0.000 A 
ATOM     11  C   UNL     1       3.140   3.718  19.502  0.00  0.00    +0.000 A 
BRANCH   6  13
ATOM     12  C   UNL     1       1.530   2.603  22.374  0.00  0.00    +0.000 C 
ATOM     13  O   UNL     1       2.516   2.456  21.360  0.00  0.00    +0.000 OA
ENDBRANCH   6  13
ENDBRANCH   1  10
BRANCH   5  14
ATOM     14  C   UNL     1       3.020   7.499  18.213  0.00  0.00    +0.000 C 
ATOM     15  O   UNL     1       2.613   7.238  19.338  0.00  0.00    +0.000 OA
ATOM     16  N   UNL     1       2.615   8.600  17.463  0.00  0.00    +0.000 N 
ATOM     17  H   UNL     1       2.893   8.623  16.493  0.00  0.00    +0.000 HD
BRANCH  16  18
ATOM     18  C   UNL     1       1.682   9.573  17.912  0.00  0.00    +0.000 A 
ATOM     19  C   UNL     1       0.307   9.332  17.946  0.00  0.00    +0.000 A 
ATOM     20  C   UNL     1      -0.599  10.321  18.325  0.00  0.00    +0.000 A 
ATOM     21  C   UNL     1      -0.126  11.567  18.707  0.00  0.00    +0.000 A 
ATOM     22  F   UNL     1      -1.031  12.495  19.050  0.00  0.00    +0.000 F 
ATOM     23  C   UNL     1       1.246  11.833  18.731  0.00  0.00    +0.000 A 
ATOM     24  C   UNL     1       2.153  10.828  18.327  0.00  0.00    +0.000 A 
BRANCH  23  25
ATOM     25  C   UNL     1       1.768  13.155  19.169  0.00  0.00    +0.000 C 
ATOM     26  N   UNL     1       1.668  13.479  20.491  0.00  0.00    +0.000 N 
ATOM     27  O   UNL     1       2.281  13.929  18.369  0.00  0.00    +0.000 OA
ATOM     28  H   UNL     1       1.252  12.868  21.185  0.00  0.00    +0.000 HD
ATOM     29  H   UNL     1       2.028  14.378  20.799  0.00  0.00    +0.000 HD
ENDBRANCH  23  25
ENDBRANCH  16  18
ENDBRANCH   5  14
BRANCH   3  30
ATOM     30  C   UNL     1       6.981   5.474  15.923  0.00  0.00    +0.000 C 
BRANCH  30  31
ATOM     31  C   UNL     1       6.826   4.887  14.538  0.00  0.00    +0.000 A 
ATOM     32  C   UNL     1       7.700   5.246  13.500  0.00  0.00    +0.000 A 
ATOM     33  C   UNL     1       7.534   4.726  12.214  0.00  0.00    +0.000 A 
ATOM     34  C   UNL     1       6.507   3.821  11.958  0.00  0.00    +0.000 A 
ATOM     35  C   UNL     1       5.657   3.426  12.988  0.00  0.00    +0.000 A 
ATOM     36  C   UNL     1       5.814   3.953  14.272  0.00  0.00    +0.000 A 
ENDBRANCH  30  31
ENDBRANCH   3  30
TORSDOF 7
ENDMDL
MODEL 8
REMARK VINA RESULT:      -8.7      1.917      2.660
REMARK  Name = 
REMARK  8 active torsions:
REMARK  status: ('A' for Active; 'I' for Inactive)
REMARK    1  A    between atoms: C_1  and  O_2
REMARK    2  A    between atoms: O_2  and  C_3
REMARK    3  A    between atoms: C_7  and  C_8
REMARK    4  A    between atoms: N_10  and  C_11
REMARK    5  A    between atoms: C_11  and  C_12
REMARK    6  A    between atoms: C_19  and  C_20
REMARK    7  A    between atoms: N_22  and  C_23
REMARK    8  A    between atoms: C_28  and  C_29
REMARK                            x       y       z     vdW  Elec       q    Type
REMARK                         _______ _______ _______ _____ _____    ______ ____
ROOT
ATOM      1  C   UNL     1       4.346   4.604  16.788  0.00  0.00    +0.000 A 
ATOM      2  N   UNL     1       5.035   3.836  15.931  0.00  0.00    +0.000 NA
ATOM      3  N   UNL     1       5.757   4.697  15.197  0.00  0.00    +0.000 N 
ATOM      4  C   UNL     1       5.471   6.007  15.466  0.00  0.00    +0.000 A 
ATOM      5  C   UNL     1       4.623   5.995  16.557  0.00  0.00    +0.000 A 
ENDROOT
BRANCH   1  10
ATOM      6  C   UNL     1       3.104   2.810  19.871  0.00  0.00    +0.000 A 
ATOM      7  C   UNL     1       1.723   2.866  19.679  0.00  0.00    +0.000 A 
ATOM      8  C   UNL     1       1.198   3.468  18.538  0.00  0.00    +0.000 A 
ATOM      9  C   UNL     1       2.053   4.012  17.583  0.00  0.00    +0.000 A 
ATOM     10  C   UNL     1       3.441   3.993  17.769  0.00  0.00    +0.000 A 
ATOM     11  C   UNL     1       3.955   3.367  18.912  0.00  0.00    +0.000 A 
BRANCH   6  13
ATOM     12  C   UNL     1       5.017   1.678  20.705  0.00  0.00    +0.000 C 
ATOM     13  O   UNL     1       3.740   2.254  20.948  0.00  0.00    +0.000 OA
ENDBRANCH   6  13
ENDBRANCH   1  10
BRANCH   5  14
ATOM     14  C   UNL     1       4.170   7.118  17.368  0.00  0.00    +0.000 C 
ATOM     15  O   UNL     1       4.981   7.756  18.026  0.00  0.00    +0.000 OA
ATOM     16  N   UNL     1       2.796   7.340  17.380  0.00  0.00    +0.000 N 
ATOM     17  H   UNL     1       2.215   6.651  16.927  0.00  0.00    +0.000 HD
BRANCH  16  18
ATOM     18  C   UNL     1       2.156   8.346  18.152  0.00  0.00    +0.000 A 
ATOM     19  C   UNL     1       1.939   9.638  17.667  0.00  0.00    +0.000 A 
ATOM     20  C   UNL     1       1.371  10.632  18.463  0.00  0.00    +0.000 A 
ATOM     21  C   UNL     1       0.983  10.328  19.758  0.00  0.00    +0.000 A 
ATOM     22  F   UNL     1       0.454  11.316  20.495  0.00  0.00    +0.000 F 
ATOM     23  C   UNL     1       1.141   9.034  20.266  0.00  0.00    +0.000 A 
ATOM     24  C   UNL     1       1.734   8.041  19.455  0.00  0.00    +0.000 A 
BRANCH  23  25
ATOM     25  C   UNL     1       0.699   8.687  21.643  0.00  0.00    +0.000 C 
ATOM     26  N   UNL     1       1.566   8.914  22.672  0.00  0.00    +0.000 N 
ATOM     27  O   UNL     1      -0.414   8.218  21.850  0.00  0.00    +0.000 OA
ATOM     28  H   UNL     1       2.496   9.300  22.544  0.00  0.00    +0.000 HD
ATOM     29  H   UNL     1       1.270   8.684  23.617  0.00  0.00    +0.000 HD
ENDBRANCH  23  25
ENDBRANCH  16  18
ENDBRANCH   5  14
BRANCH   3  30
ATOM     30  C   UNL     1       6.694   4.172  14.208  0.00  0.00    +0.000 C 
BRANCH  30  31
ATOM     31  C   UNL     1       5.986   3.560  13.020  0.00  0.00    +0.000 A 
ATOM     32  C   UNL     1       4.709   3.998  12.636  0.00  0.00    +0.000 A 
ATOM     33  C   UNL     1       4.045   3.408  11.559  0.00  0.00    +0.000 A 
ATOM     34  C   UNL     1       4.661   2.390  10.836  0.00  0.00    +0.000 A 
ATOM     35  C   UNL     1       5.944   1.972  11.181  0.00  0.00    +0.000 A 
ATOM     36  C   UNL     1       6.605   2.552  12.266  0.00  0.00    +0.000 A 
ENDBRANCH  30  31
ENDBRANCH   3  30
TORSDOF 7
ENDMDL
MODEL 9
REMARK VINA RESULT:      -8.6      4.516      7.818
REMARK  Name = 
REMARK  8 active torsions:
REMARK  status: ('A' for Active; 'I' for Inactive)
REMARK    1  A    between atoms: C_1  and  O_2
REMARK    2  A    between atoms: O_2  and  C_3
REMARK    3  A    between atoms: C_7  and  C_8
REMARK    4  A    between atoms: N_10  and  C_11
REMARK    5  A    between atoms: C_11  and  C_12
REMARK    6  A    between atoms: C_19  and  C_20
REMARK    7  A    between atoms: N_22  and  C_23
REMARK    8  A    between atoms: C_28  and  C_29
REMARK                            x       y       z     vdW  Elec       q    Type
REMARK                         _______ _______ _______ _____ _____    ______ ____
ROOT
ATOM      1  C   UNL     1      -0.698  10.564  18.115  0.00  0.00    +0.000 A 
ATOM      2  N   UNL     1       0.147   9.654  17.606  0.00  0.00    +0.000 NA
ATOM      3  N   UNL     1       1.280   9.801  18.311  0.00  0.00    +0.000 N 
ATOM      4  C   UNL     1       1.241  10.856  19.182  0.00  0.00    +0.000 A 
ATOM      5  C   UNL     1      -0.059  11.325  19.152  0.00  0.00    +0.000 A 
ENDROOT
BRANCH   1  10
ATOM      6  C   UNL     1      -4.434  11.095  17.952  0.00  0.00    +0.000 A 
ATOM      7  C   UNL     1      -4.665  10.975  16.581  0.00  0.00    +0.000 A 
ATOM      8  C   UNL     1      -3.610  10.701  15.714  0.00  0.00    +0.000 A 
ATOM      9  C   UNL     1      -2.321  10.542  16.216  0.00  0.00    +0.000 A 
ATOM     10  C   UNL     1      -2.061  10.686  17.585  0.00  0.00    +0.000 A 
ATOM     11  C   UNL     1      -3.136  10.943  18.447  0.00  0.00    +0.000 A 
BRANCH   6  13
ATOM     12  C   UNL     1      -6.696  11.634  18.430  0.00  0.00    +0.000 C 
ATOM     13  O   UNL     1      -5.381  11.367  18.902  0.00  0.00    +0.000 OA
ENDBRANCH   6  13
ENDBRANCH   1  10
BRANCH   5  14
ATOM     14  C   UNL     1      -0.691  12.306  20.026  0.00  0.00    +0.000 C 
ATOM     15  O   UNL     1      -0.871  13.448  19.623  0.00  0.00    +0.000 OA
ATOM     16  N   UNL     1      -0.987  11.868  21.313  0.00  0.00    +0.000 N 
ATOM     17  H   UNL     1      -0.646  10.956  21.578  0.00  0.00    +0.000 HD
BRANCH  16  18
ATOM     18  C   UNL     1      -1.549  12.689  22.327  0.00  0.00    +0.000 A 
ATOM     19  C   UNL     1      -0.832  13.717  22.942  0.00  0.00    +0.000 A 
ATOM     20  C   UNL     1      -1.377  14.468  23.982  0.00  0.00    +0.000 A 
ATOM     21  C   UNL     1      -2.673  14.212  24.400  0.00  0.00    +0.000 A 
ATOM     22  F   UNL     1      -3.155  14.946  25.413  0.00  0.00    +0.000 F 
ATOM     23  C   UNL     1      -3.441  13.222  23.779  0.00  0.00    +0.000 A 
ATOM     24  C   UNL     1      -2.871  12.456  22.738  0.00  0.00    +0.000 A 
BRANCH  23  25
ATOM     25  C   UNL     1      -4.845  12.958  24.196  0.00  0.00    +0.000 C 
ATOM     26  N   UNL     1      -5.776  13.928  23.964  0.00  0.00    +0.000 N 
ATOM     27  O   UNL     1      -5.158  11.898  24.725  0.00  0.00    +0.000 OA
ATOM     28  H   UNL     1      -5.559  14.819  23.529  0.00  0.00    +0.000 HD
ATOM     29  H   UNL     1      -6.738  13.754  24.241  0.00  0.00    +0.000 HD
ENDBRANCH  23  25
ENDBRANCH  16  18
ENDBRANCH   5  14
BRANCH   3  30
ATOM     30  C   UNL     1       2.395   8.893  18.059  0.00  0.00    +0.000 C 
BRANCH  30  31
ATOM     31  C   UNL     1       2.230   7.575  18.780  0.00  0.00    +0.000 A 
ATOM     32  C   UNL     1       2.468   6.357  18.122  0.00  0.00    +0.000 A 
ATOM     33  C   UNL     1       2.284   5.141  18.782  0.00  0.00    +0.000 A 
ATOM     34  C   UNL     1       1.885   5.127  20.116  0.00  0.00    +0.000 A 
ATOM     35  C   UNL     1       1.683   6.327  20.793  0.00  0.00    +0.000 A 
ATOM     36  C   UNL     1       1.855   7.545  20.131  0.00  0.00    +0.000 A 
ENDBRANCH  30  31
ENDBRANCH   3  30
TORSDOF 7
ENDMDL
