MODEL 1
REMARK VINA RESULT:      -8.3      0.000      0.000
REMARK  Name = 
REMARK  9 active torsions:
REMARK  status: ('A' for Active; 'I' for Inactive)
REMARK    1  A    between atoms: C_2  and  C_3
REMARK    2  A    between atoms: C_2  and  C_6
REMARK    3  A    between atoms: C_10  and  C_11
REMARK    4  A    between atoms: N_13  and  C_14
REMARK    5  A    between atoms: C_18  and  C_19
REMARK    6  A    between atoms: C_19  and  C_20
REMARK    7  A    between atoms: C_19  and  C_21
REMARK    8  A    between atoms: C_21  and  C_22
REMARK    9  A    between atoms: N_26  and  C_27
REMARK                            x       y       z     vdW  Elec       q    Type
REMARK                         _______ _______ _______ _____ _____    ______ ____
ROOT
ATOM      1  C   UNL     1       2.043   8.505  18.189  0.00  0.00    +0.000 C 
ATOM      2  O   UNL     1       2.450   9.054  17.163  0.00  0.00    +0.000 OA
ATOM      3  N   UNL     1       1.048   8.970  19.035  0.00  0.00    +0.000 N 
ATOM      4  H   UNL     1       0.919   8.442  19.897  0.00  0.00    +0.000 HD
ENDROOT
BRANCH   1   9
ATOM      5  C   UNL     1       4.246   5.432  18.173  0.00  0.00    +0.000 A 
ATOM      6  C   UNL     1       3.856   4.878  19.393  0.00  0.00    +0.000 A 
ATOM      7  C   UNL     1       2.887   5.528  20.146  0.00  0.00    +0.000 A 
ATOM      8  N   UNL     1       2.294   6.686  19.784  0.00  0.00    +0.000 NA
ATOM      9  C   UNL     1       2.697   7.218  18.601  0.00  0.00    +0.000 A 
ATOM     10  C   UNL     1       3.661   6.635  17.775  0.00  0.00    +0.000 A 
BRANCH   5  12
ATOM     11  C   UNL     1       4.950   4.078  16.248  0.00  0.00    +0.000 C 
ATOM     12  C   UNL     1       5.268   4.768  17.356  0.00  0.00    +0.000 C 
BRANCH  12  13
ATOM     13  C   UNL     1       6.670   4.838  17.639  0.00  0.00    +0.000 C 
ATOM     14  N   UNL     1       7.855   4.515  17.378  0.00  0.00    +0.000 NA
ATOM     15  C   UNL     1       7.559   5.450  18.530  0.00  0.00    +0.000 C 
ENDBRANCH  12  13
ENDBRANCH   5  12
ENDBRANCH   1   9
BRANCH   3  16
ATOM     16  C   UNL     1       0.284  10.149  18.855  0.00  0.00    +0.000 A 
ATOM     17  C   UNL     1       0.638  11.365  19.440  0.00  0.00    +0.000 A 
ATOM     18  C   UNL     1      -0.167  12.495  19.289  0.00  0.00    +0.000 A 
ATOM     19  C   UNL     1      -1.335  12.429  18.534  0.00  0.00    +0.000 A 
ATOM     20  C   UNL     1      -1.694  11.234  17.893  0.00  0.00    +0.000 A 
ATOM     21  C   UNL     1      -0.867  10.100  18.059  0.00  0.00    +0.000 A 
BRANCH  20  22
ATOM     22  C   UNL     1      -2.925  11.143  16.996  0.00  0.00    +0.000 C 
ATOM     23  C   UNL     1      -2.630  10.393  15.689  0.00  0.00    +0.000 C 
BRANCH  22  24
ATOM     24  C   UNL     1      -4.130  10.499  17.717  0.00  0.00    +0.000 C 
BRANCH  24  25
ATOM     25  C   UNL     1      -5.349  11.362  17.697  0.00  0.00    +0.000 A 
ATOM     26  N   UNL     1      -5.505  12.470  16.998  0.00  0.00    +0.000 NA
ATOM     27  N   UNL     1      -6.768  12.957  17.237  0.00  0.00    +0.000 NA
ATOM     28  C   UNL     1      -7.359  12.133  18.070  0.00  0.00    +0.000 A 
ATOM     29  N   UNL     1      -6.509  11.118  18.384  0.00  0.00    +0.000 N 
ATOM     30  C   UNL     1      -6.809  10.012  19.254  0.00  0.00    +0.000 C 
ENDBRANCH  24  25
ENDBRANCH  22  24
ENDBRANCH  20  22
ENDBRANCH   3  16
TORSDOF 7
ENDMDL
MODEL 2
REMARK VINA RESULT:      -8.3      3.840      7.224
REMARK  Name = 
REMARK  9 active torsions:
REMARK  status: ('A' for Active; 'I' for Inactive)
REMARK    1  A    between atoms: C_2  and  C_3
REMARK    2  A    between atoms: C_2  and  C_6
REMARK    3  A    between atoms: C_10  and  C_11
REMARK    4  A    between atoms: N_13  and  C_14
REMARK    5  A    between atoms: C_18  and  C_19
REMARK    6  A    between atoms: C_19  and  C_20
REMARK    7  A    between atoms: C_19  and  C_21
REMARK    8  A    between atoms: C_21  and  C_22
REMARK    9  A    between atoms: N_26  and  C_27
REMARK                            x       y       z     vdW  Elec       q    Type
REMARK                         _______ _______ _______ _____ _____    ______ ____
ROOT
ATOM      1  C   UNL     1       5.635   5.394  15.994  0.00  0.00    +0.000 C 
ATOM      2  O   UNL     1       5.962   6.497  16.436  0.00  0.00    +0.000 OA
ATOM      3  N   UNL     1       4.788   4.480  16.601  0.00  0.00    +0.000 N 
ATOM      4  H   UNL     1       4.719   3.571  16.143  0.00  0.00    +0.000 HD
ENDROOT
BRANCH   1   9
ATOM      5  C   UNL     1       6.105   3.667  12.664  0.00  0.00    +0.000 A 
ATOM      6  C   UNL     1       7.343   4.207  12.311  0.00  0.00    +0.000 A 
ATOM      7  C   UNL     1       7.963   5.092  13.184  0.00  0.00    +0.000 A 
ATOM      8  N   UNL     1       7.438   5.487  14.364  0.00  0.00    +0.000 NA
ATOM      9  C   UNL     1       6.226   4.962  14.684  0.00  0.00    +0.000 A 
ATOM     10  C   UNL     1       5.530   4.064  13.872  0.00  0.00    +0.000 A 
BRANCH   5  12
ATOM     11  C   UNL     1       4.175   2.947  11.326  0.00  0.00    +0.000 C 
ATOM     12  C   UNL     1       5.427   2.730  11.761  0.00  0.00    +0.000 C 
BRANCH  12  13
ATOM     13  C   UNL     1       6.048   1.549  11.240  0.00  0.00    +0.000 C 
ATOM     14  N   UNL     1       6.903   0.998  10.505  0.00  0.00    +0.000 NA
ATOM     15  C   UNL     1       5.974   0.156  11.351  0.00  0.00    +0.000 C 
ENDBRANCH  12  13
ENDBRANCH   5  12
ENDBRANCH   1   9
BRANCH   3  16
ATOM     16  C   UNL     1       4.107   4.662  17.829  0.00  0.00    +0.000 A 
ATOM     17  C   UNL     1       3.953   3.632  18.757  0.00  0.00    +0.000 A 
ATOM     18  C   UNL     1       3.226   3.829  19.933  0.00  0.00    +0.000 A 
ATOM     19  C   UNL     1       2.655   5.068  20.206  0.00  0.00    +0.000 A 
ATOM     20  C   UNL     1       2.833   6.138  19.316  0.00  0.00    +0.000 A 
ATOM     21  C   UNL     1       3.569   5.919  18.130  0.00  0.00    +0.000 A 
BRANCH  20  22
ATOM     22  C   UNL     1       2.287   7.530  19.617  0.00  0.00    +0.000 C 
ATOM     23  C   UNL     1       2.170   8.390  18.349  0.00  0.00    +0.000 C 
BRANCH  22  24
ATOM     24  C   UNL     1       0.928   7.482  20.351  0.00  0.00    +0.000 C 
BRANCH  24  25
ATOM     25  C   UNL     1       0.682   8.688  21.198  0.00  0.00    +0.000 A 
ATOM     26  N   UNL     1       1.152   8.893  22.414  0.00  0.00    +0.000 NA
ATOM     27  N   UNL     1       0.716  10.124  22.843  0.00  0.00    +0.000 NA
ATOM     28  C   UNL     1      -0.004  10.647  21.879  0.00  0.00    +0.000 A 
ATOM     29  N   UNL     1      -0.052   9.785  20.828  0.00  0.00    +0.000 N 
ATOM     30  C   UNL     1      -0.731  10.018  19.582  0.00  0.00    +0.000 C 
ENDBRANCH  24  25
ENDBRANCH  22  24
ENDBRANCH  20  22
ENDBRANCH   3  16
TORSDOF 7
ENDMDL
MODEL 3
REMARK VINA RESULT:      -8.2      3.559     10.501
REMARK  Name = 
REMARK  9 active torsions:
REMARK  status: ('A' for Active; 'I' for Inactive)
REMARK    1  A    between atoms: C_2  and  C_3
REMARK    2  A    between atoms: C_2  and  C_6
REMARK    3  A    between atoms: C_10  and  C_11
REMARK    4  A    between atoms: N_13  and  C_14
REMARK    5  A    between atoms: C_18  and  C_19
REMARK    6  A    between atoms: C_19  and  C_20
REMARK    7  A    between atoms: C_19  and  C_21
REMARK    8  A    between atoms: C_21  and  C_22
REMARK    9  A    between atoms: N_26  and  C_27
REMARK                            x       y       z     vdW  Elec       q    Type
REMARK                         _______ _______ _______ _____ _____    ______ ____
ROOT
ATOM      1  C   UNL     1       2.204   8.075  18.573  0.00  0.00    +0.000 C 
ATOM      2  O   UNL     1       2.717   8.204  17.460  0.00  0.00    +0.000 OA
ATOM      3  N   UNL     1       2.366   7.003  19.437  0.00  0.00    +0.000 N 
ATOM      4  H   UNL     1       1.776   7.014  20.269  0.00  0.00    +0.000 HD
ENDROOT
BRANCH   1   9
ATOM      5  C   UNL     1       0.083  10.254  20.820  0.00  0.00    +0.000 A 
ATOM      6  C   UNL     1      -0.397  11.151  19.864  0.00  0.00    +0.000 A 
ATOM      7  C   UNL     1      -0.015  10.987  18.539  0.00  0.00    +0.000 A 
ATOM      8  N   UNL     1       0.814  10.014  18.102  0.00  0.00    +0.000 NA
ATOM      9  C   UNL     1       1.283   9.160  19.049  0.00  0.00    +0.000 A 
ATOM     10  C   UNL     1       0.952   9.244  20.403  0.00  0.00    +0.000 A 
BRANCH   5  12
ATOM     11  C   UNL     1      -0.056   9.443  23.134  0.00  0.00    +0.000 C 
ATOM     12  C   UNL     1      -0.303  10.403  22.228  0.00  0.00    +0.000 C 
BRANCH  12  13
ATOM     13  C   UNL     1      -0.921  11.582  22.755  0.00  0.00    +0.000 C 
ATOM     14  N   UNL     1      -0.838  12.748  23.213  0.00  0.00    +0.000 NA
ATOM     15  C   UNL     1      -2.190  12.090  23.053  0.00  0.00    +0.000 C 
ENDBRANCH  12  13
ENDBRANCH   5  12
ENDBRANCH   1   9
BRANCH   3  16
ATOM     16  C   UNL     1       3.185   5.870  19.216  0.00  0.00    +0.000 A 
ATOM     17  C   UNL     1       2.981   4.659  19.879  0.00  0.00    +0.000 A 
ATOM     18  C   UNL     1       3.842   3.579  19.681  0.00  0.00    +0.000 A 
ATOM     19  C   UNL     1       4.915   3.689  18.800  0.00  0.00    +0.000 A 
ATOM     20  C   UNL     1       5.119   4.876  18.082  0.00  0.00    +0.000 A 
ATOM     21  C   UNL     1       4.238   5.959  18.298  0.00  0.00    +0.000 A 
BRANCH  20  22
ATOM     22  C   UNL     1       6.237   5.008  17.052  0.00  0.00    +0.000 C 
ATOM     23  C   UNL     1       7.591   4.542  17.610  0.00  0.00    +0.000 C 
BRANCH  22  24
ATOM     24  C   UNL     1       5.918   4.258  15.739  0.00  0.00    +0.000 C 
BRANCH  24  25
ATOM     25  C   UNL     1       6.768   4.704  14.594  0.00  0.00    +0.000 A 
ATOM     26  N   UNL     1       7.779   5.549  14.659  0.00  0.00    +0.000 NA
ATOM     27  N   UNL     1       8.311   5.683  13.399  0.00  0.00    +0.000 NA
ATOM     28  C   UNL     1       7.619   4.913  12.593  0.00  0.00    +0.000 A 
ATOM     29  N   UNL     1       6.643   4.278  13.298  0.00  0.00    +0.000 N 
ATOM     30  C   UNL     1       5.697   3.338  12.760  0.00  0.00    +0.000 C 
ENDBRANCH  24  25
ENDBRANCH  22  24
ENDBRANCH  20  22
ENDBRANCH   3  16
TORSDOF 7
ENDMDL
MODEL 4
REMARK VINA RESULT:      -8.2      2.069      3.121
REMARK  Name = 
REMARK  9 active torsions:
REMARK  status: ('A' for Active; 'I' for Inactive)
REMARK    1  A    between atoms: C_2  and  C_3
REMARK    2  A    between atoms: C_2  and  C_6
REMARK    3  A    between atoms: C_10  and  C_11
REMARK    4  A    between atoms: N_13  and  C_14
REMARK    5  A    between atoms: C_18  and  C_19
REMARK    6  A    between atoms: C_19  and  C_20
REMARK    7  A    between atoms: C_19  and  C_21
REMARK    8  A    between atoms: C_21  and  C_22
REMARK    9  A    between atoms: N_26  and  C_27
REMARK                            x       y       z     vdW  Elec       q    Type
REMARK                         _______ _______ _______ _____ _____    ______ ____
ROOT
ATOM      1  C   UNL     1       2.254   6.157  19.680  0.00  0.00    +0.000 C 
ATOM      2  O   UNL     1       1.787   5.558  20.650  0.00  0.00    +0.000 OA
ATOM      3  N   UNL     1       2.113   7.507  19.398  0.00  0.00    +0.000 N 
ATOM      4  H   UNL     1       2.473   7.808  18.492  0.00  0.00    +0.000 HD
ENDROOT
BRANCH   1   9
ATOM      5  C   UNL     1       4.914   5.121  17.201  0.00  0.00    +0.000 A 
ATOM      6  C   UNL     1       4.404   3.872  16.842  0.00  0.00    +0.000 A 
ATOM      7  C   UNL     1       3.214   3.444  17.416  0.00  0.00    +0.000 A 
ATOM      8  N   UNL     1       2.510   4.154  18.324  0.00  0.00    +0.000 NA
ATOM      9  C   UNL     1       3.030   5.359  18.672  0.00  0.00    +0.000 A 
ATOM     10  C   UNL     1       4.217   5.875  18.145  0.00  0.00    +0.000 A 
BRANCH   5  12
ATOM     11  C   UNL     1       6.619   5.140  15.432  0.00  0.00    +0.000 C 
ATOM     12  C   UNL     1       6.169   5.600  16.611  0.00  0.00    +0.000 C 
BRANCH  12  13
ATOM     13  C   UNL     1       6.983   6.617  17.208  0.00  0.00    +0.000 C 
ATOM     14  N   UNL     1       7.462   7.777  17.202  0.00  0.00    +0.000 NA
ATOM     15  C   UNL     1       7.784   6.828  18.336  0.00  0.00    +0.000 C 
ENDBRANCH  12  13
ENDBRANCH   5  12
ENDBRANCH   1   9
BRANCH   3  16
ATOM     16  C   UNL     1       1.436   8.459  20.197  0.00  0.00    +0.000 A 
ATOM     17  C   UNL     1       1.527   8.466  21.589  0.00  0.00    +0.000 A 
ATOM     18  C   UNL     1       0.801   9.383  22.351  0.00  0.00    +0.000 A 
ATOM     19  C   UNL     1      -0.017  10.321  21.728  0.00  0.00    +0.000 A 
ATOM     20  C   UNL     1      -0.093  10.372  20.328  0.00  0.00    +0.000 A 
ATOM     21  C   UNL     1       0.648   9.434  19.575  0.00  0.00    +0.000 A 
BRANCH  20  22
ATOM     22  C   UNL     1      -0.918  11.434  19.608  0.00  0.00    +0.000 C 
ATOM     23  C   UNL     1      -0.200  12.792  19.568  0.00  0.00    +0.000 C 
BRANCH  22  24
ATOM     24  C   UNL     1      -1.313  11.001  18.178  0.00  0.00    +0.000 C 
BRANCH  24  25
ATOM     25  C   UNL     1      -2.750  11.268  17.866  0.00  0.00    +0.000 A 
ATOM     26  N   UNL     1      -3.645  11.768  18.696  0.00  0.00    +0.000 NA
ATOM     27  N   UNL     1      -4.841  11.877  18.026  0.00  0.00    +0.000 NA
ATOM     28  C   UNL     1      -4.648  11.447  16.801  0.00  0.00    +0.000 A 
ATOM     29  N   UNL     1      -3.353  11.057  16.654  0.00  0.00    +0.000 N 
ATOM     30  C   UNL     1      -2.763  10.548  15.446  0.00  0.00    +0.000 C 
ENDBRANCH  24  25
ENDBRANCH  22  24
ENDBRANCH  20  22
ENDBRANCH   3  16
TORSDOF 7
ENDMDL
MODEL 5
REMARK VINA RESULT:      -8.2      2.079      3.164
REMARK  Name = 
REMARK  9 active torsions:
REMARK  status: ('A' for Active; 'I' for Inactive)
REMARK    1  A    between atoms: C_2  and  C_3
REMARK    2  A    between atoms: C_2  and  C_6
REMARK    3  A    between atoms: C_10  and  C_11
REMARK    4  A    between atoms: N_13  and  C_14
REMARK    5  A    between atoms: C_18  and  C_19
REMARK    6  A    between atoms: C_19  and  C_20
REMARK    7  A    between atoms: C_19  and  C_21
REMARK    8  A    between atoms: C_21  and  C_22
REMARK    9  A    between atoms: N_26  and  C_27
REMARK                            x       y       z     vdW  Elec       q    Type
REMARK                         _______ _______ _______ _____ _____    ______ ____
ROOT
ATOM      1  C   UNL     1       2.214   6.163  20.107  0.00  0.00    +0.000 C 
ATOM      2  O   UNL     1       1.415   5.531  20.800  0.00  0.00    +0.000 OA
ATOM      3  N   UNL     1       2.240   7.538  19.924  0.00  0.00    +0.000 N 
ATOM      4  H   UNL     1       2.902   7.877  19.227  0.00  0.00    +0.000 HD
ENDROOT
BRANCH   1   9
ATOM      5  C   UNL     1       5.129   5.319  17.852  0.00  0.00    +0.000 A 
ATOM      6  C   UNL     1       5.119   3.930  17.993  0.00  0.00    +0.000 A 
ATOM      7  C   UNL     1       4.153   3.345  18.802  0.00  0.00    +0.000 A 
ATOM      8  N   UNL     1       3.217   4.036  19.488  0.00  0.00    +0.000 NA
ATOM      9  C   UNL     1       3.252   5.387  19.350  0.00  0.00    +0.000 A 
ATOM     10  C   UNL     1       4.181   6.063  18.557  0.00  0.00    +0.000 A 
BRANCH   5  12
ATOM     11  C   UNL     1       6.729   7.117  17.361  0.00  0.00    +0.000 C 
ATOM     12  C   UNL     1       6.137   5.966  17.004  0.00  0.00    +0.000 C 
BRANCH  12  13
ATOM     13  C   UNL     1       6.600   5.409  15.769  0.00  0.00    +0.000 C 
ATOM     14  N   UNL     1       7.538   5.047  15.017  0.00  0.00    +0.000 NA
ATOM     15  C   UNL     1       6.102   4.885  14.571  0.00  0.00    +0.000 C 
ENDBRANCH  12  13
ENDBRANCH   5  12
ENDBRANCH   1   9
BRANCH   3  16
ATOM     16  C   UNL     1       1.373   8.476  20.534  0.00  0.00    +0.000 A 
ATOM     17  C   UNL     1       1.155   8.507  21.912  0.00  0.00    +0.000 A 
ATOM     18  C   UNL     1       0.251   9.408  22.475  0.00  0.00    +0.000 A 
ATOM     19  C   UNL     1      -0.441  10.306  21.668  0.00  0.00    +0.000 A 
ATOM     20  C   UNL     1      -0.209  10.334  20.285  0.00  0.00    +0.000 A 
ATOM     21  C   UNL     1       0.710   9.412  19.733  0.00  0.00    +0.000 A 
BRANCH  20  22
ATOM     22  C   UNL     1      -0.890  11.354  19.378  0.00  0.00    +0.000 C 
ATOM     23  C   UNL     1       0.060  12.493  18.978  0.00  0.00    +0.000 C 
BRANCH  22  24
ATOM     24  C   UNL     1      -1.497  10.703  18.114  0.00  0.00    +0.000 C 
BRANCH  24  25
ATOM     25  C   UNL     1      -2.893  11.160  17.839  0.00  0.00    +0.000 A 
ATOM     26  N   UNL     1      -3.731  11.670  18.720  0.00  0.00    +0.000 NA
ATOM     27  N   UNL     1      -4.903  11.981  18.072  0.00  0.00    +0.000 NA
ATOM     28  C   UNL     1      -4.753  11.660  16.808  0.00  0.00    +0.000 A 
ATOM     29  N   UNL     1      -3.509  11.145  16.615  0.00  0.00    +0.000 N 
ATOM     30  C   UNL     1      -2.972  10.699  15.358  0.00  0.00    +0.000 C 
ENDBRANCH  24  25
ENDBRANCH  22  24
ENDBRANCH  20  22
ENDBRANCH   3  16
TORSDOF 7
ENDMDL
MODEL 6
REMARK VINA RESULT:      -8.1      2.193      3.621
REMARK  Name = 
REMARK  9 active torsions:
REMARK  status: ('A' for Active; 'I' for Inactive)
REMARK    1  A    between atoms: C_2  and  C_3
REMARK    2  A    between atoms: C_2  and  C_6
REMARK    3  A    between atoms: C_10  and  C_11
REMARK    4  A    between atoms: N_13  and  C_14
REMARK    5  A    between atoms: C_18  and  C_19
REMARK    6  A    between atoms: C_19  and  C_20
REMARK    7  A    between atoms: C_19  and  C_21
REMARK    8  A    between atoms: C_21  and  C_22
REMARK    9  A    between atoms: N_26  and  C_27
REMARK                            x       y       z     vdW  Elec       q    Type
REMARK                         _______ _______ _______ _____ _____    ______ ____
ROOT
ATOM      1  C   UNL     1       2.232   8.155  18.641  0.00  0.00    +0.000 C 
ATOM      2  O   UNL     1       2.181   9.170  17.944  0.00  0.00    +0.000 OA
ATOM      3  N   UNL     1       1.696   7.998  19.910  0.00  0.00    +0.000 N 
ATOM      4  H   UNL     1       1.932   7.127  20.384  0.00  0.00    +0.000 HD
ENDROOT
BRANCH   1   9
ATOM      5  C   UNL     1       3.218   4.590  17.857  0.00  0.00    +0.000 A 
ATOM      6  C   UNL     1       4.353   4.842  17.085  0.00  0.00    +0.000 A 
ATOM      7  C   UNL     1       4.743   6.159  16.875  0.00  0.00    +0.000 A 
ATOM      8  N   UNL     1       4.083   7.233  17.360  0.00  0.00    +0.000 NA
ATOM      9  C   UNL     1       2.972   6.968  18.096  0.00  0.00    +0.000 A 
ATOM     10  C   UNL     1       2.506   5.679  18.364  0.00  0.00    +0.000 A 
BRANCH   5  12
ATOM     11  C   UNL     1       3.579   2.160  17.836  0.00  0.00    +0.000 C 
ATOM     12  C   UNL     1       2.782   3.210  18.096  0.00  0.00    +0.000 C 
BRANCH  12  13
ATOM     13  C   UNL     1       1.509   2.872  18.661  0.00  0.00    +0.000 C 
ATOM     14  N   UNL     1       0.365   2.367  18.553  0.00  0.00    +0.000 NA
ATOM     15  C   UNL     1       0.811   2.963  19.870  0.00  0.00    +0.000 C 
ENDBRANCH  12  13
ENDBRANCH   5  12
ENDBRANCH   1   9
BRANCH   3  16
ATOM     16  C   UNL     1       0.953   8.967  20.626  0.00  0.00    +0.000 A 
ATOM     17  C   UNL     1       0.869   8.965  22.019  0.00  0.00    +0.000 A 
ATOM     18  C   UNL     1       0.081   9.899  22.692  0.00  0.00    +0.000 A 
ATOM     19  C   UNL     1      -0.626  10.864  21.979  0.00  0.00    +0.000 A 
ATOM     20  C   UNL     1      -0.525  10.924  20.582  0.00  0.00    +0.000 A 
ATOM     21  C   UNL     1       0.277   9.967  19.919  0.00  0.00    +0.000 A 
BRANCH  20  22
ATOM     22  C   UNL     1      -1.223  12.013  19.773  0.00  0.00    +0.000 C 
ATOM     23  C   UNL     1      -0.415  13.320  19.750  0.00  0.00    +0.000 C 
BRANCH  22  24
ATOM     24  C   UNL     1      -1.539  11.561  18.330  0.00  0.00    +0.000 C 
BRANCH  24  25
ATOM     25  C   UNL     1      -3.001  11.578  18.023  0.00  0.00    +0.000 A 
ATOM     26  N   UNL     1      -3.965  11.930  18.852  0.00  0.00    +0.000 NA
ATOM     27  N   UNL     1      -5.164  11.827  18.188  0.00  0.00    +0.000 NA
ATOM     28  C   UNL     1      -4.907  11.422  16.967  0.00  0.00    +0.000 A 
ATOM     29  N   UNL     1      -3.565  11.254  16.817  0.00  0.00    +0.000 N 
ATOM     30  C   UNL     1      -2.902  10.838  15.610  0.00  0.00    +0.000 C 
ENDBRANCH  24  25
ENDBRANCH  22  24
ENDBRANCH  20  22
ENDBRANCH   3  16
TORSDOF 7
ENDMDL
MODEL 7
REMARK VINA RESULT:      -8.1      3.496      6.668
REMARK  Name = 
REMARK  9 active torsions:
REMARK  status: ('A' for Active; 'I' for Inactive)
REMARK    1  A    between atoms: C_2  and  C_3
REMARK    2  A    between atoms: C_2  and  C_6
REMARK    3  A    between atoms: C_10  and  C_11
REMARK    4  A    between atoms: N_13  and  C_14
REMARK    5  A    between atoms: C_18  and  C_19
REMARK    6  A    between atoms: C_19  and  C_20
REMARK    7  A    between atoms: C_19  and  C_21
REMARK    8  A    between atoms: C_21  and  C_22
REMARK    9  A    between atoms: N_26  and  C_27
REMARK                            x       y       z     vdW  Elec       q    Type
REMARK                         _______ _______ _______ _____ _____    ______ ____
ROOT
ATOM      1  C   UNL     1       5.606   4.795  16.362  0.00  0.00    +0.000 C 
ATOM      2  O   UNL     1       6.184   4.213  17.282  0.00  0.00    +0.000 OA
ATOM      3  N   UNL     1       4.456   5.563  16.466  0.00  0.00    +0.000 N 
ATOM      4  H   UNL     1       4.054   5.877  15.583  0.00  0.00    +0.000 HD
ENDROOT
BRANCH   1   9
ATOM      5  C   UNL     1       6.048   3.713  12.767  0.00  0.00    +0.000 A 
ATOM      6  C   UNL     1       7.224   4.406  12.473  0.00  0.00    +0.000 A 
ATOM      7  C   UNL     1       7.814   5.176  13.467  0.00  0.00    +0.000 A 
ATOM      8  N   UNL     1       7.317   5.316  14.715  0.00  0.00    +0.000 NA
ATOM      9  C   UNL     1       6.165   4.646  14.978  0.00  0.00    +0.000 A 
ATOM     10  C   UNL     1       5.502   3.846  14.044  0.00  0.00    +0.000 A 
BRANCH   5  12
ATOM     11  C   UNL     1       5.872   1.681  11.397  0.00  0.00    +0.000 C 
ATOM     12  C   UNL     1       5.401   2.892  11.737  0.00  0.00    +0.000 C 
BRANCH  12  13
ATOM     13  C   UNL     1       4.206   3.285  11.053  0.00  0.00    +0.000 C 
ATOM     14  N   UNL     1       3.550   4.132  10.396  0.00  0.00    +0.000 NA
ATOM     15  C   UNL     1       2.943   2.784  10.719  0.00  0.00    +0.000 C 
ENDBRANCH  12  13
ENDBRANCH   5  12
ENDBRANCH   1   9
BRANCH   3  16
ATOM     16  C   UNL     1       3.753   5.854  17.660  0.00  0.00    +0.000 A 
ATOM     17  C   UNL     1       3.563   4.905  18.665  0.00  0.00    +0.000 A 
ATOM     18  C   UNL     1       2.815   5.208  19.805  0.00  0.00    +0.000 A 
ATOM     19  C   UNL     1       2.259   6.473  19.964  0.00  0.00    +0.000 A 
ATOM     20  C   UNL     1       2.472   7.465  18.994  0.00  0.00    +0.000 A 
ATOM     21  C   UNL     1       3.229   7.139  17.847  0.00  0.00    +0.000 A 
BRANCH  20  22
ATOM     22  C   UNL     1       1.942   8.884  19.170  0.00  0.00    +0.000 C 
ATOM     23  C   UNL     1       1.638   9.556  17.822  0.00  0.00    +0.000 C 
BRANCH  22  24
ATOM     24  C   UNL     1       0.696   8.938  20.081  0.00  0.00    +0.000 C 
BRANCH  24  25
ATOM     25  C   UNL     1       0.398  10.315  20.579  0.00  0.00    +0.000 A 
ATOM     26  N   UNL     1       1.037  10.947  21.544  0.00  0.00    +0.000 NA
ATOM     27  N   UNL     1       0.476  12.194  21.689  0.00  0.00    +0.000 NA
ATOM     28  C   UNL     1      -0.489  12.298  20.805  0.00  0.00    +0.000 A 
ATOM     29  N   UNL     1      -0.573  11.146  20.086  0.00  0.00    +0.000 N 
ATOM     30  C   UNL     1      -1.498  10.893  19.014  0.00  0.00    +0.000 C 
ENDBRANCH  24  25
ENDBRANCH  22  24
ENDBRANCH  20  22
ENDBRANCH   3  16
TORSDOF 7
ENDMDL
MODEL 8
REMARK VINA RESULT:      -8.0      2.155     10.536
REMARK  Name = 
REMARK  9 active torsions:
REMARK  status: ('A' for Active; 'I' for Inactive)
REMARK    1  A    between atoms: C_2  and  C_3
REMARK    2  A    between atoms: C_2  and  C_6
REMARK    3  A    between atoms: C_10  and  C_11
REMARK    4  A    between atoms: N_13  and  C_14
REMARK    5  A    between atoms: C_18  and  C_19
REMARK    6  A    between atoms: C_19  and  C_20
REMARK    7  A    between atoms: C_19  and  C_21
REMARK    8  A    between atoms: C_21  and  C_22
REMARK    9  A    between atoms: N_26  and  C_27
REMARK                            x       y       z     vdW  Elec       q    Type
REMARK                         _______ _______ _______ _____ _____    ______ ____
ROOT
ATOM      1  C   UNL     1       1.484   8.849  19.121  0.00  0.00    +0.000 C 
ATOM      2  O   UNL     1       1.560   8.411  20.271  0.00  0.00    +0.000 OA
ATOM      3  N   UNL     1       2.021   8.272  17.981  0.00  0.00    +0.000 N 
ATOM      4  H   UNL     1       1.956   8.831  17.131  0.00  0.00    +0.000 HD
ENDROOT
BRANCH   1   9
ATOM      5  C   UNL     1      -1.227  11.376  18.372  0.00  0.00    +0.000 A 
ATOM      6  C   UNL     1      -0.488  12.547  18.548  0.00  0.00    +0.000 A 
ATOM      7  C   UNL     1       0.856  12.448  18.886  0.00  0.00    +0.000 A 
ATOM      8  N   UNL     1       1.507  11.280  19.075  0.00  0.00    +0.000 NA
ATOM      9  C   UNL     1       0.768  10.152  18.915  0.00  0.00    +0.000 A 
ATOM     10  C   UNL     1      -0.586  10.153  18.572  0.00  0.00    +0.000 A 
BRANCH   5  12
ATOM     11  C   UNL     1      -3.568  11.932  18.867  0.00  0.00    +0.000 C 
ATOM     12  C   UNL     1      -2.648  11.450  18.015  0.00  0.00    +0.000 C 
BRANCH  12  13
ATOM     13  C   UNL     1      -3.159  11.063  16.734  0.00  0.00    +0.000 C 
ATOM     14  N   UNL     1      -4.093  11.026  15.896  0.00  0.00    +0.000 NA
ATOM     15  C   UNL     1      -2.750  10.414  15.564  0.00  0.00    +0.000 C 
ENDBRANCH  12  13
ENDBRANCH   5  12
ENDBRANCH   1   9
BRANCH   3  16
ATOM     16  C   UNL     1       2.728   7.046  17.921  0.00  0.00    +0.000 A 
ATOM     17  C   UNL     1       2.177   5.843  18.362  0.00  0.00    +0.000 A 
ATOM     18  C   UNL     1       2.922   4.663  18.342  0.00  0.00    +0.000 A 
ATOM     19  C   UNL     1       4.229   4.666  17.863  0.00  0.00    +0.000 A 
ATOM     20  C   UNL     1       4.796   5.849  17.368  0.00  0.00    +0.000 A 
ATOM     21  C   UNL     1       4.027   7.034  17.398  0.00  0.00    +0.000 A 
BRANCH  20  22
ATOM     22  C   UNL     1       6.197   5.875  16.765  0.00  0.00    +0.000 C 
ATOM     23  C   UNL     1       7.281   6.070  17.837  0.00  0.00    +0.000 C 
BRANCH  22  24
ATOM     24  C   UNL     1       6.501   4.612  15.929  0.00  0.00    +0.000 C 
BRANCH  24  25
ATOM     25  C   UNL     1       7.103   4.926  14.599  0.00  0.00    +0.000 A 
ATOM     26  N   UNL     1       8.136   5.717  14.381  0.00  0.00    +0.000 NA
ATOM     27  N   UNL     1       8.393   5.731  13.031  0.00  0.00    +0.000 NA
ATOM     28  C   UNL     1       7.517   4.943  12.454  0.00  0.00    +0.000 A 
ATOM     29  N   UNL     1       6.690   4.415  13.397  0.00  0.00    +0.000 N 
ATOM     30  C   UNL     1       5.616   3.491  13.148  0.00  0.00    +0.000 C 
ENDBRANCH  24  25
ENDBRANCH  22  24
ENDBRANCH  20  22
ENDBRANCH   3  16
TORSDOF 7
ENDMDL
MODEL 9
REMARK VINA RESULT:      -8.0      3.127      4.478
REMARK  Name = 
REMARK  9 active torsions:
REMARK  status: ('A' for Active; 'I' for Inactive)
REMARK    1  A    between atoms: C_2  and  C_3
REMARK    2  A    between atoms: C_2  and  C_6
REMARK    3  A    between atoms: C_10  and  C_11
REMARK    4  A    between atoms: N_13  and  C_14
REMARK    5  A    between atoms: C_18  and  C_19
REMARK    6  A    between atoms: C_19  and  C_20
REMARK    7  A    between atoms: C_19  and  C_21
REMARK    8  A    between atoms: C_21  and  C_22
REMARK    9  A    between atoms: N_26  and  C_27
REMARK                            x       y       z     vdW  Elec       q    Type
REMARK                         _______ _______ _______ _____ _____    ______ ____
ROOT
ATOM      1  C   UNL     1       2.633   7.675  18.059  0.00  0.00    +0.000 C 
ATOM      2  O   UNL     1       2.576   8.315  17.008  0.00  0.00    +0.000 OA
ATOM      3  N   UNL     1       2.073   8.035  19.276  0.00  0.00    +0.000 N 
ATOM      4  H   UNL     1       2.316   7.440  20.067  0.00  0.00    +0.000 HD
ENDROOT
BRANCH   1   9
ATOM      5  C   UNL     1       3.613   4.073  18.659  0.00  0.00    +0.000 A 
ATOM      6  C   UNL     1       4.856   4.077  18.023  0.00  0.00    +0.000 A 
ATOM      7  C   UNL     1       5.311   5.256  17.447  0.00  0.00    +0.000 A 
ATOM      8  N   UNL     1       4.621   6.416  17.445  0.00  0.00    +0.000 NA
ATOM      9  C   UNL     1       3.407   6.390  18.055  0.00  0.00    +0.000 A 
ATOM     10  C   UNL     1       2.869   5.254  18.664  0.00  0.00    +0.000 A 
BRANCH   5  12
ATOM     11  C   UNL     1       3.116   1.668  18.625  0.00  0.00    +0.000 C 
ATOM     12  C   UNL     1       3.105   2.843  19.276  0.00  0.00    +0.000 C 
BRANCH  12  13
ATOM     13  C   UNL     1       2.608   2.782  20.617  0.00  0.00    +0.000 C 
ATOM     14  N   UNL     1       2.791   2.581  21.843  0.00  0.00    +0.000 NA
ATOM     15  C   UNL     1       1.423   2.978  21.335  0.00  0.00    +0.000 C 
ENDBRANCH  12  13
ENDBRANCH   5  12
ENDBRANCH   1   9
BRANCH   3  16
ATOM     16  C   UNL     1       1.295   9.192  19.526  0.00  0.00    +0.000 A 
ATOM     17  C   UNL     1       1.212  10.247  18.617  0.00  0.00    +0.000 A 
ATOM     18  C   UNL     1       0.482  11.398  18.919  0.00  0.00    +0.000 A 
ATOM     19  C   UNL     1      -0.191  11.504  20.133  0.00  0.00    +0.000 A 
ATOM     20  C   UNL     1      -0.167  10.441  21.048  0.00  0.00    +0.000 A 
ATOM     21  C   UNL     1       0.579   9.285  20.725  0.00  0.00    +0.000 A 
BRANCH  20  22
ATOM     22  C   UNL     1      -0.953  10.490  22.354  0.00  0.00    +0.000 C 
ATOM     23  C   UNL     1      -0.250   9.715  23.478  0.00  0.00    +0.000 C 
BRANCH  22  24
ATOM     24  C   UNL     1      -1.244  11.937  22.810  0.00  0.00    +0.000 C 
BRANCH  24  25
ATOM     25  C   UNL     1      -2.705  12.227  22.928  0.00  0.00    +0.000 A 
ATOM     26  N   UNL     1      -3.485  11.891  23.938  0.00  0.00    +0.000 NA
ATOM     27  N   UNL     1      -4.753  12.352  23.676  0.00  0.00    +0.000 NA
ATOM     28  C   UNL     1      -4.719  12.965  22.516  0.00  0.00    +0.000 A 
ATOM     29  N   UNL     1      -3.457  12.914  22.011  0.00  0.00    +0.000 N 
ATOM     30  C   UNL     1      -3.027  13.493  20.767  0.00  0.00    +0.000 C 
ENDBRANCH  24  25
ENDBRANCH  22  24
ENDBRANCH  20  22
ENDBRANCH   3  16
TORSDOF 7
ENDMDL
