MODEL 1
REMARK VINA RESULT:      -9.3      0.000      0.000
REMARK  Name = 
REMARK  5 active torsions:
REMARK  status: ('A' for Active; 'I' for Inactive)
REMARK    1  A    between atoms: C_1  and  C_2
REMARK    2  A    between atoms: C_3  and  C_4
REMARK    3  A    between atoms: N_6  and  C_7
REMARK    4  A    between atoms: C_7  and  C_8
REMARK    5  A    between atoms: C_11  and  C_12
REMARK                            x       y       z     vdW  Elec       q    Type
REMARK                         _______ _______ _______ _____ _____    ______ ____
ROOT
ATOM      1  C   UNL     1       1.199   8.959  20.966  0.00  0.00    +0.000 C 
ENDROOT
BRANCH   1   2
ATOM      2  C   UNL     1       1.746   7.890  20.063  0.00  0.00    +0.000 A 
ATOM      3  C   UNL     1       1.853   6.560  20.493  0.00  0.00    +0.000 A 
ATOM      4  C   UNL     1       2.429   5.597  19.660  0.00  0.00    +0.000 A 
ATOM      5  C   UNL     1       2.881   5.941  18.381  0.00  0.00    +0.000 A 
ATOM      6  C   UNL     1       2.661   7.237  17.908  0.00  0.00    +0.000 A 
ATOM      7  C   UNL     1       2.138   8.215  18.758  0.00  0.00    +0.000 A 
BRANCH   5   8
ATOM      8  C   UNL     1       3.509   4.877  17.553  0.00  0.00    +0.000 C 
ATOM      9  O   UNL     1       2.864   3.844  17.368  0.00  0.00    +0.000 OA
ATOM     10  N   UNL     1       4.775   5.062  16.996  0.00  0.00    +0.000 N 
ATOM     11  C   UNL     1       5.261   4.025  16.088  0.00  0.00    +0.000 C 
ATOM     12  C   UNL     1       6.079   4.681  14.981  0.00  0.00    +0.000 C 
ATOM     13  N   UNL     1       7.145   5.504  15.517  0.00  0.00    +0.000 N 
ATOM     14  C   UNL     1       7.008   6.224  16.681  0.00  0.00    +0.000 C 
ATOM     15  O   UNL     1       7.862   7.050  16.989  0.00  0.00    +0.000 OA
ATOM     16  C   UNL     1       5.850   5.848  17.624  0.00  0.00    +0.000 C 
ATOM     17  H   UNL     1       7.894   5.816  14.912  0.00  0.00    +0.000 HD
ENDBRANCH   5   8
ENDBRANCH   1   2
BRANCH   1  20
ATOM     18  C   UNL     1      -0.175  10.695  19.966  0.00  0.00    +0.000 C 
ATOM     19  O   UNL     1       0.853  11.356  19.795  0.00  0.00    +0.000 OA
ATOM     20  N   UNL     1      -0.097   9.452  20.558  0.00  0.00    +0.000 N 
ATOM     21  H   UNL     1      -0.947   8.924  20.723  0.00  0.00    +0.000 HD
BRANCH  18  24
ATOM     22  C   UNL     1      -1.829  10.030  17.261  0.00  0.00    +0.000 C 
ATOM     23  C   UNL     1      -2.218  10.884  18.411  0.00  0.00    +0.000 A 
ATOM     24  C   UNL     1      -1.491  11.164  19.565  0.00  0.00    +0.000 A 
ATOM     25  O   UNL     1      -2.218  12.005  20.377  0.00  0.00    +0.000 OA
ATOM     26  C   UNL     1      -3.405  12.255  19.745  0.00  0.00    +0.000 A 
ATOM     27  C   UNL     1      -4.449  13.059  20.214  0.00  0.00    +0.000 A 
ATOM     28  C   UNL     1      -5.586  13.164  19.394  0.00  0.00    +0.000 A 
ATOM     29  C   UNL     1      -5.656  12.495  18.173  0.00  0.00    +0.000 A 
ATOM     30 CL   UNL     1      -7.066  12.635  17.194  0.00  0.00    +0.000 Cl
ATOM     31  C   UNL     1      -4.598  11.701  17.725  0.00  0.00    +0.000 A 
ATOM     32  C   UNL     1      -3.453  11.583  18.533  0.00  0.00    +0.000 A 
ENDBRANCH  18  24
ENDBRANCH   1  20
TORSDOF 4
ENDMDL
MODEL 2
REMARK VINA RESULT:      -9.1      0.852      1.226
REMARK  Name = 
REMARK  5 active torsions:
REMARK  status: ('A' for Active; 'I' for Inactive)
REMARK    1  A    between atoms: C_1  and  C_2
REMARK    2  A    between atoms: C_3  and  C_4
REMARK    3  A    between atoms: N_6  and  C_7
REMARK    4  A    between atoms: C_7  and  C_8
REMARK    5  A    between atoms: C_11  and  C_12
REMARK                            x       y       z     vdW  Elec       q    Type
REMARK                         _______ _______ _______ _____ _____    ______ ____
ROOT
ATOM      1  C   UNL     1       1.072   9.032  21.162  0.00  0.00    +0.000 C 
ENDROOT
BRANCH   1   2
ATOM      2  C   UNL     1       1.632   7.928  20.311  0.00  0.00    +0.000 A 
ATOM      3  C   UNL     1       2.129   8.183  19.026  0.00  0.00    +0.000 A 
ATOM      4  C   UNL     1       2.581   7.130  18.225  0.00  0.00    +0.000 A 
ATOM      5  C   UNL     1       2.565   5.815  18.705  0.00  0.00    +0.000 A 
ATOM      6  C   UNL     1       2.185   5.578  20.028  0.00  0.00    +0.000 A 
ATOM      7  C   UNL     1       1.680   6.620  20.811  0.00  0.00    +0.000 A 
BRANCH   5   8
ATOM      8  C   UNL     1       3.033   4.735  17.796  0.00  0.00    +0.000 C 
ATOM      9  O   UNL     1       2.176   4.069  17.213  0.00  0.00    +0.000 OA
ATOM     10  N   UNL     1       4.396   4.507  17.605  0.00  0.00    +0.000 N 
ATOM     11  C   UNL     1       4.771   3.517  16.596  0.00  0.00    +0.000 C 
ATOM     12  C   UNL     1       6.052   3.975  15.906  0.00  0.00    +0.000 C 
ATOM     13  N   UNL     1       7.112   4.234  16.860  0.00  0.00    +0.000 N 
ATOM     14  C   UNL     1       6.870   4.761  18.108  0.00  0.00    +0.000 C 
ATOM     15  O   UNL     1       7.810   5.140  18.800  0.00  0.00    +0.000 OA
ATOM     16  C   UNL     1       5.425   4.715  18.637  0.00  0.00    +0.000 C 
ATOM     17  H   UNL     1       8.067   4.327  16.539  0.00  0.00    +0.000 HD
ENDBRANCH   5   8
ENDBRANCH   1   2
BRANCH   1  20
ATOM     18  C   UNL     1      -0.270  10.741  20.076  0.00  0.00    +0.000 C 
ATOM     19  O   UNL     1       0.765  11.392  19.907  0.00  0.00    +0.000 OA
ATOM     20  N   UNL     1      -0.212   9.517  20.708  0.00  0.00    +0.000 N 
ATOM     21  H   UNL     1      -1.068   8.999  20.869  0.00  0.00    +0.000 HD
BRANCH  18  24
ATOM     22  C   UNL     1      -1.813  10.087  17.302  0.00  0.00    +0.000 C 
ATOM     23  C   UNL     1      -2.253  10.927  18.444  0.00  0.00    +0.000 A 
ATOM     24  C   UNL     1      -1.574  11.202  19.629  0.00  0.00    +0.000 A 
ATOM     25  O   UNL     1      -2.339  12.029  20.420  0.00  0.00    +0.000 OA
ATOM     26  C   UNL     1      -3.504  12.274  19.744  0.00  0.00    +0.000 A 
ATOM     27  C   UNL     1      -4.572  13.064  20.181  0.00  0.00    +0.000 A 
ATOM     28  C   UNL     1      -5.677  13.167  19.319  0.00  0.00    +0.000 A 
ATOM     29  C   UNL     1      -5.695  12.509  18.090  0.00  0.00    +0.000 A 
ATOM     30 CL   UNL     1      -7.067  12.646  17.058  0.00  0.00    +0.000 Cl
ATOM     31  C   UNL     1      -4.613  11.729  17.675  0.00  0.00    +0.000 A 
ATOM     32  C   UNL     1      -3.498  11.613  18.525  0.00  0.00    +0.000 A 
ENDBRANCH  18  24
ENDBRANCH   1  20
TORSDOF 4
ENDMDL
MODEL 3
REMARK VINA RESULT:      -8.8      2.577      3.450
REMARK  Name = 
REMARK  5 active torsions:
REMARK  status: ('A' for Active; 'I' for Inactive)
REMARK    1  A    between atoms: C_1  and  C_2
REMARK    2  A    between atoms: C_3  and  C_4
REMARK    3  A    between atoms: N_6  and  C_7
REMARK    4  A    between atoms: C_7  and  C_8
REMARK    5  A    between atoms: C_11  and  C_12
REMARK                            x       y       z     vdW  Elec       q    Type
REMARK                         _______ _______ _______ _____ _____    ______ ____
ROOT
ATOM      1  C   UNL     1       1.102   7.872  21.063  0.00  0.00    +0.000 C 
ENDROOT
BRANCH   1   2
ATOM      2  C   UNL     1       1.861   6.937  20.165  0.00  0.00    +0.000 A 
ATOM      3  C   UNL     1       2.401   7.376  18.949  0.00  0.00    +0.000 A 
ATOM      4  C   UNL     1       3.043   6.473  18.098  0.00  0.00    +0.000 A 
ATOM      5  C   UNL     1       3.174   5.126  18.459  0.00  0.00    +0.000 A 
ATOM      6  C   UNL     1       2.744   4.716  19.723  0.00  0.00    +0.000 A 
ATOM      7  C   UNL     1       2.053   5.604  20.552  0.00  0.00    +0.000 A 
BRANCH   5   8
ATOM      8  C   UNL     1       3.843   4.208  17.498  0.00  0.00    +0.000 C 
ATOM      9  O   UNL     1       3.299   3.127  17.270  0.00  0.00    +0.000 OA
ATOM     10  N   UNL     1       5.033   4.578  16.872  0.00  0.00    +0.000 N 
ATOM     11  C   UNL     1       5.553   3.678  15.844  0.00  0.00    +0.000 C 
ATOM     12  C   UNL     1       6.205   4.507  14.743  0.00  0.00    +0.000 C 
ATOM     13  N   UNL     1       7.217   5.400  15.272  0.00  0.00    +0.000 N 
ATOM     14  C   UNL     1       7.098   6.006  16.501  0.00  0.00    +0.000 C 
ATOM     15  O   UNL     1       7.881   6.896  16.818  0.00  0.00    +0.000 OA
ATOM     16  C   UNL     1       6.066   5.429  17.487  0.00  0.00    +0.000 C 
ATOM     17  H   UNL     1       7.877   5.841  14.644  0.00  0.00    +0.000 HD
ENDBRANCH   5   8
ENDBRANCH   1   2
BRANCH   1  20
ATOM     18  C   UNL     1       0.851  10.264  21.403  0.00  0.00    +0.000 C 
ATOM     19  O   UNL     1       0.864  10.054  22.619  0.00  0.00    +0.000 OA
ATOM     20  N   UNL     1       0.969   9.207  20.526  0.00  0.00    +0.000 N 
ATOM     21  H   UNL     1       0.929   9.382  19.528  0.00  0.00    +0.000 HD
BRANCH  18  24
ATOM     22  C   UNL     1      -1.446  11.408  19.424  0.00  0.00    +0.000 C 
ATOM     23  C   UNL     1      -0.262  12.105  19.987  0.00  0.00    +0.000 A 
ATOM     24  C   UNL     1       0.720  11.596  20.834  0.00  0.00    +0.000 A 
ATOM     25  O   UNL     1       1.642  12.578  21.116  0.00  0.00    +0.000 OA
ATOM     26  C   UNL     1       1.245  13.709  20.457  0.00  0.00    +0.000 A 
ATOM     27  C   UNL     1       1.890  14.950  20.466  0.00  0.00    +0.000 A 
ATOM     28  C   UNL     1       1.293  15.980  19.718  0.00  0.00    +0.000 A 
ATOM     29  C   UNL     1       0.115  15.760  19.004  0.00  0.00    +0.000 A 
ATOM     30 CL   UNL     1      -0.599  17.043  18.104  0.00  0.00    +0.000 Cl
ATOM     31  C   UNL     1      -0.507  14.510  19.008  0.00  0.00    +0.000 A 
ATOM     32  C   UNL     1       0.075  13.468  19.752  0.00  0.00    +0.000 A 
ENDBRANCH  18  24
ENDBRANCH   1  20
TORSDOF 4
ENDMDL
MODEL 4
REMARK VINA RESULT:      -8.8      0.784      1.489
REMARK  Name = 
REMARK  5 active torsions:
REMARK  status: ('A' for Active; 'I' for Inactive)
REMARK    1  A    between atoms: C_1  and  C_2
REMARK    2  A    between atoms: C_3  and  C_4
REMARK    3  A    between atoms: N_6  and  C_7
REMARK    4  A    between atoms: C_7  and  C_8
REMARK    5  A    between atoms: C_11  and  C_12
REMARK                            x       y       z     vdW  Elec       q    Type
REMARK                         _______ _______ _______ _____ _____    ______ ____
ROOT
ATOM      1  C   UNL     1       1.150   9.177  20.851  0.00  0.00    +0.000 C 
ENDROOT
BRANCH   1   2
ATOM      2  C   UNL     1       1.705   8.074  19.995  0.00  0.00    +0.000 A 
ATOM      3  C   UNL     1       1.862   6.775  20.495  0.00  0.00    +0.000 A 
ATOM      4  C   UNL     1       2.444   5.782  19.703  0.00  0.00    +0.000 A 
ATOM      5  C   UNL     1       2.854   6.066  18.395  0.00  0.00    +0.000 A 
ATOM      6  C   UNL     1       2.584   7.326  17.856  0.00  0.00    +0.000 A 
ATOM      7  C   UNL     1       2.054   8.336  18.663  0.00  0.00    +0.000 A 
BRANCH   5   8
ATOM      8  C   UNL     1       3.491   4.974  17.611  0.00  0.00    +0.000 C 
ATOM      9  O   UNL     1       2.850   3.934  17.456  0.00  0.00    +0.000 OA
ATOM     10  N   UNL     1       4.763   5.142  17.061  0.00  0.00    +0.000 N 
ATOM     11  C   UNL     1       5.260   4.074  16.195  0.00  0.00    +0.000 C 
ATOM     12  C   UNL     1       6.088   4.692  15.074  0.00  0.00    +0.000 C 
ATOM     13  N   UNL     1       7.148   5.535  15.592  0.00  0.00    +0.000 N 
ATOM     14  C   UNL     1       6.998   6.296  16.728  0.00  0.00    +0.000 C 
ATOM     15  O   UNL     1       7.847   7.133  17.016  0.00  0.00    +0.000 OA
ATOM     16  C   UNL     1       5.830   5.951  17.672  0.00  0.00    +0.000 C 
ATOM     17  H   UNL     1       7.903   5.827  14.984  0.00  0.00    +0.000 HD
ENDBRANCH   5   8
ENDBRANCH   1   2
BRANCH   1  20
ATOM     18  C   UNL     1      -0.319  10.886  19.944  0.00  0.00    +0.000 C 
ATOM     19  O   UNL     1       0.665  11.624  19.842  0.00  0.00    +0.000 OA
ATOM     20  N   UNL     1      -0.169   9.612  20.449  0.00  0.00    +0.000 N 
ATOM     21  H   UNL     1      -0.985   9.020  20.557  0.00  0.00    +0.000 HD
BRANCH  18  24
ATOM     22  C   UNL     1      -2.477  12.649  21.598  0.00  0.00    +0.000 C 
ATOM     23  C   UNL     1      -2.593  12.056  20.242  0.00  0.00    +0.000 A 
ATOM     24  C   UNL     1      -1.656  11.295  19.547  0.00  0.00    +0.000 A 
ATOM     25  O   UNL     1      -2.167  10.941  18.319  0.00  0.00    +0.000 OA
ATOM     26  C   UNL     1      -3.422  11.479  18.230  0.00  0.00    +0.000 A 
ATOM     27  C   UNL     1      -4.303  11.371  17.150  0.00  0.00    +0.000 A 
ATOM     28  C   UNL     1      -5.545  12.017  17.276  0.00  0.00    +0.000 A 
ATOM     29  C   UNL     1      -5.870  12.728  18.431  0.00  0.00    +0.000 A 
ATOM     30 CL   UNL     1      -7.395  13.519  18.555  0.00  0.00    +0.000 Cl
ATOM     31  C   UNL     1      -4.974  12.819  19.498  0.00  0.00    +0.000 A 
ATOM     32  C   UNL     1      -3.726  12.179  19.389  0.00  0.00    +0.000 A 
ENDBRANCH  18  24
ENDBRANCH   1  20
TORSDOF 4
ENDMDL
MODEL 5
REMARK VINA RESULT:      -8.7      1.178      1.949
REMARK  Name = 
REMARK  5 active torsions:
REMARK  status: ('A' for Active; 'I' for Inactive)
REMARK    1  A    between atoms: C_1  and  C_2
REMARK    2  A    between atoms: C_3  and  C_4
REMARK    3  A    between atoms: N_6  and  C_7
REMARK    4  A    between atoms: C_7  and  C_8
REMARK    5  A    between atoms: C_11  and  C_12
REMARK                            x       y       z     vdW  Elec       q    Type
REMARK                         _______ _______ _______ _____ _____    ______ ____
ROOT
ATOM      1  C   UNL     1       1.017   9.295  21.066  0.00  0.00    +0.000 C 
ENDROOT
BRANCH   1   2
ATOM      2  C   UNL     1       1.575   8.153  20.265  0.00  0.00    +0.000 A 
ATOM      3  C   UNL     1       2.077   8.349  18.972  0.00  0.00    +0.000 A 
ATOM      4  C   UNL     1       2.527   7.261  18.220  0.00  0.00    +0.000 A 
ATOM      5  C   UNL     1       2.503   5.968  18.756  0.00  0.00    +0.000 A 
ATOM      6  C   UNL     1       2.118   5.790  20.087  0.00  0.00    +0.000 A 
ATOM      7  C   UNL     1       1.615   6.867  20.822  0.00  0.00    +0.000 A 
BRANCH   5   8
ATOM      8  C   UNL     1       2.970   4.847  17.896  0.00  0.00    +0.000 C 
ATOM      9  O   UNL     1       2.112   4.167  17.331  0.00  0.00    +0.000 OA
ATOM     10  N   UNL     1       4.332   4.598  17.729  0.00  0.00    +0.000 N 
ATOM     11  C   UNL     1       4.708   3.565  16.766  0.00  0.00    +0.000 C 
ATOM     12  C   UNL     1       6.000   3.981  16.072  0.00  0.00    +0.000 C 
ATOM     13  N   UNL     1       7.053   4.268  17.026  0.00  0.00    +0.000 N 
ATOM     14  C   UNL     1       6.804   4.848  18.249  0.00  0.00    +0.000 C 
ATOM     15  O   UNL     1       7.740   5.244  18.936  0.00  0.00    +0.000 OA
ATOM     16  C   UNL     1       5.352   4.837  18.764  0.00  0.00    +0.000 C 
ATOM     17  H   UNL     1       8.013   4.338  16.712  0.00  0.00    +0.000 HD
ENDBRANCH   5   8
ENDBRANCH   1   2
BRANCH   1  20
ATOM     18  C   UNL     1      -0.419  10.927  19.982  0.00  0.00    +0.000 C 
ATOM     19  O   UNL     1       0.583  11.619  19.782  0.00  0.00    +0.000 OA
ATOM     20  N   UNL     1      -0.295   9.717  20.632  0.00  0.00    +0.000 N 
ATOM     21  H   UNL     1      -1.126   9.166  20.820  0.00  0.00    +0.000 HD
BRANCH  18  24
ATOM     22  C   UNL     1      -2.648  12.623  21.612  0.00  0.00    +0.000 C 
ATOM     23  C   UNL     1      -2.718  12.058  20.241  0.00  0.00    +0.000 A 
ATOM     24  C   UNL     1      -1.750  11.326  19.556  0.00  0.00    +0.000 A 
ATOM     25  O   UNL     1      -2.221  10.991  18.307  0.00  0.00    +0.000 OA
ATOM     26  C   UNL     1      -3.481  11.513  18.194  0.00  0.00    +0.000 A 
ATOM     27  C   UNL     1      -4.330  11.415  17.087  0.00  0.00    +0.000 A 
ATOM     28  C   UNL     1      -5.584  12.041  17.192  0.00  0.00    +0.000 A 
ATOM     29  C   UNL     1      -5.952  12.722  18.352  0.00  0.00    +0.000 A 
ATOM     30 CL   UNL     1      -7.492  13.488  18.450  0.00  0.00    +0.000 Cl
ATOM     31  C   UNL     1      -5.088  12.802  19.446  0.00  0.00    +0.000 A 
ATOM     32  C   UNL     1      -3.828  12.183  19.358  0.00  0.00    +0.000 A 
ENDBRANCH  18  24
ENDBRANCH   1  20
TORSDOF 4
ENDMDL
MODEL 6
REMARK VINA RESULT:      -8.7      2.645      3.379
REMARK  Name = 
REMARK  5 active torsions:
REMARK  status: ('A' for Active; 'I' for Inactive)
REMARK    1  A    between atoms: C_1  and  C_2
REMARK    2  A    between atoms: C_3  and  C_4
REMARK    3  A    between atoms: N_6  and  C_7
REMARK    4  A    between atoms: C_7  and  C_8
REMARK    5  A    between atoms: C_11  and  C_12
REMARK                            x       y       z     vdW  Elec       q    Type
REMARK                         _______ _______ _______ _____ _____    ______ ____
ROOT
ATOM      1  C   UNL     1       1.181   8.040  21.127  0.00  0.00    +0.000 C 
ENDROOT
BRANCH   1   2
ATOM      2  C   UNL     1       1.822   7.071  20.175  0.00  0.00    +0.000 A 
ATOM      3  C   UNL     1       1.929   5.709  20.487  0.00  0.00    +0.000 A 
ATOM      4  C   UNL     1       2.590   4.838  19.617  0.00  0.00    +0.000 A 
ATOM      5  C   UNL     1       3.132   5.309  18.415  0.00  0.00    +0.000 A 
ATOM      6  C   UNL     1       2.917   6.640  18.048  0.00  0.00    +0.000 A 
ATOM      7  C   UNL     1       2.306   7.525  18.941  0.00  0.00    +0.000 A 
BRANCH   5   8
ATOM      8  C   UNL     1       3.847   4.339  17.544  0.00  0.00    +0.000 C 
ATOM      9  O   UNL     1       3.328   3.235  17.373  0.00  0.00    +0.000 OA
ATOM     10  N   UNL     1       5.053   4.685  16.934  0.00  0.00    +0.000 N 
ATOM     11  C   UNL     1       5.622   3.725  15.990  0.00  0.00    +0.000 C 
ATOM     12  C   UNL     1       6.300   4.488  14.857  0.00  0.00    +0.000 C 
ATOM     13  N   UNL     1       7.279   5.432  15.357  0.00  0.00    +0.000 N 
ATOM     14  C   UNL     1       7.109   6.119  16.536  0.00  0.00    +0.000 C 
ATOM     15  O   UNL     1       7.867   7.042  16.817  0.00  0.00    +0.000 OA
ATOM     16  C   UNL     1       6.051   5.594  17.524  0.00  0.00    +0.000 C 
ATOM     17  H   UNL     1       7.955   5.841  14.723  0.00  0.00    +0.000 HD
ENDBRANCH   5   8
ENDBRANCH   1   2
BRANCH   1  20
ATOM     18  C   UNL     1       0.763  10.414  21.424  0.00  0.00    +0.000 C 
ATOM     19  O   UNL     1       0.727  10.217  22.642  0.00  0.00    +0.000 OA
ATOM     20  N   UNL     1       0.993   9.359  20.567  0.00  0.00    +0.000 N 
ATOM     21  H   UNL     1       0.993   9.522  19.566  0.00  0.00    +0.000 HD
BRANCH  18  24
ATOM     22  C   UNL     1      -1.907  12.250  21.354  0.00  0.00    +0.000 C 
ATOM     23  C   UNL     1      -0.559  12.533  20.797  0.00  0.00    +0.000 A 
ATOM     24  C   UNL     1       0.577  11.729  20.832  0.00  0.00    +0.000 A 
ATOM     25  O   UNL     1       1.617  12.370  20.196  0.00  0.00    +0.000 OA
ATOM     26  C   UNL     1       1.145  13.580  19.764  0.00  0.00    +0.000 A 
ATOM     27  C   UNL     1       1.865  14.557  19.070  0.00  0.00    +0.000 A 
ATOM     28  C   UNL     1       1.174  15.734  18.733  0.00  0.00    +0.000 A 
ATOM     29  C   UNL     1      -0.167  15.904  19.079  0.00  0.00    +0.000 A 
ATOM     30 CL   UNL     1      -0.986  17.360  18.661  0.00  0.00    +0.000 Cl
ATOM     31  C   UNL     1      -0.865  14.910  19.769  0.00  0.00    +0.000 A 
ATOM     32  C   UNL     1      -0.189  13.727  20.115  0.00  0.00    +0.000 A 
ENDBRANCH  18  24
ENDBRANCH   1  20
TORSDOF 4
ENDMDL
MODEL 7
REMARK VINA RESULT:      -8.6      2.914      3.404
REMARK  Name = 
REMARK  5 active torsions:
REMARK  status: ('A' for Active; 'I' for Inactive)
REMARK    1  A    between atoms: C_1  and  C_2
REMARK    2  A    between atoms: C_3  and  C_4
REMARK    3  A    between atoms: N_6  and  C_7
REMARK    4  A    between atoms: C_7  and  C_8
REMARK    5  A    between atoms: C_11  and  C_12
REMARK                            x       y       z     vdW  Elec       q    Type
REMARK                         _______ _______ _______ _____ _____    ______ ____
ROOT
ATOM      1  C   UNL     1       0.973   7.818  21.429  0.00  0.00    +0.000 C 
ENDROOT
BRANCH   1   2
ATOM      2  C   UNL     1       1.698   6.961  20.431  0.00  0.00    +0.000 A 
ATOM      3  C   UNL     1       2.281   7.516  19.284  0.00  0.00    +0.000 A 
ATOM      4  C   UNL     1       2.890   6.690  18.335  0.00  0.00    +0.000 A 
ATOM      5  C   UNL     1       2.947   5.305  18.529  0.00  0.00    +0.000 A 
ATOM      6  C   UNL     1       2.476   4.767  19.730  0.00  0.00    +0.000 A 
ATOM      7  C   UNL     1       1.816   5.582  20.653  0.00  0.00    +0.000 A 
BRANCH   5   8
ATOM      8  C   UNL     1       3.584   4.477  17.471  0.00  0.00    +0.000 C 
ATOM      9  O   UNL     1       2.842   3.862  16.704  0.00  0.00    +0.000 OA
ATOM     10  N   UNL     1       4.973   4.421  17.351  0.00  0.00    +0.000 N 
ATOM     11  C   UNL     1       5.514   3.693  16.205  0.00  0.00    +0.000 C 
ATOM     12  C   UNL     1       6.776   4.398  15.721  0.00  0.00    +0.000 C 
ATOM     13  N   UNL     1       7.742   4.562  16.789  0.00  0.00    +0.000 N 
ATOM     14  C   UNL     1       7.370   4.805  18.091  0.00  0.00    +0.000 C 
ATOM     15  O   UNL     1       8.219   5.125  18.917  0.00  0.00    +0.000 OA
ATOM     16  C   UNL     1       5.909   4.516  18.483  0.00  0.00    +0.000 C 
ATOM     17  H   UNL     1       8.700   4.806  16.570  0.00  0.00    +0.000 HD
ENDBRANCH   5   8
ENDBRANCH   1   2
BRANCH   1  20
ATOM     18  C   UNL     1       0.498  10.167  21.826  0.00  0.00    +0.000 C 
ATOM     19  O   UNL     1       0.659   9.956  23.032  0.00  0.00    +0.000 OA
ATOM     20  N   UNL     1       0.641   9.132  20.926  0.00  0.00    +0.000 N 
ATOM     21  H   UNL     1       0.480   9.304  19.940  0.00  0.00    +0.000 HD
BRANCH  18  24
ATOM     22  C   UNL     1      -1.810  12.225  22.794  0.00  0.00    +0.000 C 
ATOM     23  C   UNL     1      -0.819  12.376  21.699  0.00  0.00    +0.000 A 
ATOM     24  C   UNL     1       0.164  11.477  21.292  0.00  0.00    +0.000 A 
ATOM     25  O   UNL     1       0.868  12.008  20.235  0.00  0.00    +0.000 OA
ATOM     26  C   UNL     1       0.338  13.243  19.974  0.00  0.00    +0.000 A 
ATOM     27  C   UNL     1       0.752  14.136  18.980  0.00  0.00    +0.000 A 
ATOM     28  C   UNL     1       0.064  15.359  18.901  0.00  0.00    +0.000 A 
ATOM     29  C   UNL     1      -0.981  15.654  19.776  0.00  0.00    +0.000 A 
ATOM     30 CL   UNL     1      -1.801  17.165  19.662  0.00  0.00    +0.000 Cl
ATOM     31  C   UNL     1      -1.378  14.743  20.757  0.00  0.00    +0.000 A 
ATOM     32  C   UNL     1      -0.700  13.514  20.852  0.00  0.00    +0.000 A 
ENDBRANCH  18  24
ENDBRANCH   1  20
TORSDOF 4
ENDMDL
MODEL 8
REMARK VINA RESULT:      -8.5      2.815      3.448
REMARK  Name = 
REMARK  5 active torsions:
REMARK  status: ('A' for Active; 'I' for Inactive)
REMARK    1  A    between atoms: C_1  and  C_2
REMARK    2  A    between atoms: C_3  and  C_4
REMARK    3  A    between atoms: N_6  and  C_7
REMARK    4  A    between atoms: C_7  and  C_8
REMARK    5  A    between atoms: C_11  and  C_12
REMARK                            x       y       z     vdW  Elec       q    Type
REMARK                         _______ _______ _______ _____ _____    ______ ____
ROOT
ATOM      1  C   UNL     1       1.003   8.222  21.308  0.00  0.00    +0.000 C 
ENDROOT
BRANCH   1   2
ATOM      2  C   UNL     1       1.674   7.257  20.372  0.00  0.00    +0.000 A 
ATOM      3  C   UNL     1       2.262   7.693  19.177  0.00  0.00    +0.000 A 
ATOM      4  C   UNL     1       2.819   6.769  18.290  0.00  0.00    +0.000 A 
ATOM      5  C   UNL     1       2.820   5.402  18.593  0.00  0.00    +0.000 A 
ATOM      6  C   UNL     1       2.345   4.982  19.839  0.00  0.00    +0.000 A 
ATOM      7  C   UNL     1       1.736   5.897  20.702  0.00  0.00    +0.000 A 
BRANCH   5   8
ATOM      8  C   UNL     1       3.403   4.465  17.596  0.00  0.00    +0.000 C 
ATOM      9  O   UNL     1       2.623   3.804  16.910  0.00  0.00    +0.000 OA
ATOM     10  N   UNL     1       4.786   4.362  17.441  0.00  0.00    +0.000 N 
ATOM     11  C   UNL     1       5.273   3.520  16.351  0.00  0.00    +0.000 C 
ATOM     12  C   UNL     1       6.536   4.144  15.769  0.00  0.00    +0.000 C 
ATOM     13  N   UNL     1       7.539   4.378  16.789  0.00  0.00    +0.000 N 
ATOM     14  C   UNL     1       7.213   4.746  18.074  0.00  0.00    +0.000 C 
ATOM     15  O   UNL     1       8.095   5.117  18.842  0.00  0.00    +0.000 OA
ATOM     16  C   UNL     1       5.759   4.534  18.533  0.00  0.00    +0.000 C 
ATOM     17  H   UNL     1       8.495   4.576  16.521  0.00  0.00    +0.000 HD
ENDBRANCH   5   8
ENDBRANCH   1   2
BRANCH   1  20
ATOM     18  C   UNL     1       0.119  10.483  21.387  0.00  0.00    +0.000 C 
ATOM     19  O   UNL     1      -0.645  10.112  22.283  0.00  0.00    +0.000 OA
ATOM     20  N   UNL     1       1.003   9.586  20.827  0.00  0.00    +0.000 N 
ATOM     21  H   UNL     1       1.609   9.888  20.072  0.00  0.00    +0.000 HD
BRANCH  18  24
ATOM     22  C   UNL     1      -0.963  11.620  18.552  0.00  0.00    +0.000 C 
ATOM     23  C   UNL     1      -0.323  12.353  19.673  0.00  0.00    +0.000 A 
ATOM     24  C   UNL     1       0.142  11.847  20.885  0.00  0.00    +0.000 A 
ATOM     25  O   UNL     1       0.669  12.869  21.641  0.00  0.00    +0.000 OA
ATOM     26  C   UNL     1       0.535  14.023  20.916  0.00  0.00    +0.000 A 
ATOM     27  C   UNL     1       0.934  15.305  21.306  0.00  0.00    +0.000 A 
ATOM     28  C   UNL     1       0.686  16.349  20.398  0.00  0.00    +0.000 A 
ATOM     29  C   UNL     1       0.072  16.103  19.170  0.00  0.00    +0.000 A 
ATOM     30 CL   UNL     1      -0.228  17.403  18.081  0.00  0.00    +0.000 Cl
ATOM     31  C   UNL     1      -0.314  14.812  18.803  0.00  0.00    +0.000 A 
ATOM     32  C   UNL     1      -0.075  13.755  19.700  0.00  0.00    +0.000 A 
ENDBRANCH  18  24
ENDBRANCH   1  20
TORSDOF 4
ENDMDL
MODEL 9
REMARK VINA RESULT:      -8.5      3.010      3.091
REMARK  Name = 
REMARK  5 active torsions:
REMARK  status: ('A' for Active; 'I' for Inactive)
REMARK    1  A    between atoms: C_1  and  C_2
REMARK    2  A    between atoms: C_3  and  C_4
REMARK    3  A    between atoms: N_6  and  C_7
REMARK    4  A    between atoms: C_7  and  C_8
REMARK    5  A    between atoms: C_11  and  C_12
REMARK                            x       y       z     vdW  Elec       q    Type
REMARK                         _______ _______ _______ _____ _____    ______ ____
ROOT
ATOM      1  C   UNL     1       0.974   7.401  21.299  0.00  0.00    +0.000 C 
ENDROOT
BRANCH   1   2
ATOM      2  C   UNL     1       1.742   6.575  20.307  0.00  0.00    +0.000 A 
ATOM      3  C   UNL     1       1.987   5.213  20.529  0.00  0.00    +0.000 A 
ATOM      4  C   UNL     1       2.762   4.481  19.626  0.00  0.00    +0.000 A 
ATOM      5  C   UNL     1       3.281   5.091  18.478  0.00  0.00    +0.000 A 
ATOM      6  C   UNL     1       2.934   6.415  18.195  0.00  0.00    +0.000 A 
ATOM      7  C   UNL     1       2.207   7.164  19.123  0.00  0.00    +0.000 A 
BRANCH   5   8
ATOM      8  C   UNL     1       4.121   4.266  17.568  0.00  0.00    +0.000 C 
ATOM      9  O   UNL     1       3.734   3.125  17.314  0.00  0.00    +0.000 OA
ATOM     10  N   UNL     1       5.293   4.785  17.016  0.00  0.00    +0.000 N 
ATOM     11  C   UNL     1       5.987   3.959  16.031  0.00  0.00    +0.000 C 
ATOM     12  C   UNL     1       6.598   4.865  14.967  0.00  0.00    +0.000 C 
ATOM     13  N   UNL     1       7.452   5.879  15.553  0.00  0.00    +0.000 N 
ATOM     14  C   UNL     1       7.179   6.464  16.768  0.00  0.00    +0.000 C 
ATOM     15  O   UNL     1       7.821   7.445  17.128  0.00  0.00    +0.000 OA
ATOM     16  C   UNL     1       6.167   5.759  17.690  0.00  0.00    +0.000 C 
ATOM     17  H   UNL     1       8.091   6.401  14.966  0.00  0.00    +0.000 HD
ENDBRANCH   5   8
ENDBRANCH   1   2
BRANCH   1  20
ATOM     18  C   UNL     1       1.035   9.808  21.619  0.00  0.00    +0.000 C 
ATOM     19  O   UNL     1       1.602   9.612  22.697  0.00  0.00    +0.000 OA
ATOM     20  N   UNL     1       0.676   8.735  20.831  0.00  0.00    +0.000 N 
ATOM     21  H   UNL     1       0.184   8.900  19.959  0.00  0.00    +0.000 HD
BRANCH  18  24
ATOM     22  C   UNL     1       1.435  11.004  18.634  0.00  0.00    +0.000 C 
ATOM     23  C   UNL     1       0.883  11.667  19.843  0.00  0.00    +0.000 A 
ATOM     24  C   UNL     1       0.723  11.138  21.122  0.00  0.00    +0.000 A 
ATOM     25  O   UNL     1       0.175  12.091  21.951  0.00  0.00    +0.000 OA
ATOM     26  C   UNL     1      -0.018  13.219  21.201  0.00  0.00    +0.000 A 
ATOM     27  C   UNL     1      -0.557  14.432  21.642  0.00  0.00    +0.000 A 
ATOM     28  C   UNL     1      -0.670  15.459  20.688  0.00  0.00    +0.000 A 
ATOM     29  C   UNL     1      -0.261  15.263  19.369  0.00  0.00    +0.000 A 
ATOM     30 CL   UNL     1      -0.421  16.536  18.220  0.00  0.00    +0.000 Cl
ATOM     31  C   UNL     1       0.278  14.043  18.955  0.00  0.00    +0.000 A 
ATOM     32  C   UNL     1       0.398  13.004  19.896  0.00  0.00    +0.000 A 
ENDBRANCH  18  24
ENDBRANCH   1  20
TORSDOF 4
ENDMDL
