MODEL 1
REMARK VINA RESULT:      -8.8      0.000      0.000
REMARK  Name = 
REMARK  3 active torsions:
REMARK  status: ('A' for Active; 'I' for Inactive)
REMARK    1  A    between atoms: C_2  and  C_4
REMARK    2  A    between atoms: C_12  and  N_13
REMARK    3  A    between atoms: C_14  and  C_16
REMARK                            x       y       z     vdW  Elec       q    Type
REMARK                         _______ _______ _______ _____ _____    ______ ____
ROOT
ATOM      1  C   UNL     1       2.973   4.651  17.871  0.00  0.00    +0.000 A 
ATOM      2  O   UNL     1       3.927   3.887  17.261  0.00  0.00    +0.000 OA
ATOM      3  C   UNL     1       5.020   4.676  17.093  0.00  0.00    +0.000 A 
ATOM      4  C   UNL     1       6.216   4.257  16.510  0.00  0.00    +0.000 A 
ATOM      5  C   UNL     1       7.254   5.191  16.457  0.00  0.00    +0.000 A 
ATOM      6  C   UNL     1       7.089   6.469  16.982  0.00  0.00    +0.000 A 
ATOM      7  C   UNL     1       5.871   6.860  17.557  0.00  0.00    +0.000 A 
ATOM      8  C   UNL     1       4.790   5.954  17.597  0.00  0.00    +0.000 A 
ATOM      9  C   UNL     1       3.436   5.946  18.063  0.00  0.00    +0.000 A 
ENDROOT
BRANCH   1  11
ATOM     10  N   UNL     1       1.540   3.639  19.477  0.00  0.00    +0.000 N 
ATOM     11  C   UNL     1       1.693   4.058  18.186  0.00  0.00    +0.000 C 
ATOM     12  O   UNL     1       0.779   3.930  17.373  0.00  0.00    +0.000 OA
ATOM     13  H   UNL     1       0.663   3.229  19.759  0.00  0.00    +0.000 HD
ATOM     14  H   UNL     1       2.284   3.763  20.152  0.00  0.00    +0.000 HD
ENDBRANCH   1  11
BRANCH   9  15
ATOM     15  N   UNL     1       2.633   6.930  18.635  0.00  0.00    +0.000 N 
ATOM     16  C   UNL     1       2.353   8.167  18.096  0.00  0.00    +0.000 C 
ATOM     17  O   UNL     1       2.702   8.585  17.000  0.00  0.00    +0.000 OA
ATOM     18  H   UNL     1       2.169   6.652  19.497  0.00  0.00    +0.000 HD
BRANCH  16  19
ATOM     19  C   UNL     1       1.541   9.074  18.949  0.00  0.00    +0.000 A 
ATOM     20  C   UNL     1       1.031  10.293  18.492  0.00  0.00    +0.000 A 
ATOM     21  C   UNL     1       0.268  11.089  19.352  0.00  0.00    +0.000 A 
ATOM     22  C   UNL     1       0.007  10.683  20.672  0.00  0.00    +0.000 A 
ATOM     23  C   UNL     1      -0.767  11.463  21.544  0.00  0.00    +0.000 A 
ATOM     24  C   UNL     1      -1.017  11.038  22.850  0.00  0.00    +0.000 A 
ATOM     25  C   UNL     1      -0.493   9.832  23.305  0.00  0.00    +0.000 A 
ATOM     26  C   UNL     1       0.283   9.046  22.454  0.00  0.00    +0.000 A 
ATOM     27  C   UNL     1       0.538   9.458  21.138  0.00  0.00    +0.000 A 
ATOM     28  C   UNL     1       1.308   8.671  20.271  0.00  0.00    +0.000 A 
ENDBRANCH  16  19
ENDBRANCH   9  15
TORSDOF 3
ENDMDL
MODEL 2
REMARK VINA RESULT:      -8.7      1.037      1.109
REMARK  Name = 
REMARK  3 active torsions:
REMARK  status: ('A' for Active; 'I' for Inactive)
REMARK    1  A    between atoms: C_2  and  C_4
REMARK    2  A    between atoms: C_12  and  N_13
REMARK    3  A    between atoms: C_14  and  C_16
REMARK                            x       y       z     vdW  Elec       q    Type
REMARK                         _______ _______ _______ _____ _____    ______ ____
ROOT
ATOM      1  C   UNL     1       2.991   4.706  17.606  0.00  0.00    +0.000 A 
ATOM      2  O   UNL     1       3.886   3.853  17.025  0.00  0.00    +0.000 OA
ATOM      3  C   UNL     1       5.048   4.538  16.872  0.00  0.00    +0.000 A 
ATOM      4  C   UNL     1       6.214   4.007  16.319  0.00  0.00    +0.000 A 
ATOM      5  C   UNL     1       7.331   4.844  16.278  0.00  0.00    +0.000 A 
ATOM      6  C   UNL     1       7.270   6.139  16.785  0.00  0.00    +0.000 A 
ATOM      7  C   UNL     1       6.081   6.644  17.329  0.00  0.00    +0.000 A 
ATOM      8  C   UNL     1       4.922   5.838  17.356  0.00  0.00    +0.000 A 
ATOM      9  C   UNL     1       3.564   5.957  17.793  0.00  0.00    +0.000 A 
ENDROOT
BRANCH   1  11
ATOM     10  N   UNL     1       1.482   3.702  19.145  0.00  0.00    +0.000 N 
ATOM     11  C   UNL     1       1.657   4.234  17.899  0.00  0.00    +0.000 C 
ATOM     12  O   UNL     1       0.719   4.296  17.108  0.00  0.00    +0.000 OA
ATOM     13  H   UNL     1       0.569   3.368  19.413  0.00  0.00    +0.000 HD
ATOM     14  H   UNL     1       2.249   3.669  19.805  0.00  0.00    +0.000 HD
ENDBRANCH   1  11
BRANCH   9  15
ATOM     15  N   UNL     1       2.841   7.016  18.337  0.00  0.00    +0.000 N 
ATOM     16  C   UNL     1       2.337   7.086  19.617  0.00  0.00    +0.000 C 
ATOM     17  O   UNL     1       2.495   6.267  20.513  0.00  0.00    +0.000 OA
ATOM     18  H   UNL     1       2.753   7.827  17.729  0.00  0.00    +0.000 HD
BRANCH  16  19
ATOM     19  C   UNL     1       1.518   8.288  19.925  0.00  0.00    +0.000 A 
ATOM     20  C   UNL     1       1.268   9.296  18.990  0.00  0.00    +0.000 A 
ATOM     21  C   UNL     1       0.481  10.394  19.351  0.00  0.00    +0.000 A 
ATOM     22  C   UNL     1      -0.064  10.499  20.644  0.00  0.00    +0.000 A 
ATOM     23  C   UNL     1      -0.867  11.587  21.019  0.00  0.00    +0.000 A 
ATOM     24  C   UNL     1      -1.400  11.670  22.306  0.00  0.00    +0.000 A 
ATOM     25  C   UNL     1      -1.134  10.670  23.238  0.00  0.00    +0.000 A 
ATOM     26  C   UNL     1      -0.333   9.585  22.884  0.00  0.00    +0.000 A 
ATOM     27  C   UNL     1       0.204   9.486  21.592  0.00  0.00    +0.000 A 
ATOM     28  C   UNL     1       1.001   8.395  21.223  0.00  0.00    +0.000 A 
ENDBRANCH  16  19
ENDBRANCH   9  15
TORSDOF 3
ENDMDL
MODEL 3
REMARK VINA RESULT:      -8.6      0.894      1.705
REMARK  Name = 
REMARK  3 active torsions:
REMARK  status: ('A' for Active; 'I' for Inactive)
REMARK    1  A    between atoms: C_2  and  C_4
REMARK    2  A    between atoms: C_12  and  N_13
REMARK    3  A    between atoms: C_14  and  C_16
REMARK                            x       y       z     vdW  Elec       q    Type
REMARK                         _______ _______ _______ _____ _____    ______ ____
ROOT
ATOM      1  C   UNL     1       3.142   4.026  17.891  0.00  0.00    +0.000 A 
ATOM      2  O   UNL     1       4.030   3.397  17.066  0.00  0.00    +0.000 OA
ATOM      3  C   UNL     1       5.028   4.281  16.808  0.00  0.00    +0.000 A 
ATOM      4  C   UNL     1       6.137   4.011  16.006  0.00  0.00    +0.000 A 
ATOM      5  C   UNL     1       7.090   5.024  15.884  0.00  0.00    +0.000 A 
ATOM      6  C   UNL     1       6.932   6.235  16.552  0.00  0.00    +0.000 A 
ATOM      7  C   UNL     1       5.802   6.476  17.346  0.00  0.00    +0.000 A 
ATOM      8  C   UNL     1       4.802   5.487  17.465  0.00  0.00    +0.000 A 
ATOM      9  C   UNL     1       3.546   5.332  18.135  0.00  0.00    +0.000 A 
ENDROOT
BRANCH   1  11
ATOM     10  N   UNL     1       1.973   1.965  18.094  0.00  0.00    +0.000 N 
ATOM     11  C   UNL     1       1.971   3.309  18.342  0.00  0.00    +0.000 C 
ATOM     12  O   UNL     1       1.023   3.838  18.918  0.00  0.00    +0.000 OA
ATOM     13  H   UNL     1       1.188   1.409  18.398  0.00  0.00    +0.000 HD
ATOM     14  H   UNL     1       2.762   1.525  17.639  0.00  0.00    +0.000 HD
ENDBRANCH   1  11
BRANCH   9  15
ATOM     15  N   UNL     1       2.786   6.196  18.920  0.00  0.00    +0.000 N 
ATOM     16  C   UNL     1       2.440   7.492  18.604  0.00  0.00    +0.000 C 
ATOM     17  O   UNL     1       2.680   8.080  17.558  0.00  0.00    +0.000 OA
ATOM     18  H   UNL     1       2.407   5.778  19.768  0.00  0.00    +0.000 HD
BRANCH  16  19
ATOM     19  C   UNL     1       1.698   8.237  19.655  0.00  0.00    +0.000 A 
ATOM     20  C   UNL     1       1.570   7.773  20.968  0.00  0.00    +0.000 A 
ATOM     21  C   UNL     1       0.863   8.535  21.904  0.00  0.00    +0.000 A 
ATOM     22  C   UNL     1       0.279   9.763  21.544  0.00  0.00    +0.000 A 
ATOM     23  C   UNL     1      -0.422  10.546  22.473  0.00  0.00    +0.000 A 
ATOM     24  C   UNL     1      -0.992  11.763  22.095  0.00  0.00    +0.000 A 
ATOM     25  C   UNL     1      -0.874  12.211  20.783  0.00  0.00    +0.000 A 
ATOM     26  C   UNL     1      -0.185  11.443  19.844  0.00  0.00    +0.000 A 
ATOM     27  C   UNL     1       0.396  10.221  20.212  0.00  0.00    +0.000 A 
ATOM     28  C   UNL     1       1.098   9.446  19.279  0.00  0.00    +0.000 A 
ENDBRANCH  16  19
ENDBRANCH   9  15
TORSDOF 3
ENDMDL
MODEL 4
REMARK VINA RESULT:      -8.4      1.655      2.386
REMARK  Name = 
REMARK  3 active torsions:
REMARK  status: ('A' for Active; 'I' for Inactive)
REMARK    1  A    between atoms: C_2  and  C_4
REMARK    2  A    between atoms: C_12  and  N_13
REMARK    3  A    between atoms: C_14  and  C_16
REMARK                            x       y       z     vdW  Elec       q    Type
REMARK                         _______ _______ _______ _____ _____    ______ ____
ROOT
ATOM      1  C   UNL     1       2.706   4.369  19.871  0.00  0.00    +0.000 A 
ATOM      2  O   UNL     1       3.501   3.609  19.061  0.00  0.00    +0.000 OA
ATOM      3  C   UNL     1       4.121   4.458  18.201  0.00  0.00    +0.000 A 
ATOM      4  C   UNL     1       5.027   4.065  17.216  0.00  0.00    +0.000 A 
ATOM      5  C   UNL     1       5.603   5.080  16.447  0.00  0.00    +0.000 A 
ATOM      6  C   UNL     1       5.287   6.415  16.679  0.00  0.00    +0.000 A 
ATOM      7  C   UNL     1       4.368   6.775  17.675  0.00  0.00    +0.000 A 
ATOM      8  C   UNL     1       3.741   5.775  18.448  0.00  0.00    +0.000 A 
ATOM      9  C   UNL     1       2.783   5.707  19.510  0.00  0.00    +0.000 A 
ENDROOT
BRANCH   1  11
ATOM     10  N   UNL     1       0.662   3.353  20.540  0.00  0.00    +0.000 N 
ATOM     11  C   UNL     1       1.928   3.720  20.901  0.00  0.00    +0.000 C 
ATOM     12  O   UNL     1       2.346   3.492  22.034  0.00  0.00    +0.000 OA
ATOM     13  H   UNL     1       0.076   2.884  21.213  0.00  0.00    +0.000 HD
ATOM     14  H   UNL     1       0.324   3.521  19.601  0.00  0.00    +0.000 HD
ENDBRANCH   1  11
BRANCH   9  15
ATOM     15  N   UNL     1       2.033   6.682  20.163  0.00  0.00    +0.000 N 
ATOM     16  C   UNL     1       1.754   7.947  19.691  0.00  0.00    +0.000 C 
ATOM     17  O   UNL     1       2.057   8.404  18.597  0.00  0.00    +0.000 OA
ATOM     18  H   UNL     1       1.607   6.378  21.036  0.00  0.00    +0.000 HD
BRANCH  16  19
ATOM     19  C   UNL     1       1.009   8.834  20.623  0.00  0.00    +0.000 A 
ATOM     20  C   UNL     1       1.097   8.722  22.013  0.00  0.00    +0.000 A 
ATOM     21  C   UNL     1       0.371   9.599  22.825  0.00  0.00    +0.000 A 
ATOM     22  C   UNL     1      -0.448  10.594  22.263  0.00  0.00    +0.000 A 
ATOM     23  C   UNL     1      -1.173  11.490  23.062  0.00  0.00    +0.000 A 
ATOM     24  C   UNL     1      -1.978  12.473  22.482  0.00  0.00    +0.000 A 
ATOM     25  C   UNL     1      -2.074  12.569  21.097  0.00  0.00    +0.000 A 
ATOM     26  C   UNL     1      -1.365  11.683  20.287  0.00  0.00    +0.000 A 
ATOM     27  C   UNL     1      -0.549  10.695  20.856  0.00  0.00    +0.000 A 
ATOM     28  C   UNL     1       0.176   9.806  20.052  0.00  0.00    +0.000 A 
ENDBRANCH  16  19
ENDBRANCH   9  15
TORSDOF 3
ENDMDL
MODEL 5
REMARK VINA RESULT:      -8.2      2.933      7.999
REMARK  Name = 
REMARK  3 active torsions:
REMARK  status: ('A' for Active; 'I' for Inactive)
REMARK    1  A    between atoms: C_2  and  C_4
REMARK    2  A    between atoms: C_12  and  N_13
REMARK    3  A    between atoms: C_14  and  C_16
REMARK                            x       y       z     vdW  Elec       q    Type
REMARK                         _______ _______ _______ _____ _____    ______ ____
ROOT
ATOM      1  C   UNL     1      -0.601  10.673  20.437  0.00  0.00    +0.000 A 
ATOM      2  O   UNL     1      -1.646  11.526  20.227  0.00  0.00    +0.000 OA
ATOM      3  C   UNL     1      -2.116  11.279  18.977  0.00  0.00    +0.000 A 
ATOM      4  C   UNL     1      -3.193  11.943  18.389  0.00  0.00    +0.000 A 
ATOM      5  C   UNL     1      -3.568  11.529  17.109  0.00  0.00    +0.000 A 
ATOM      6  C   UNL     1      -2.898  10.489  16.472  0.00  0.00    +0.000 A 
ATOM      7  C   UNL     1      -1.815   9.845  17.089  0.00  0.00    +0.000 A 
ATOM      8  C   UNL     1      -1.386  10.261  18.368  0.00  0.00    +0.000 A 
ATOM      9  C   UNL     1      -0.370   9.899  19.309  0.00  0.00    +0.000 A 
ENDROOT
BRANCH   1  11
ATOM     10  N   UNL     1      -0.641  11.170  22.763  0.00  0.00    +0.000 N 
ATOM     11  C   UNL     1       0.091  10.709  21.706  0.00  0.00    +0.000 C 
ATOM     12  O   UNL     1       1.257  10.351  21.861  0.00  0.00    +0.000 OA
ATOM     13  H   UNL     1      -0.216  11.205  23.677  0.00  0.00    +0.000 HD
ATOM     14  H   UNL     1      -1.608  11.446  22.641  0.00  0.00    +0.000 HD
ENDBRANCH   1  11
BRANCH   9  15
ATOM     15  N   UNL     1       0.671   8.974  19.259  0.00  0.00    +0.000 N 
ATOM     16  C   UNL     1       1.668   8.921  18.310  0.00  0.00    +0.000 C 
ATOM     17  O   UNL     1       1.851   9.711  17.393  0.00  0.00    +0.000 OA
ATOM     18  H   UNL     1       0.710   8.335  20.050  0.00  0.00    +0.000 HD
BRANCH  16  19
ATOM     19  C   UNL     1       2.611   7.777  18.427  0.00  0.00    +0.000 A 
ATOM     20  C   UNL     1       2.555   6.850  19.472  0.00  0.00    +0.000 A 
ATOM     21  C   UNL     1       3.472   5.795  19.510  0.00  0.00    +0.000 A 
ATOM     22  C   UNL     1       4.453   5.653  18.512  0.00  0.00    +0.000 A 
ATOM     23  C   UNL     1       5.372   4.594  18.528  0.00  0.00    +0.000 A 
ATOM     24  C   UNL     1       6.335   4.470  17.525  0.00  0.00    +0.000 A 
ATOM     25  C   UNL     1       6.397   5.405  16.496  0.00  0.00    +0.000 A 
ATOM     26  C   UNL     1       5.494   6.468  16.468  0.00  0.00    +0.000 A 
ATOM     27  C   UNL     1       4.518   6.602  17.466  0.00  0.00    +0.000 A 
ATOM     28  C   UNL     1       3.600   7.660  17.441  0.00  0.00    +0.000 A 
ENDBRANCH  16  19
ENDBRANCH   9  15
TORSDOF 3
ENDMDL
MODEL 6
REMARK VINA RESULT:      -8.2      3.119      7.972
REMARK  Name = 
REMARK  3 active torsions:
REMARK  status: ('A' for Active; 'I' for Inactive)
REMARK    1  A    between atoms: C_2  and  C_4
REMARK    2  A    between atoms: C_12  and  N_13
REMARK    3  A    between atoms: C_14  and  C_16
REMARK                            x       y       z     vdW  Elec       q    Type
REMARK                         _______ _______ _______ _____ _____    ______ ____
ROOT
ATOM      1  C   UNL     1       1.219  11.756  19.373  0.00  0.00    +0.000 A 
ATOM      2  O   UNL     1       0.767  12.938  19.889  0.00  0.00    +0.000 OA
ATOM      3  C   UNL     1       0.008  12.633  20.973  0.00  0.00    +0.000 A 
ATOM      4  C   UNL     1      -0.629  13.574  21.783  0.00  0.00    +0.000 A 
ATOM      5  C   UNL     1      -1.335  13.085  22.884  0.00  0.00    +0.000 A 
ATOM      6  C   UNL     1      -1.377  11.720  23.154  0.00  0.00    +0.000 A 
ATOM      7  C   UNL     1      -0.730  10.800  22.316  0.00  0.00    +0.000 A 
ATOM      8  C   UNL     1      -0.036  11.256  21.175  0.00  0.00    +0.000 A 
ATOM      9  C   UNL     1       0.720  10.685  20.102  0.00  0.00    +0.000 A 
ENDROOT
BRANCH   1  11
ATOM     10  N   UNL     1       2.370  13.021  17.720  0.00  0.00    +0.000 N 
ATOM     11  C   UNL     1       2.071  11.779  18.206  0.00  0.00    +0.000 C 
ATOM     12  O   UNL     1       2.520  10.771  17.665  0.00  0.00    +0.000 OA
ATOM     13  H   UNL     1       2.972  13.101  16.915  0.00  0.00    +0.000 HD
ATOM     14  H   UNL     1       2.019  13.853  18.177  0.00  0.00    +0.000 HD
ENDBRANCH   1  11
BRANCH   9  15
ATOM     15  N   UNL     1       1.007   9.368  19.751  0.00  0.00    +0.000 N 
ATOM     16  C   UNL     1       1.539   8.402  20.578  0.00  0.00    +0.000 C 
ATOM     17  O   UNL     1       1.784   8.514  21.771  0.00  0.00    +0.000 OA
ATOM     18  H   UNL     1       0.722   9.107  18.809  0.00  0.00    +0.000 HD
BRANCH  16  19
ATOM     19  C   UNL     1       1.839   7.095  19.935  0.00  0.00    +0.000 A 
ATOM     20  C   UNL     1       2.476   6.987  18.696  0.00  0.00    +0.000 A 
ATOM     21  C   UNL     1       2.732   5.721  18.159  0.00  0.00    +0.000 A 
ATOM     22  C   UNL     1       2.357   4.554  18.848  0.00  0.00    +0.000 A 
ATOM     23  C   UNL     1       2.618   3.276  18.331  0.00  0.00    +0.000 A 
ATOM     24  C   UNL     1       2.240   2.131  19.034  0.00  0.00    +0.000 A 
ATOM     25  C   UNL     1       1.591   2.246  20.260  0.00  0.00    +0.000 A 
ATOM     26  C   UNL     1       1.319   3.508  20.787  0.00  0.00    +0.000 A 
ATOM     27  C   UNL     1       1.698   4.667  20.094  0.00  0.00    +0.000 A 
ATOM     28  C   UNL     1       1.438   5.940  20.619  0.00  0.00    +0.000 A 
ENDBRANCH  16  19
ENDBRANCH   9  15
TORSDOF 3
ENDMDL
MODEL 7
REMARK VINA RESULT:      -8.2      2.626      7.977
REMARK  Name = 
REMARK  3 active torsions:
REMARK  status: ('A' for Active; 'I' for Inactive)
REMARK    1  A    between atoms: C_2  and  C_4
REMARK    2  A    between atoms: C_12  and  N_13
REMARK    3  A    between atoms: C_14  and  C_16
REMARK                            x       y       z     vdW  Elec       q    Type
REMARK                         _______ _______ _______ _____ _____    ______ ____
ROOT
ATOM      1  C   UNL     1      -0.021  10.036  21.302  0.00  0.00    +0.000 A 
ATOM      2  O   UNL     1      -0.973  11.013  21.374  0.00  0.00    +0.000 OA
ATOM      3  C   UNL     1      -1.437  11.209  20.114  0.00  0.00    +0.000 A 
ATOM      4  C   UNL     1      -2.431  12.126  19.770  0.00  0.00    +0.000 A 
ATOM      5  C   UNL     1      -2.818  12.165  18.428  0.00  0.00    +0.000 A 
ATOM      6  C   UNL     1      -2.239  11.310  17.495  0.00  0.00    +0.000 A 
ATOM      7  C   UNL     1      -1.239  10.403  17.873  0.00  0.00    +0.000 A 
ATOM      8  C   UNL     1      -0.799  10.360  19.214  0.00  0.00    +0.000 A 
ATOM      9  C   UNL     1       0.157   9.627  19.987  0.00  0.00    +0.000 A 
ENDROOT
BRANCH   1  11
ATOM     10  N   UNL     1      -0.172   9.398  23.588  0.00  0.00    +0.000 N 
ATOM     11  C   UNL     1       0.644   9.611  22.513  0.00  0.00    +0.000 C 
ATOM     12  O   UNL     1       1.857   9.437  22.603  0.00  0.00    +0.000 OA
ATOM     13  H   UNL     1       0.234   9.087  24.458  0.00  0.00    +0.000 HD
ATOM     14  H   UNL     1      -1.173   9.521  23.509  0.00  0.00    +0.000 HD
ENDBRANCH   1  11
BRANCH   9  15
ATOM     15  N   UNL     1       1.103   8.663  19.646  0.00  0.00    +0.000 N 
ATOM     16  C   UNL     1       1.928   8.687  18.542  0.00  0.00    +0.000 C 
ATOM     17  O   UNL     1       2.021   9.585  17.717  0.00  0.00    +0.000 OA
ATOM     18  H   UNL     1       1.219   7.919  20.331  0.00  0.00    +0.000 HD
BRANCH  16  19
ATOM     19  C   UNL     1       2.788   7.489  18.352  0.00  0.00    +0.000 A 
ATOM     20  C   UNL     1       2.811   6.420  19.253  0.00  0.00    +0.000 A 
ATOM     21  C   UNL     1       3.641   5.323  19.002  0.00  0.00    +0.000 A 
ATOM     22  C   UNL     1       4.454   5.278  17.855  0.00  0.00    +0.000 A 
ATOM     23  C   UNL     1       5.282   4.179  17.581  0.00  0.00    +0.000 A 
ATOM     24  C   UNL     1       6.078   4.155  16.434  0.00  0.00    +0.000 A 
ATOM     25  C   UNL     1       6.062   5.229  15.549  0.00  0.00    +0.000 A 
ATOM     26  C   UNL     1       5.249   6.332  15.809  0.00  0.00    +0.000 A 
ATOM     27  C   UNL     1       4.440   6.368  16.954  0.00  0.00    +0.000 A 
ATOM     28  C   UNL     1       3.612   7.466  17.219  0.00  0.00    +0.000 A 
ENDBRANCH  16  19
ENDBRANCH   9  15
TORSDOF 3
ENDMDL
MODEL 8
REMARK VINA RESULT:      -8.1      2.602      7.755
REMARK  Name = 
REMARK  3 active torsions:
REMARK  status: ('A' for Active; 'I' for Inactive)
REMARK    1  A    between atoms: C_2  and  C_4
REMARK    2  A    between atoms: C_12  and  N_13
REMARK    3  A    between atoms: C_14  and  C_16
REMARK                            x       y       z     vdW  Elec       q    Type
REMARK                         _______ _______ _______ _____ _____    ______ ____
ROOT
ATOM      1  C   UNL     1       0.058  10.054  21.203  0.00  0.00    +0.000 A 
ATOM      2  O   UNL     1      -0.832  11.080  21.350  0.00  0.00    +0.000 OA
ATOM      3  C   UNL     1      -1.375  11.314  20.128  0.00  0.00    +0.000 A 
ATOM      4  C   UNL     1      -2.340  12.287  19.864  0.00  0.00    +0.000 A 
ATOM      5  C   UNL     1      -2.820  12.360  18.554  0.00  0.00    +0.000 A 
ATOM      6  C   UNL     1      -2.357  11.485  17.575  0.00  0.00    +0.000 A 
ATOM      7  C   UNL     1      -1.382  10.522  17.874  0.00  0.00    +0.000 A 
ATOM      8  C   UNL     1      -0.850  10.441  19.179  0.00  0.00    +0.000 A 
ATOM      9  C   UNL     1       0.118   9.650  19.876  0.00  0.00    +0.000 A 
ENDROOT
BRANCH   1  11
ATOM     10  N   UNL     1       0.026   9.334  23.469  0.00  0.00    +0.000 N 
ATOM     11  C   UNL     1       0.784   9.581  22.360  0.00  0.00    +0.000 C 
ATOM     12  O   UNL     1       1.999   9.397  22.377  0.00  0.00    +0.000 OA
ATOM     13  H   UNL     1       0.476   8.988  24.304  0.00  0.00    +0.000 HD
ATOM     14  H   UNL     1      -0.977   9.465  23.450  0.00  0.00    +0.000 HD
ENDBRANCH   1  11
BRANCH   9  15
ATOM     15  N   UNL     1       0.983   8.640  19.460  0.00  0.00    +0.000 N 
ATOM     16  C   UNL     1       1.820   8.684  18.367  0.00  0.00    +0.000 C 
ATOM     17  O   UNL     1       1.999   9.636  17.619  0.00  0.00    +0.000 OA
ATOM     18  H   UNL     1       1.028   7.836  20.082  0.00  0.00    +0.000 HD
BRANCH  16  19
ATOM     19  C   UNL     1       2.578   7.437  18.083  0.00  0.00    +0.000 A 
ATOM     20  C   UNL     1       3.911   7.437  17.660  0.00  0.00    +0.000 A 
ATOM     21  C   UNL     1       4.559   6.222  17.420  0.00  0.00    +0.000 A 
ATOM     22  C   UNL     1       3.891   4.998  17.597  0.00  0.00    +0.000 A 
ATOM     23  C   UNL     1       4.531   3.769  17.373  0.00  0.00    +0.000 A 
ATOM     24  C   UNL     1       3.849   2.565  17.559  0.00  0.00    +0.000 A 
ATOM     25  C   UNL     1       2.517   2.572  17.964  0.00  0.00    +0.000 A 
ATOM     26  C   UNL     1       1.864   3.784  18.186  0.00  0.00    +0.000 A 
ATOM     27  C   UNL     1       2.538   5.001  18.008  0.00  0.00    +0.000 A 
ATOM     28  C   UNL     1       1.894   6.224  18.238  0.00  0.00    +0.000 A 
ENDBRANCH  16  19
ENDBRANCH   9  15
TORSDOF 3
ENDMDL
MODEL 9
REMARK VINA RESULT:      -8.1      1.787      3.466
REMARK  Name = 
REMARK  3 active torsions:
REMARK  status: ('A' for Active; 'I' for Inactive)
REMARK    1  A    between atoms: C_2  and  C_4
REMARK    2  A    between atoms: C_12  and  N_13
REMARK    3  A    between atoms: C_14  and  C_16
REMARK                            x       y       z     vdW  Elec       q    Type
REMARK                         _______ _______ _______ _____ _____    ______ ____
ROOT
ATOM      1  C   UNL     1       4.281   5.471  17.270  0.00  0.00    +0.000 A 
ATOM      2  O   UNL     1       4.564   4.140  17.152  0.00  0.00    +0.000 OA
ATOM      3  C   UNL     1       3.535   3.462  17.724  0.00  0.00    +0.000 A 
ATOM      4  C   UNL     1       3.447   2.072  17.799  0.00  0.00    +0.000 A 
ATOM      5  C   UNL     1       2.295   1.543  18.385  0.00  0.00    +0.000 A 
ATOM      6  C   UNL     1       1.285   2.379  18.852  0.00  0.00    +0.000 A 
ATOM      7  C   UNL     1       1.407   3.774  18.766  0.00  0.00    +0.000 A 
ATOM      8  C   UNL     1       2.573   4.344  18.211  0.00  0.00    +0.000 A 
ATOM      9  C   UNL     1       3.086   5.655  17.951  0.00  0.00    +0.000 A 
ENDROOT
BRANCH   1  11
ATOM     10  N   UNL     1       5.417   6.367  15.382  0.00  0.00    +0.000 N 
ATOM     11  C   UNL     1       5.210   6.438  16.731  0.00  0.00    +0.000 C 
ATOM     12  O   UNL     1       5.788   7.284  17.410  0.00  0.00    +0.000 OA
ATOM     13  H   UNL     1       6.045   7.025  14.947  0.00  0.00    +0.000 HD
ATOM     14  H   UNL     1       4.926   5.684  14.819  0.00  0.00    +0.000 HD
ENDBRANCH   1  11
BRANCH   9  15
ATOM     15  N   UNL     1       2.596   6.929  18.232  0.00  0.00    +0.000 N 
ATOM     16  C   UNL     1       2.121   7.368  19.449  0.00  0.00    +0.000 C 
ATOM     17  O   UNL     1       2.112   6.743  20.501  0.00  0.00    +0.000 OA
ATOM     18  H   UNL     1       2.674   7.593  17.466  0.00  0.00    +0.000 HD
BRANCH  16  19
ATOM     19  C   UNL     1       1.567   8.748  19.466  0.00  0.00    +0.000 A 
ATOM     20  C   UNL     1       1.659   9.617  18.375  0.00  0.00    +0.000 A 
ATOM     21  C   UNL     1       1.106  10.898  18.464  0.00  0.00    +0.000 A 
ATOM     22  C   UNL     1       0.456  11.326  19.636  0.00  0.00    +0.000 A 
ATOM     23  C   UNL     1      -0.117  12.603  19.737  0.00  0.00    +0.000 A 
ATOM     24  C   UNL     1      -0.760  13.005  20.908  0.00  0.00    +0.000 A 
ATOM     25  C   UNL     1      -0.835  12.141  21.996  0.00  0.00    +0.000 A 
ATOM     26  C   UNL     1      -0.267  10.870  21.916  0.00  0.00    +0.000 A 
ATOM     27  C   UNL     1       0.378  10.451  20.743  0.00  0.00    +0.000 A 
ATOM     28  C   UNL     1       0.944   9.172  20.647  0.00  0.00    +0.000 A 
ENDBRANCH  16  19
ENDBRANCH   9  15
TORSDOF 3
ENDMDL
