MODEL 1
REMARK VINA RESULT:      -8.4      0.000      0.000
REMARK  Name = 
REMARK  3 active torsions:
REMARK  status: ('A' for Active; 'I' for Inactive)
REMARK    1  A    between atoms: C_2  and  C_17
REMARK    2  A    between atoms: N_3  and  C_4
REMARK    3  A    between atoms: N_7  and  C_8
REMARK                            x       y       z     vdW  Elec       q    Type
REMARK                         _______ _______ _______ _____ _____    ______ ____
ROOT
ATOM      1  O   UNL     1       3.235   5.875  20.086  0.00  0.00    +0.000 OA
ATOM      2  C   UNL     1       2.960   6.694  19.216  0.00  0.00    +0.000 C 
ATOM      3  N   UNL     1       3.527   6.650  17.960  0.00  0.00    +0.000 N 
ATOM      4  H   UNL     1       3.399   7.458  17.352  0.00  0.00    +0.000 HD
ENDROOT
BRANCH   2   5
ATOM      5  C   UNL     1       1.983   7.802  19.505  0.00  0.00    +0.000 A 
ATOM      6  C   UNL     1       1.408   7.830  20.797  0.00  0.00    +0.000 A 
ATOM      7  C   UNL     1       0.542   8.862  21.152  0.00  0.00    +0.000 A 
ATOM      8  C   UNL     1       0.296   9.788  20.180  0.00  0.00    +0.000 A 
ATOM      9  N   UNL     1      -0.501  10.928  20.213  0.00  0.00    +0.000 N 
ATOM     10  C   UNL     1      -0.441  11.542  18.957  0.00  0.00    +0.000 A 
ATOM     11  O   UNL     1      -1.013  12.559  18.624  0.00  0.00    +0.000 OA
ATOM     12  N   UNL     1       0.408  10.751  18.165  0.00  0.00    +0.000 N 
ATOM     13  C   UNL     1       0.877   9.681  18.914  0.00  0.00    +0.000 A 
ATOM     14  N   UNL     1       1.727   8.718  18.522  0.00  0.00    +0.000 NA
ATOM     15  H   UNL     1      -1.037  11.282  20.989  0.00  0.00    +0.000 HD
ATOM     16  H   UNL     1       0.630  10.940  17.202  0.00  0.00    +0.000 HD
ENDBRANCH   2   5
BRANCH   3  17
ATOM     17  C   UNL     1       4.568   5.674  17.653  0.00  0.00    +0.000 C 
ATOM     18  C   UNL     1       4.060   4.239  17.537  0.00  0.00    +0.000 C 
ATOM     19  C   UNL     1       5.003   3.591  16.546  0.00  0.00    +0.000 C 
ATOM     20  N   UNL     1       5.425   4.667  15.682  0.00  0.00    +0.000 N 
ATOM     21  C   UNL     1       5.253   5.914  16.306  0.00  0.00    +0.000 C 
ATOM     22  O   UNL     1       5.617   7.019  15.928  0.00  0.00    +0.000 OA
BRANCH  20  23
ATOM     23  C   UNL     1       6.039   4.440  14.425  0.00  0.00    +0.000 A 
ATOM     24  C   UNL     1       7.168   5.169  14.030  0.00  0.00    +0.000 A 
ATOM     25  C   UNL     1       7.757   4.975  12.780  0.00  0.00    +0.000 A 
ATOM     26  C   UNL     1       7.218   4.047  11.893  0.00  0.00    +0.000 A 
ATOM     27  C   UNL     1       6.095   3.318  12.271  0.00  0.00    +0.000 A 
ATOM     28 CL   UNL     1       5.396   2.201  11.162  0.00  0.00    +0.000 Cl
ATOM     29  C   UNL     1       5.512   3.501  13.525  0.00  0.00    +0.000 A 
ENDBRANCH  20  23
ENDBRANCH   3  17
TORSDOF 3
ENDMDL
MODEL 2
REMARK VINA RESULT:      -8.3      1.140      1.583
REMARK  Name = 
REMARK  3 active torsions:
REMARK  status: ('A' for Active; 'I' for Inactive)
REMARK    1  A    between atoms: C_2  and  C_17
REMARK    2  A    between atoms: N_3  and  C_4
REMARK    3  A    between atoms: N_7  and  C_8
REMARK                            x       y       z     vdW  Elec       q    Type
REMARK                         _______ _______ _______ _____ _____    ______ ____
ROOT
ATOM      1  O   UNL     1       3.035   5.983  20.050  0.00  0.00    +0.000 OA
ATOM      2  C   UNL     1       2.877   6.851  19.199  0.00  0.00    +0.000 C 
ATOM      3  N   UNL     1       3.504   6.800  17.972  0.00  0.00    +0.000 N 
ATOM      4  H   UNL     1       3.477   7.637  17.390  0.00  0.00    +0.000 HD
ENDROOT
BRANCH   2   5
ATOM      5  C   UNL     1       1.986   8.030  19.482  0.00  0.00    +0.000 A 
ATOM      6  C   UNL     1       1.673   8.874  18.391  0.00  0.00    +0.000 A 
ATOM      7  C   UNL     1       0.804   9.949  18.568  0.00  0.00    +0.000 A 
ATOM      8  C   UNL     1       0.322  10.117  19.835  0.00  0.00    +0.000 A 
ATOM      9  N   UNL     1      -0.558  11.071  20.337  0.00  0.00    +0.000 N 
ATOM     10  C   UNL     1      -0.730  10.832  21.705  0.00  0.00    +0.000 A 
ATOM     11  O   UNL     1      -1.428  11.469  22.465  0.00  0.00    +0.000 OA
ATOM     12  N   UNL     1       0.061   9.715  22.018  0.00  0.00    +0.000 N 
ATOM     13  C   UNL     1       0.698   9.261  20.872  0.00  0.00    +0.000 A 
ATOM     14  N   UNL     1       1.518   8.203  20.756  0.00  0.00    +0.000 NA
ATOM     15  H   UNL     1      -1.013  11.815  19.833  0.00  0.00    +0.000 HD
ATOM     16  H   UNL     1       0.148   9.317  22.939  0.00  0.00    +0.000 HD
ENDBRANCH   2   5
BRANCH   3  17
ATOM     17  C   UNL     1       4.471   5.747  17.679  0.00  0.00    +0.000 C 
ATOM     18  C   UNL     1       3.851   4.362  17.512  0.00  0.00    +0.000 C 
ATOM     19  C   UNL     1       4.772   3.658  16.540  0.00  0.00    +0.000 C 
ATOM     20  N   UNL     1       5.313   4.712  15.717  0.00  0.00    +0.000 N 
ATOM     21  C   UNL     1       5.222   5.956  16.363  0.00  0.00    +0.000 C 
ATOM     22  O   UNL     1       5.690   7.034  16.024  0.00  0.00    +0.000 OA
BRANCH  20  23
ATOM     23  C   UNL     1       5.953   4.460  14.477  0.00  0.00    +0.000 A 
ATOM     24  C   UNL     1       7.108   5.157  14.104  0.00  0.00    +0.000 A 
ATOM     25  C   UNL     1       7.724   4.939  12.871  0.00  0.00    +0.000 A 
ATOM     26  C   UNL     1       7.184   4.017  11.979  0.00  0.00    +0.000 A 
ATOM     27  C   UNL     1       6.034   3.319  12.333  0.00  0.00    +0.000 A 
ATOM     28 CL   UNL     1       5.335   2.211  11.216  0.00  0.00    +0.000 Cl
ATOM     29  C   UNL     1       5.425   3.527  13.572  0.00  0.00    +0.000 A 
ENDBRANCH  20  23
ENDBRANCH   3  17
TORSDOF 3
ENDMDL
MODEL 3
REMARK VINA RESULT:      -8.1      4.754     10.212
REMARK  Name = 
REMARK  3 active torsions:
REMARK  status: ('A' for Active; 'I' for Inactive)
REMARK    1  A    between atoms: C_2  and  C_17
REMARK    2  A    between atoms: N_3  and  C_4
REMARK    3  A    between atoms: N_7  and  C_8
REMARK                            x       y       z     vdW  Elec       q    Type
REMARK                         _______ _______ _______ _____ _____    ______ ____
ROOT
ATOM      1  O   UNL     1       1.504   5.832  20.569  0.00  0.00    +0.000 OA
ATOM      2  C   UNL     1       2.163   6.746  20.084  0.00  0.00    +0.000 C 
ATOM      3  N   UNL     1       1.894   8.070  20.358  0.00  0.00    +0.000 N 
ATOM      4  H   UNL     1       2.354   8.776  19.785  0.00  0.00    +0.000 HD
ENDROOT
BRANCH   2   5
ATOM      5  C   UNL     1       3.300   6.441  19.146  0.00  0.00    +0.000 A 
ATOM      6  C   UNL     1       3.315   7.131  17.912  0.00  0.00    +0.000 A 
ATOM      7  C   UNL     1       4.370   6.942  17.021  0.00  0.00    +0.000 A 
ATOM      8  C   UNL     1       5.331   6.059  17.422  0.00  0.00    +0.000 A 
ATOM      9  N   UNL     1       6.500   5.659  16.782  0.00  0.00    +0.000 N 
ATOM     10  C   UNL     1       7.144   4.718  17.593  0.00  0.00    +0.000 A 
ATOM     11  O   UNL     1       8.191   4.155  17.351  0.00  0.00    +0.000 OA
ATOM     12  N   UNL     1       6.343   4.559  18.735  0.00  0.00    +0.000 N 
ATOM     13  C   UNL     1       5.235   5.390  18.645  0.00  0.00    +0.000 A 
ATOM     14  N   UNL     1       4.251   5.543  19.545  0.00  0.00    +0.000 NA
ATOM     15  H   UNL     1       6.854   5.974  15.893  0.00  0.00    +0.000 HD
ATOM     16  H   UNL     1       6.549   3.931  19.494  0.00  0.00    +0.000 HD
ENDBRANCH   2   5
BRANCH   3  17
ATOM     17  C   UNL     1       0.735   8.438  21.165  0.00  0.00    +0.000 C 
ATOM     18  C   UNL     1       1.079   8.868  22.589  0.00  0.00    +0.000 C 
ATOM     19  C   UNL     1      -0.010   9.855  22.951  0.00  0.00    +0.000 C 
ATOM     20  N   UNL     1      -0.392  10.458  21.698  0.00  0.00    +0.000 N 
ATOM     21  C   UNL     1      -0.038   9.637  20.613  0.00  0.00    +0.000 C 
ATOM     22  O   UNL     1      -0.317   9.766  19.430  0.00  0.00    +0.000 OA
BRANCH  20  23
ATOM     23  C   UNL     1      -1.136  11.662  21.626  0.00  0.00    +0.000 A 
ATOM     24  C   UNL     1      -0.888  12.606  20.621  0.00  0.00    +0.000 A 
ATOM     25  C   UNL     1      -1.593  13.809  20.564  0.00  0.00    +0.000 A 
ATOM     26  C   UNL     1      -2.560  14.094  21.525  0.00  0.00    +0.000 A 
ATOM     27  C   UNL     1      -2.814  13.169  22.530  0.00  0.00    +0.000 A 
ATOM     28 CL   UNL     1      -3.976  13.535  23.747  0.00  0.00    +0.000 Cl
ATOM     29  C   UNL     1      -2.119  11.959  22.581  0.00  0.00    +0.000 A 
ENDBRANCH  20  23
ENDBRANCH   3  17
TORSDOF 3
ENDMDL
MODEL 4
REMARK VINA RESULT:      -8.1      5.088     10.584
REMARK  Name = 
REMARK  3 active torsions:
REMARK  status: ('A' for Active; 'I' for Inactive)
REMARK    1  A    between atoms: C_2  and  C_17
REMARK    2  A    between atoms: N_3  and  C_4
REMARK    3  A    between atoms: N_7  and  C_8
REMARK                            x       y       z     vdW  Elec       q    Type
REMARK                         _______ _______ _______ _____ _____    ______ ____
ROOT
ATOM      1  O   UNL     1       2.217   9.710  17.447  0.00  0.00    +0.000 OA
ATOM      2  C   UNL     1       1.904   8.966  18.370  0.00  0.00    +0.000 C 
ATOM      3  N   UNL     1       0.985   9.334  19.330  0.00  0.00    +0.000 N 
ATOM      4  H   UNL     1       0.910   8.751  20.163  0.00  0.00    +0.000 HD
ENDROOT
BRANCH   2   5
ATOM      5  C   UNL     1       2.537   7.607  18.491  0.00  0.00    +0.000 A 
ATOM      6  C   UNL     1       3.565   7.294  17.571  0.00  0.00    +0.000 A 
ATOM      7  C   UNL     1       4.237   6.076  17.664  0.00  0.00    +0.000 A 
ATOM      8  C   UNL     1       3.819   5.246  18.664  0.00  0.00    +0.000 A 
ATOM      9  N   UNL     1       4.278   3.984  19.028  0.00  0.00    +0.000 N 
ATOM     10  C   UNL     1       3.513   3.534  20.110  0.00  0.00    +0.000 A 
ATOM     11  O   UNL     1       3.635   2.473  20.686  0.00  0.00    +0.000 OA
ATOM     12  N   UNL     1       2.584   4.547  20.392  0.00  0.00    +0.000 N 
ATOM     13  C   UNL     1       2.775   5.609  19.519  0.00  0.00    +0.000 A 
ATOM     14  N   UNL     1       2.104   6.772  19.484  0.00  0.00    +0.000 NA
ATOM     15  H   UNL     1       5.030   3.459  18.611  0.00  0.00    +0.000 HD
ATOM     16  H   UNL     1       1.888   4.498  21.117  0.00  0.00    +0.000 HD
ENDBRANCH   2   5
BRANCH   3  17
ATOM     17  C   UNL     1       0.422  10.681  19.338  0.00  0.00    +0.000 C 
ATOM     18  C   UNL     1      -1.007  10.761  18.806  0.00  0.00    +0.000 C 
ATOM     19  C   UNL     1      -1.616  11.926  19.555  0.00  0.00    +0.000 C 
ATOM     20  N   UNL     1      -0.927  11.950  20.822  0.00  0.00    +0.000 N 
ATOM     21  C   UNL     1       0.311  11.288  20.737  0.00  0.00    +0.000 C 
ATOM     22  O   UNL     1       1.206  11.225  21.568  0.00  0.00    +0.000 OA
BRANCH  20  23
ATOM     23  C   UNL     1      -1.416  12.666  21.944  0.00  0.00    +0.000 A 
ATOM     24  C   UNL     1      -0.760  13.810  22.414  0.00  0.00    +0.000 A 
ATOM     25  C   UNL     1      -1.216  14.500  23.538  0.00  0.00    +0.000 A 
ATOM     26  C   UNL     1      -2.341  14.046  24.222  0.00  0.00    +0.000 A 
ATOM     27  C   UNL     1      -3.000  12.909  23.770  0.00  0.00    +0.000 A 
ATOM     28 CL   UNL     1      -4.364  12.316  24.638  0.00  0.00    +0.000 Cl
ATOM     29  C   UNL     1      -2.553  12.225  22.638  0.00  0.00    +0.000 A 
ENDBRANCH  20  23
ENDBRANCH   3  17
TORSDOF 3
ENDMDL
MODEL 5
REMARK VINA RESULT:      -8.1      5.365     10.471
REMARK  Name = 
REMARK  3 active torsions:
REMARK  status: ('A' for Active; 'I' for Inactive)
REMARK    1  A    between atoms: C_2  and  C_17
REMARK    2  A    between atoms: N_3  and  C_4
REMARK    3  A    between atoms: N_7  and  C_8
REMARK                            x       y       z     vdW  Elec       q    Type
REMARK                         _______ _______ _______ _____ _____    ______ ____
ROOT
ATOM      1  O   UNL     1       2.558   8.439  18.175  0.00  0.00    +0.000 OA
ATOM      2  C   UNL     1       2.010   7.859  19.106  0.00  0.00    +0.000 C 
ATOM      3  N   UNL     1       1.146   8.504  19.965  0.00  0.00    +0.000 N 
ATOM      4  H   UNL     1       0.873   8.017  20.818  0.00  0.00    +0.000 HD
ENDROOT
BRANCH   2   5
ATOM      5  C   UNL     1       2.282   6.399  19.350  0.00  0.00    +0.000 A 
ATOM      6  C   UNL     1       1.902   5.878  20.608  0.00  0.00    +0.000 A 
ATOM      7  C   UNL     1       2.068   4.521  20.880  0.00  0.00    +0.000 A 
ATOM      8  C   UNL     1       2.623   3.781  19.875  0.00  0.00    +0.000 A 
ATOM      9  N   UNL     1       2.910   2.421  19.821  0.00  0.00    +0.000 N 
ATOM     10  C   UNL     1       3.491   2.144  18.578  0.00  0.00    +0.000 A 
ATOM     11  O   UNL     1       3.869   1.061  18.185  0.00  0.00    +0.000 OA
ATOM     12  N   UNL     1       3.548   3.363  17.883  0.00  0.00    +0.000 N 
ATOM     13  C   UNL     1       3.002   4.370  18.666  0.00  0.00    +0.000 A 
ATOM     14  N   UNL     1       2.852   5.666  18.346  0.00  0.00    +0.000 NA
ATOM     15  H   UNL     1       2.740   1.727  20.531  0.00  0.00    +0.000 HD
ATOM     16  H   UNL     1       3.931   3.476  16.959  0.00  0.00    +0.000 HD
ENDBRANCH   2   5
BRANCH   3  17
ATOM     17  C   UNL     1       0.931   9.944  19.855  0.00  0.00    +0.000 C 
ATOM     18  C   UNL     1      -0.258  10.330  18.980  0.00  0.00    +0.000 C 
ATOM     19  C   UNL     1      -0.747  11.634  19.572  0.00  0.00    +0.000 C 
ATOM     20  N   UNL     1      -0.411  11.551  20.972  0.00  0.00    +0.000 N 
ATOM     21  C   UNL     1       0.617  10.618  21.192  0.00  0.00    +0.000 C 
ATOM     22  O   UNL     1       1.233  10.383  22.221  0.00  0.00    +0.000 OA
BRANCH  20  23
ATOM     23  C   UNL     1      -0.985  12.406  21.947  0.00  0.00    +0.000 A 
ATOM     24  C   UNL     1      -0.380  13.621  22.289  0.00  0.00    +0.000 A 
ATOM     25  C   UNL     1      -0.921  14.452  23.271  0.00  0.00    +0.000 A 
ATOM     26  C   UNL     1      -2.081  14.072  23.940  0.00  0.00    +0.000 A 
ATOM     27  C   UNL     1      -2.691  12.866  23.614  0.00  0.00    +0.000 A 
ATOM     28 CL   UNL     1      -4.101  12.369  24.470  0.00  0.00    +0.000 Cl
ATOM     29  C   UNL     1      -2.159  12.040  22.623  0.00  0.00    +0.000 A 
ENDBRANCH  20  23
ENDBRANCH   3  17
TORSDOF 3
ENDMDL
MODEL 6
REMARK VINA RESULT:      -8.1      1.764      2.312
REMARK  Name = 
REMARK  3 active torsions:
REMARK  status: ('A' for Active; 'I' for Inactive)
REMARK    1  A    between atoms: C_2  and  C_17
REMARK    2  A    between atoms: N_3  and  C_4
REMARK    3  A    between atoms: N_7  and  C_8
REMARK                            x       y       z     vdW  Elec       q    Type
REMARK                         _______ _______ _______ _____ _____    ______ ____
ROOT
ATOM      1  O   UNL     1       2.608   5.545  20.080  0.00  0.00    +0.000 OA
ATOM      2  C   UNL     1       2.675   6.575  19.419  0.00  0.00    +0.000 C 
ATOM      3  N   UNL     1       3.449   6.669  18.281  0.00  0.00    +0.000 N 
ATOM      4  H   UNL     1       3.606   7.597  17.889  0.00  0.00    +0.000 HD
ENDROOT
BRANCH   2   5
ATOM      5  C   UNL     1       1.909   7.798  19.848  0.00  0.00    +0.000 A 
ATOM      6  C   UNL     1       1.616   8.755  18.849  0.00  0.00    +0.000 A 
ATOM      7  C   UNL     1       0.858   9.881  19.162  0.00  0.00    +0.000 A 
ATOM      8  C   UNL     1       0.460   9.980  20.465  0.00  0.00    +0.000 A 
ATOM      9  N   UNL     1      -0.303  10.960  21.093  0.00  0.00    +0.000 N 
ATOM     10  C   UNL     1      -0.425  10.620  22.445  0.00  0.00    +0.000 A 
ATOM     11  O   UNL     1      -1.022  11.248  23.294  0.00  0.00    +0.000 OA
ATOM     12  N   UNL     1       0.279   9.418  22.621  0.00  0.00    +0.000 N 
ATOM     13  C   UNL     1       0.812   9.010  21.406  0.00  0.00    +0.000 A 
ATOM     14  N   UNL     1       1.526   7.901  21.157  0.00  0.00    +0.000 NA
ATOM     15  H   UNL     1      -0.716  11.779  20.678  0.00  0.00    +0.000 HD
ATOM     16  H   UNL     1       0.378   8.937  23.500  0.00  0.00    +0.000 HD
ENDBRANCH   2   5
BRANCH   3  17
ATOM     17  C   UNL     1       4.307   5.559  17.877  0.00  0.00    +0.000 C 
ATOM     18  C   UNL     1       3.547   4.289  17.505  0.00  0.00    +0.000 C 
ATOM     19  C   UNL     1       4.428   3.618  16.475  0.00  0.00    +0.000 C 
ATOM     20  N   UNL     1       5.118   4.701  15.818  0.00  0.00    +0.000 N 
ATOM     21  C   UNL     1       5.135   5.852  16.625  0.00  0.00    +0.000 C 
ATOM     22  O   UNL     1       5.733   6.904  16.449  0.00  0.00    +0.000 OA
BRANCH  20  23
ATOM     23  C   UNL     1       5.781   4.543  14.576  0.00  0.00    +0.000 A 
ATOM     24  C   UNL     1       5.307   3.644  13.612  0.00  0.00    +0.000 A 
ATOM     25  C   UNL     1       5.974   3.458  12.401  0.00  0.00    +0.000 A 
ATOM     26  C   UNL     1       7.141   4.167  12.134  0.00  0.00    +0.000 A 
ATOM     27  C   UNL     1       7.626   5.061  13.083  0.00  0.00    +0.000 A 
ATOM     28 CL   UNL     1       9.094   5.908  12.779  0.00  0.00    +0.000 Cl
ATOM     29  C   UNL     1       6.953   5.258  14.290  0.00  0.00    +0.000 A 
ENDBRANCH  20  23
ENDBRANCH   3  17
TORSDOF 3
ENDMDL
MODEL 7
REMARK VINA RESULT:      -8.1      4.338     10.041
REMARK  Name = 
REMARK  3 active torsions:
REMARK  status: ('A' for Active; 'I' for Inactive)
REMARK    1  A    between atoms: C_2  and  C_17
REMARK    2  A    between atoms: N_3  and  C_4
REMARK    3  A    between atoms: N_7  and  C_8
REMARK                            x       y       z     vdW  Elec       q    Type
REMARK                         _______ _______ _______ _____ _____    ______ ____
ROOT
ATOM      1  O   UNL     1       1.617   5.932  20.661  0.00  0.00    +0.000 OA
ATOM      2  C   UNL     1       2.195   6.820  20.043  0.00  0.00    +0.000 C 
ATOM      3  N   UNL     1       1.842   8.147  20.162  0.00  0.00    +0.000 N 
ATOM      4  H   UNL     1       2.234   8.805  19.489  0.00  0.00    +0.000 HD
ENDROOT
BRANCH   2   5
ATOM      5  C   UNL     1       3.323   6.476  19.107  0.00  0.00    +0.000 A 
ATOM      6  C   UNL     1       3.320   7.105  17.840  0.00  0.00    +0.000 A 
ATOM      7  C   UNL     1       4.365   6.879  16.947  0.00  0.00    +0.000 A 
ATOM      8  C   UNL     1       5.336   6.021  17.379  0.00  0.00    +0.000 A 
ATOM      9  N   UNL     1       6.499   5.597  16.745  0.00  0.00    +0.000 N 
ATOM     10  C   UNL     1       7.159   4.700  17.593  0.00  0.00    +0.000 A 
ATOM     11  O   UNL     1       8.206   4.131  17.365  0.00  0.00    +0.000 OA
ATOM     12  N   UNL     1       6.372   4.592  18.750  0.00  0.00    +0.000 N 
ATOM     13  C   UNL     1       5.259   5.412  18.633  0.00  0.00    +0.000 A 
ATOM     14  N   UNL     1       4.284   5.603  19.537  0.00  0.00    +0.000 NA
ATOM     15  H   UNL     1       6.841   5.871  15.838  0.00  0.00    +0.000 HD
ATOM     16  H   UNL     1       6.590   4.002  19.536  0.00  0.00    +0.000 HD
ENDBRANCH   2   5
BRANCH   3  17
ATOM     17  C   UNL     1       0.684   8.535  20.960  0.00  0.00    +0.000 C 
ATOM     18  C   UNL     1       1.017   8.895  22.406  0.00  0.00    +0.000 C 
ATOM     19  C   UNL     1      -0.034   9.915  22.786  0.00  0.00    +0.000 C 
ATOM     20  N   UNL     1      -0.364  10.581  21.550  0.00  0.00    +0.000 N 
ATOM     21  C   UNL     1      -0.024   9.788  20.441  0.00  0.00    +0.000 C 
ATOM     22  O   UNL     1      -0.274   9.974  19.259  0.00  0.00    +0.000 OA
BRANCH  20  23
ATOM     23  C   UNL     1      -1.053  11.820  21.511  0.00  0.00    +0.000 A 
ATOM     24  C   UNL     1      -2.222  12.022  22.256  0.00  0.00    +0.000 A 
ATOM     25  C   UNL     1      -2.923  13.226  22.196  0.00  0.00    +0.000 A 
ATOM     26  C   UNL     1      -2.468  14.255  21.376  0.00  0.00    +0.000 A 
ATOM     27  C   UNL     1      -1.311  14.068  20.628  0.00  0.00    +0.000 A 
ATOM     28 CL   UNL     1      -0.768  15.320  19.577  0.00  0.00    +0.000 Cl
ATOM     29  C   UNL     1      -0.601  12.869  20.697  0.00  0.00    +0.000 A 
ENDBRANCH  20  23
ENDBRANCH   3  17
TORSDOF 3
ENDMDL
MODEL 8
REMARK VINA RESULT:      -8.1      5.708      7.175
REMARK  Name = 
REMARK  3 active torsions:
REMARK  status: ('A' for Active; 'I' for Inactive)
REMARK    1  A    between atoms: C_2  and  C_17
REMARK    2  A    between atoms: N_3  and  C_4
REMARK    3  A    between atoms: N_7  and  C_8
REMARK                            x       y       z     vdW  Elec       q    Type
REMARK                         _______ _______ _______ _____ _____    ______ ____
ROOT
ATOM      1  O   UNL     1       8.639   7.497  18.939  0.00  0.00    +0.000 OA
ATOM      2  C   UNL     1       8.190   8.410  18.255  0.00  0.00    +0.000 C 
ATOM      3  N   UNL     1       7.286   8.189  17.237  0.00  0.00    +0.000 N 
ATOM      4  H   UNL     1       7.098   8.957  16.594  0.00  0.00    +0.000 HD
ENDROOT
BRANCH   2   5
ATOM      5  C   UNL     1       8.634   9.827  18.502  0.00  0.00    +0.000 A 
ATOM      6  C   UNL     1       9.463  10.052  19.626  0.00  0.00    +0.000 A 
ATOM      7  C   UNL     1       9.960  11.329  19.880  0.00  0.00    +0.000 A 
ATOM      8  C   UNL     1       9.576  12.299  18.999  0.00  0.00    +0.000 A 
ATOM      9  N   UNL     1       9.898  13.652  18.965  0.00  0.00    +0.000 N 
ATOM     10  C   UNL     1       9.240  14.231  17.873  0.00  0.00    +0.000 A 
ATOM     11  O   UNL     1       9.291  15.396  17.537  0.00  0.00    +0.000 OA
ATOM     12  N   UNL     1       8.516  13.202  17.251  0.00  0.00    +0.000 N 
ATOM     13  C   UNL     1       8.729  12.009  17.927  0.00  0.00    +0.000 A 
ATOM     14  N   UNL     1       8.233  10.798  17.627  0.00  0.00    +0.000 NA
ATOM     15  H   UNL     1      10.499  14.158  19.594  0.00  0.00    +0.000 HD
ATOM     16  H   UNL     1       7.931  13.325  16.440  0.00  0.00    +0.000 HD
ENDBRANCH   2   5
BRANCH   3  17
ATOM     17  C   UNL     1       6.906   6.829  16.869  0.00  0.00    +0.000 C 
ATOM     18  C   UNL     1       7.577   5.746  17.710  0.00  0.00    +0.000 C 
ATOM     19  C   UNL     1       6.574   4.613  17.724  0.00  0.00    +0.000 C 
ATOM     20  N   UNL     1       5.289   5.257  17.610  0.00  0.00    +0.000 N 
ATOM     21  C   UNL     1       5.414   6.541  17.051  0.00  0.00    +0.000 C 
ATOM     22  O   UNL     1       4.535   7.312  16.694  0.00  0.00    +0.000 OA
BRANCH  20  23
ATOM     23  C   UNL     1       4.073   4.597  17.919  0.00  0.00    +0.000 A 
ATOM     24  C   UNL     1       3.572   3.582  17.094  0.00  0.00    +0.000 A 
ATOM     25  C   UNL     1       2.359   2.951  17.374  0.00  0.00    +0.000 A 
ATOM     26  C   UNL     1       1.617   3.334  18.488  0.00  0.00    +0.000 A 
ATOM     27  C   UNL     1       2.100   4.343  19.313  0.00  0.00    +0.000 A 
ATOM     28 CL   UNL     1       1.166   4.853  20.667  0.00  0.00    +0.000 Cl
ATOM     29  C   UNL     1       3.320   4.966  19.043  0.00  0.00    +0.000 A 
ENDBRANCH  20  23
ENDBRANCH   3  17
TORSDOF 3
ENDMDL
MODEL 9
REMARK VINA RESULT:      -8.0      4.483      9.704
REMARK  Name = 
REMARK  3 active torsions:
REMARK  status: ('A' for Active; 'I' for Inactive)
REMARK    1  A    between atoms: C_2  and  C_17
REMARK    2  A    between atoms: N_3  and  C_4
REMARK    3  A    between atoms: N_7  and  C_8
REMARK                            x       y       z     vdW  Elec       q    Type
REMARK                         _______ _______ _______ _____ _____    ______ ____
ROOT
ATOM      1  O   UNL     1       1.197   5.582  20.523  0.00  0.00    +0.000 OA
ATOM      2  C   UNL     1       2.076   6.260  20.002  0.00  0.00    +0.000 C 
ATOM      3  N   UNL     1       2.101   7.635  20.106  0.00  0.00    +0.000 N 
ATOM      4  H   UNL     1       2.744   8.145  19.502  0.00  0.00    +0.000 HD
ENDROOT
BRANCH   2   5
ATOM      5  C   UNL     1       3.168   5.597  19.207  0.00  0.00    +0.000 A 
ATOM      6  C   UNL     1       2.780   4.911  18.032  0.00  0.00    +0.000 A 
ATOM      7  C   UNL     1       3.746   4.326  17.216  0.00  0.00    +0.000 A 
ATOM      8  C   UNL     1       5.037   4.454  17.643  0.00  0.00    +0.000 A 
ATOM      9  N   UNL     1       6.218   4.001  17.064  0.00  0.00    +0.000 N 
ATOM     10  C   UNL     1       7.283   4.367  17.896  0.00  0.00    +0.000 A 
ATOM     11  O   UNL     1       8.458   4.136  17.705  0.00  0.00    +0.000 OA
ATOM     12  N   UNL     1       6.721   5.050  18.987  0.00  0.00    +0.000 N 
ATOM     13  C   UNL     1       5.344   5.121  18.831  0.00  0.00    +0.000 A 
ATOM     14  N   UNL     1       4.457   5.714  19.647  0.00  0.00    +0.000 NA
ATOM     15  H   UNL     1       6.326   3.499  16.197  0.00  0.00    +0.000 HD
ATOM     16  H   UNL     1       7.248   5.422  19.759  0.00  0.00    +0.000 HD
ENDBRANCH   2   5
BRANCH   3  17
ATOM     17  C   UNL     1       1.009   8.346  20.763  0.00  0.00    +0.000 C 
ATOM     18  C   UNL     1       1.364   8.894  22.143  0.00  0.00    +0.000 C 
ATOM     19  C   UNL     1       0.499  10.126  22.287  0.00  0.00    +0.000 C 
ATOM     20  N   UNL     1       0.321  10.611  20.940  0.00  0.00    +0.000 N 
ATOM     21  C   UNL     1       0.545   9.589  20.001  0.00  0.00    +0.000 C 
ATOM     22  O   UNL     1       0.361   9.604  18.792  0.00  0.00    +0.000 OA
BRANCH  20  23
ATOM     23  C   UNL     1      -0.138  11.922  20.655  0.00  0.00    +0.000 A 
ATOM     24  C   UNL     1       0.749  12.928  20.255  0.00  0.00    +0.000 A 
ATOM     25  C   UNL     1       0.309  14.228  20.005  0.00  0.00    +0.000 A 
ATOM     26  C   UNL     1      -1.037  14.548  20.161  0.00  0.00    +0.000 A 
ATOM     27  C   UNL     1      -1.929  13.560  20.561  0.00  0.00    +0.000 A 
ATOM     28 CL   UNL     1      -3.587  13.960  20.799  0.00  0.00    +0.000 Cl
ATOM     29  C   UNL     1      -1.493  12.256  20.798  0.00  0.00    +0.000 A 
ENDBRANCH  20  23
ENDBRANCH   3  17
TORSDOF 3
ENDMDL
