MODEL 1
REMARK VINA RESULT:      -8.2      0.000      0.000
REMARK  Name = 
REMARK  8 active torsions:
REMARK  status: ('A' for Active; 'I' for Inactive)
REMARK    1  A    between atoms: C_1  and  N_2
REMARK    2  A    between atoms: N_2  and  C_3
REMARK    3  A    between atoms: N_2  and  C_10
REMARK    4  A    between atoms: C_3  and  C_4
REMARK    5  A    between atoms: N_8  and  C_9
REMARK    6  A    between atoms: C_14  and  N_15
REMARK    7  A    between atoms: C_20  and  O_21
REMARK    8  A    between atoms: C_23  and  C_24
REMARK                            x       y       z     vdW  Elec       q    Type
REMARK                         _______ _______ _______ _____ _____    ______ ____
ROOT
ATOM      1  N   UNL     1       3.848   4.842  19.350  0.00  0.00    +0.000 N 
ATOM      2  C   UNL     1       5.190   5.468  19.399  0.00  0.00    +0.000 C 
ATOM      3  C   UNL     1       5.780   5.083  18.072  0.00  0.00    +0.000 A 
ATOM      4  C   UNL     1       5.123   3.920  17.648  0.00  0.00    +0.000 A 
ATOM      5  C   UNL     1       5.317   3.362  16.391  0.00  0.00    +0.000 A 
ATOM      6  C   UNL     1       6.169   4.041  15.534  0.00  0.00    +0.000 A 
ATOM      7  C   UNL     1       6.818   5.223  15.925  0.00  0.00    +0.000 A 
ATOM      8  C   UNL     1       6.641   5.764  17.214  0.00  0.00    +0.000 A 
ATOM      9  C   UNL     1       3.984   3.678  18.550  0.00  0.00    +0.000 C 
ATOM     10  O   UNL     1       3.210   2.760  18.416  0.00  0.00    +0.000 OA
ENDROOT
BRANCH   1  15
ATOM     11  C   UNL     1       2.025   8.006  19.515  0.00  0.00    +0.000 A 
ATOM     12  C   UNL     1       2.592   8.470  18.317  0.00  0.00    +0.000 A 
ATOM     13  C   UNL     1       2.982   7.595  17.314  0.00  0.00    +0.000 A 
ATOM     14  C   UNL     1       2.955   6.240  17.559  0.00  0.00    +0.000 A 
ATOM     15  C   UNL     1       2.866   5.816  18.879  0.00  0.00    +0.000 A 
ATOM     16  C   UNL     1       2.254   6.657  19.823  0.00  0.00    +0.000 A 
BRANCH  11  18
ATOM     17  C   UNL     1       0.743   8.304  21.575  0.00  0.00    +0.000 C 
ATOM     18  N   UNL     1       1.334   8.874  20.362  0.00  0.00    +0.000 N 
BRANCH  18  19
ATOM     19  C   UNL     1       0.632  10.024  19.744  0.00  0.00    +0.000 C 
BRANCH  19  20
ATOM     20  C   UNL     1       0.975  11.404  20.218  0.00  0.00    +0.000 A 
ATOM     21  N   UNL     1       0.635  11.932  21.380  0.00  0.00    +0.000 NA
ATOM     22  N   UNL     1       1.265  13.148  21.505  0.00  0.00    +0.000 NA
ATOM     23  C   UNL     1       1.960  13.350  20.413  0.00  0.00    +0.000 A 
ATOM     24  N   UNL     1       1.773  12.308  19.557  0.00  0.00    +0.000 N 
ATOM     25  C   UNL     1       2.295  12.225  18.220  0.00  0.00    +0.000 C 
ENDBRANCH  19  20
ENDBRANCH  18  19
ENDBRANCH  11  18
ENDBRANCH   1  15
BRANCH   8  26
ATOM     26  C   UNL     1       7.288   7.081  17.558  0.00  0.00    +0.000 C 
ATOM     27  F   UNL     1       6.397   8.086  17.762  0.00  0.00    +0.000 F 
ATOM     28  F   UNL     1       8.030   7.013  18.698  0.00  0.00    +0.000 F 
ATOM     29  F   UNL     1       8.134   7.523  16.588  0.00  0.00    +0.000 F 
ENDBRANCH   8  26
BRANCH   6  30
ATOM     30  O   UNL     1       6.355   3.627  14.246  0.00  0.00    +0.000 OA
ATOM     31  H   UNL     1       6.061   2.704  14.164  0.00  0.00    +0.000 HD
ENDBRANCH   6  30
TORSDOF 6
ENDMDL
MODEL 2
REMARK VINA RESULT:      -8.0      3.639      4.966
REMARK  Name = 
REMARK  8 active torsions:
REMARK  status: ('A' for Active; 'I' for Inactive)
REMARK    1  A    between atoms: C_1  and  N_2
REMARK    2  A    between atoms: N_2  and  C_3
REMARK    3  A    between atoms: N_2  and  C_10
REMARK    4  A    between atoms: C_3  and  C_4
REMARK    5  A    between atoms: N_8  and  C_9
REMARK    6  A    between atoms: C_14  and  N_15
REMARK    7  A    between atoms: C_20  and  O_21
REMARK    8  A    between atoms: C_23  and  C_24
REMARK                            x       y       z     vdW  Elec       q    Type
REMARK                         _______ _______ _______ _____ _____    ______ ____
ROOT
ATOM      1  N   UNL     1       2.818   5.901  17.362  0.00  0.00    +0.000 N 
ATOM      2  C   UNL     1       1.760   4.946  17.770  0.00  0.00    +0.000 C 
ATOM      3  C   UNL     1       2.524   3.934  18.575  0.00  0.00    +0.000 A 
ATOM      4  C   UNL     1       3.857   3.981  18.145  0.00  0.00    +0.000 A 
ATOM      5  C   UNL     1       4.875   3.276  18.773  0.00  0.00    +0.000 A 
ATOM      6  C   UNL     1       4.525   2.545  19.897  0.00  0.00    +0.000 A 
ATOM      7  C   UNL     1       3.201   2.503  20.365  0.00  0.00    +0.000 A 
ATOM      8  C   UNL     1       2.167   3.195  19.702  0.00  0.00    +0.000 A 
ATOM      9  C   UNL     1       4.013   5.142  17.252  0.00  0.00    +0.000 C 
ATOM     10  O   UNL     1       5.063   5.460  16.747  0.00  0.00    +0.000 OA
ENDROOT
BRANCH   1  15
ATOM     11  C   UNL     1       1.644   9.062  18.771  0.00  0.00    +0.000 A 
ATOM     12  C   UNL     1       1.280   8.461  19.987  0.00  0.00    +0.000 A 
ATOM     13  C   UNL     1       1.943   7.341  20.467  0.00  0.00    +0.000 A 
ATOM     14  C   UNL     1       2.870   6.715  19.663  0.00  0.00    +0.000 A 
ATOM     15  C   UNL     1       2.868   7.014  18.307  0.00  0.00    +0.000 A 
ATOM     16  C   UNL     1       2.387   8.267  17.887  0.00  0.00    +0.000 A 
BRANCH  11  18
ATOM     17  C   UNL     1       2.254  11.348  18.156  0.00  0.00    +0.000 C 
ATOM     18  N   UNL     1       1.221  10.355  18.459  0.00  0.00    +0.000 N 
BRANCH  18  19
ATOM     19  C   UNL     1      -0.021  10.847  19.100  0.00  0.00    +0.000 C 
BRANCH  19  20
ATOM     20  C   UNL     1      -1.303  10.762  18.327  0.00  0.00    +0.000 A 
ATOM     21  N   UNL     1      -1.511  10.028  17.250  0.00  0.00    +0.000 NA
ATOM     22  N   UNL     1      -2.846  10.098  16.928  0.00  0.00    +0.000 NA
ATOM     23  C   UNL     1      -3.425  10.887  17.800  0.00  0.00    +0.000 A 
ATOM     24  N   UNL     1      -2.491  11.364  18.668  0.00  0.00    +0.000 N 
ATOM     25  C   UNL     1      -2.734  12.336  19.700  0.00  0.00    +0.000 C 
ENDBRANCH  19  20
ENDBRANCH  18  19
ENDBRANCH  11  18
ENDBRANCH   1  15
BRANCH   8  26
ATOM     26  C   UNL     1       0.780   3.193  20.290  0.00  0.00    +0.000 C 
ATOM     27  F   UNL     1      -0.127   2.518  19.536  0.00  0.00    +0.000 F 
ATOM     28  F   UNL     1       0.738   2.611  21.520  0.00  0.00    +0.000 F 
ATOM     29  F   UNL     1       0.273   4.445  20.451  0.00  0.00    +0.000 F 
ENDBRANCH   8  26
BRANCH   6  30
ATOM     30  O   UNL     1       5.466   1.893  20.639  0.00  0.00    +0.000 OA
ATOM     31  H   UNL     1       5.127   1.015  20.883  0.00  0.00    +0.000 HD
ENDBRANCH   6  30
TORSDOF 6
ENDMDL
MODEL 3
REMARK VINA RESULT:      -8.0      0.796      1.038
REMARK  Name = 
REMARK  8 active torsions:
REMARK  status: ('A' for Active; 'I' for Inactive)
REMARK    1  A    between atoms: C_1  and  N_2
REMARK    2  A    between atoms: N_2  and  C_3
REMARK    3  A    between atoms: N_2  and  C_10
REMARK    4  A    between atoms: C_3  and  C_4
REMARK    5  A    between atoms: N_8  and  C_9
REMARK    6  A    between atoms: C_14  and  N_15
REMARK    7  A    between atoms: C_20  and  O_21
REMARK    8  A    between atoms: C_23  and  C_24
REMARK                            x       y       z     vdW  Elec       q    Type
REMARK                         _______ _______ _______ _____ _____    ______ ____
ROOT
ATOM      1  N   UNL     1       3.856   4.863  19.349  0.00  0.00    +0.000 N 
ATOM      2  C   UNL     1       5.198   5.491  19.400  0.00  0.00    +0.000 C 
ATOM      3  C   UNL     1       5.794   5.099  18.078  0.00  0.00    +0.000 A 
ATOM      4  C   UNL     1       5.139   3.933  17.657  0.00  0.00    +0.000 A 
ATOM      5  C   UNL     1       5.339   3.368  16.405  0.00  0.00    +0.000 A 
ATOM      6  C   UNL     1       6.194   4.043  15.547  0.00  0.00    +0.000 A 
ATOM      7  C   UNL     1       6.841   5.228  15.934  0.00  0.00    +0.000 A 
ATOM      8  C   UNL     1       6.657   5.776  17.220  0.00  0.00    +0.000 A 
ATOM      9  C   UNL     1       3.997   3.695  18.556  0.00  0.00    +0.000 C 
ATOM     10  O   UNL     1       3.224   2.776  18.424  0.00  0.00    +0.000 OA
ENDROOT
BRANCH   1  15
ATOM     11  C   UNL     1       1.993   8.003  19.518  0.00  0.00    +0.000 A 
ATOM     12  C   UNL     1       2.585   8.494  18.343  0.00  0.00    +0.000 A 
ATOM     13  C   UNL     1       3.011   7.640  17.336  0.00  0.00    +0.000 A 
ATOM     14  C   UNL     1       2.994   6.281  17.558  0.00  0.00    +0.000 A 
ATOM     15  C   UNL     1       2.876   5.834  18.868  0.00  0.00    +0.000 A 
ATOM     16  C   UNL     1       2.229   6.653  19.810  0.00  0.00    +0.000 A 
BRANCH  11  18
ATOM     17  C   UNL     1       0.769   8.285  21.615  0.00  0.00    +0.000 C 
ATOM     18  N   UNL     1       1.270   8.849  20.360  0.00  0.00    +0.000 N 
BRANCH  18  19
ATOM     19  C   UNL     1       0.461   9.921  19.730  0.00  0.00    +0.000 C 
BRANCH  19  20
ATOM     20  C   UNL     1       0.373  11.246  20.425  0.00  0.00    +0.000 A 
ATOM     21  N   UNL     1       1.296  11.776  21.206  0.00  0.00    +0.000 NA
ATOM     22  N   UNL     1       0.914  13.058  21.522  0.00  0.00    +0.000 NA
ATOM     23  C   UNL     1      -0.242  13.282  20.948  0.00  0.00    +0.000 A 
ATOM     24  N   UNL     1      -0.644  12.161  20.288  0.00  0.00    +0.000 N 
ATOM     25  C   UNL     1      -1.908  11.996  19.622  0.00  0.00    +0.000 C 
ENDBRANCH  19  20
ENDBRANCH  18  19
ENDBRANCH  11  18
ENDBRANCH   1  15
BRANCH   8  26
ATOM     26  C   UNL     1       7.302   7.095  17.560  0.00  0.00    +0.000 C 
ATOM     27  F   UNL     1       6.410   8.103  17.747  0.00  0.00    +0.000 F 
ATOM     28  F   UNL     1       8.033   7.037  18.707  0.00  0.00    +0.000 F 
ATOM     29  F   UNL     1       8.157   7.529  16.594  0.00  0.00    +0.000 F 
ENDBRANCH   8  26
BRANCH   6  30
ATOM     30  O   UNL     1       6.386   3.622  14.263  0.00  0.00    +0.000 OA
ATOM     31  H   UNL     1       6.378   4.394  13.671  0.00  0.00    +0.000 HD
ENDBRANCH   6  30
TORSDOF 6
ENDMDL
MODEL 4
REMARK VINA RESULT:      -7.9      1.431      1.980
REMARK  Name = 
REMARK  8 active torsions:
REMARK  status: ('A' for Active; 'I' for Inactive)
REMARK    1  A    between atoms: C_1  and  N_2
REMARK    2  A    between atoms: N_2  and  C_3
REMARK    3  A    between atoms: N_2  and  C_10
REMARK    4  A    between atoms: C_3  and  C_4
REMARK    5  A    between atoms: N_8  and  C_9
REMARK    6  A    between atoms: C_14  and  N_15
REMARK    7  A    between atoms: C_20  and  O_21
REMARK    8  A    between atoms: C_23  and  C_24
REMARK                            x       y       z     vdW  Elec       q    Type
REMARK                         _______ _______ _______ _____ _____    ______ ____
ROOT
ATOM      1  N   UNL     1       3.761   4.914  19.353  0.00  0.00    +0.000 N 
ATOM      2  C   UNL     1       5.119   5.505  19.422  0.00  0.00    +0.000 C 
ATOM      3  C   UNL     1       5.725   5.089  18.111  0.00  0.00    +0.000 A 
ATOM      4  C   UNL     1       5.045   3.940  17.686  0.00  0.00    +0.000 A 
ATOM      5  C   UNL     1       5.249   3.363  16.440  0.00  0.00    +0.000 A 
ATOM      6  C   UNL     1       6.136   4.010  15.593  0.00  0.00    +0.000 A 
ATOM      7  C   UNL     1       6.809   5.178  15.985  0.00  0.00    +0.000 A 
ATOM      8  C   UNL     1       6.621   5.738  17.265  0.00  0.00    +0.000 A 
ATOM      9  C   UNL     1       3.882   3.738  18.567  0.00  0.00    +0.000 C 
ATOM     10  O   UNL     1       3.086   2.841  18.427  0.00  0.00    +0.000 OA
ENDROOT
BRANCH   1  15
ATOM     11  C   UNL     1       1.972   8.099  19.485  0.00  0.00    +0.000 A 
ATOM     12  C   UNL     1       2.603   8.577  18.325  0.00  0.00    +0.000 A 
ATOM     13  C   UNL     1       3.031   7.715  17.327  0.00  0.00    +0.000 A 
ATOM     14  C   UNL     1       2.976   6.356  17.545  0.00  0.00    +0.000 A 
ATOM     15  C   UNL     1       2.816   5.910  18.851  0.00  0.00    +0.000 A 
ATOM     16  C   UNL     1       2.168   6.742  19.780  0.00  0.00    +0.000 A 
BRANCH  11  18
ATOM     17  C   UNL     1       0.286   8.359  21.236  0.00  0.00    +0.000 C 
ATOM     18  N   UNL     1       1.251   8.961  20.313  0.00  0.00    +0.000 N 
BRANCH  18  19
ATOM     19  C   UNL     1       0.935  10.312  19.791  0.00  0.00    +0.000 C 
BRANCH  19  20
ATOM     20  C   UNL     1      -0.334  10.497  19.016  0.00  0.00    +0.000 A 
ATOM     21  N   UNL     1      -0.620   9.942  17.852  0.00  0.00    +0.000 NA
ATOM     22  N   UNL     1      -1.929  10.228  17.545  0.00  0.00    +0.000 NA
ATOM     23  C   UNL     1      -2.413  10.967  18.513  0.00  0.00    +0.000 A 
ATOM     24  N   UNL     1      -1.438  11.202  19.433  0.00  0.00    +0.000 N 
ATOM     25  C   UNL     1      -1.567  12.056  20.584  0.00  0.00    +0.000 C 
ENDBRANCH  19  20
ENDBRANCH  18  19
ENDBRANCH  11  18
ENDBRANCH   1  15
BRANCH   8  26
ATOM     26  C   UNL     1       7.297   7.040  17.609  0.00  0.00    +0.000 C 
ATOM     27  F   UNL     1       6.428   8.065  17.811  0.00  0.00    +0.000 F 
ATOM     28  F   UNL     1       8.037   6.957  18.749  0.00  0.00    +0.000 F 
ATOM     29  F   UNL     1       8.153   7.463  16.638  0.00  0.00    +0.000 F 
ENDBRANCH   8  26
BRANCH   6  30
ATOM     30  O   UNL     1       6.336   3.578  14.314  0.00  0.00    +0.000 OA
ATOM     31  H   UNL     1       6.060   4.276  13.695  0.00  0.00    +0.000 HD
ENDBRANCH   6  30
TORSDOF 6
ENDMDL
MODEL 5
REMARK VINA RESULT:      -7.9      1.328      1.583
REMARK  Name = 
REMARK  8 active torsions:
REMARK  status: ('A' for Active; 'I' for Inactive)
REMARK    1  A    between atoms: C_1  and  N_2
REMARK    2  A    between atoms: N_2  and  C_3
REMARK    3  A    between atoms: N_2  and  C_10
REMARK    4  A    between atoms: C_3  and  C_4
REMARK    5  A    between atoms: N_8  and  C_9
REMARK    6  A    between atoms: C_14  and  N_15
REMARK    7  A    between atoms: C_20  and  O_21
REMARK    8  A    between atoms: C_23  and  C_24
REMARK                            x       y       z     vdW  Elec       q    Type
REMARK                         _______ _______ _______ _____ _____    ______ ____
ROOT
ATOM      1  N   UNL     1       4.054   4.548  19.179  0.00  0.00    +0.000 N 
ATOM      2  C   UNL     1       5.369   5.227  19.263  0.00  0.00    +0.000 C 
ATOM      3  C   UNL     1       5.931   5.025  17.884  0.00  0.00    +0.000 A 
ATOM      4  C   UNL     1       5.311   3.890  17.345  0.00  0.00    +0.000 A 
ATOM      5  C   UNL     1       5.487   3.491  16.027  0.00  0.00    +0.000 A 
ATOM      6  C   UNL     1       6.280   4.304  15.232  0.00  0.00    +0.000 A 
ATOM      7  C   UNL     1       6.891   5.461  15.741  0.00  0.00    +0.000 A 
ATOM      8  C   UNL     1       6.733   5.841  17.089  0.00  0.00    +0.000 A 
ATOM      9  C   UNL     1       4.214   3.492  18.244  0.00  0.00    +0.000 C 
ATOM     10  O   UNL     1       3.476   2.561  18.026  0.00  0.00    +0.000 OA
ENDROOT
BRANCH   1  15
ATOM     11  C   UNL     1       2.095   7.576  19.772  0.00  0.00    +0.000 A 
ATOM     12  C   UNL     1       2.607   8.210  18.628  0.00  0.00    +0.000 A 
ATOM     13  C   UNL     1       3.008   7.484  17.516  0.00  0.00    +0.000 A 
ATOM     14  C   UNL     1       3.050   6.109  17.593  0.00  0.00    +0.000 A 
ATOM     15  C   UNL     1       3.017   5.524  18.853  0.00  0.00    +0.000 A 
ATOM     16  C   UNL     1       2.393   6.213  19.907  0.00  0.00    +0.000 A 
BRANCH  11  18
ATOM     17  C   UNL     1       0.284   7.620  21.413  0.00  0.00    +0.000 C 
ATOM     18  N   UNL     1       1.389   8.300  20.733  0.00  0.00    +0.000 N 
BRANCH  18  19
ATOM     19  C   UNL     1       1.263   9.764  20.538  0.00  0.00    +0.000 C 
BRANCH  19  20
ATOM     20  C   UNL     1       0.253  10.508  21.359  0.00  0.00    +0.000 A 
ATOM     21  N   UNL     1       0.296  10.686  22.666  0.00  0.00    +0.000 NA
ATOM     22  N   UNL     1      -0.717  11.545  23.021  0.00  0.00    +0.000 NA
ATOM     23  C   UNL     1      -1.372  11.859  21.931  0.00  0.00    +0.000 A 
ATOM     24  N   UNL     1      -0.832  11.197  20.871  0.00  0.00    +0.000 N 
ATOM     25  C   UNL     1      -1.347  11.213  19.529  0.00  0.00    +0.000 C 
ENDBRANCH  19  20
ENDBRANCH  18  19
ENDBRANCH  11  18
ENDBRANCH   1  15
BRANCH   8  26
ATOM     26  C   UNL     1       7.335   7.137  17.567  0.00  0.00    +0.000 C 
ATOM     27  F   UNL     1       8.050   7.011  18.716  0.00  0.00    +0.000 F 
ATOM     28  F   UNL     1       8.193   7.679  16.660  0.00  0.00    +0.000 F 
ATOM     29  F   UNL     1       6.398   8.094  17.814  0.00  0.00    +0.000 F 
ENDBRANCH   8  26
BRANCH   6  30
ATOM     30  O   UNL     1       6.441   4.051  13.901  0.00  0.00    +0.000 OA
ATOM     31  H   UNL     1       7.368   3.808  13.732  0.00  0.00    +0.000 HD
ENDBRANCH   6  30
TORSDOF 6
ENDMDL
MODEL 6
REMARK VINA RESULT:      -7.9      6.652      9.312
REMARK  Name = 
REMARK  8 active torsions:
REMARK  status: ('A' for Active; 'I' for Inactive)
REMARK    1  A    between atoms: C_1  and  N_2
REMARK    2  A    between atoms: N_2  and  C_3
REMARK    3  A    between atoms: N_2  and  C_10
REMARK    4  A    between atoms: C_3  and  C_4
REMARK    5  A    between atoms: N_8  and  C_9
REMARK    6  A    between atoms: C_14  and  N_15
REMARK    7  A    between atoms: C_20  and  O_21
REMARK    8  A    between atoms: C_23  and  C_24
REMARK                            x       y       z     vdW  Elec       q    Type
REMARK                         _______ _______ _______ _____ _____    ______ ____
ROOT
ATOM      1  N   UNL     1      -0.477  11.153  18.277  0.00  0.00    +0.000 N 
ATOM      2  C   UNL     1       0.233  10.309  19.267  0.00  0.00    +0.000 C 
ATOM      3  C   UNL     1      -0.043  11.019  20.562  0.00  0.00    +0.000 A 
ATOM      4  C   UNL     1      -0.316  12.358  20.252  0.00  0.00    +0.000 A 
ATOM      5  C   UNL     1      -0.753  13.276  21.197  0.00  0.00    +0.000 A 
ATOM      6  C   UNL     1      -0.963  12.795  22.480  0.00  0.00    +0.000 A 
ATOM      7  C   UNL     1      -0.724  11.451  22.811  0.00  0.00    +0.000 A 
ATOM      8  C   UNL     1      -0.248  10.534  21.852  0.00  0.00    +0.000 A 
ATOM      9  C   UNL     1      -0.441  12.477  18.788  0.00  0.00    +0.000 C 
ATOM     10  O   UNL     1      -0.705  13.511  18.223  0.00  0.00    +0.000 OA
ENDROOT
BRANCH   1  15
ATOM     11  C   UNL     1      -4.083  11.427  17.749  0.00  0.00    +0.000 A 
ATOM     12  C   UNL     1      -3.994  10.944  16.433  0.00  0.00    +0.000 A 
ATOM     13  C   UNL     1      -2.995  10.059  16.054  0.00  0.00    +0.000 A 
ATOM     14  C   UNL     1      -1.983   9.770  16.943  0.00  0.00    +0.000 A 
ATOM     15  C   UNL     1      -1.812  10.611  18.035  0.00  0.00    +0.000 A 
ATOM     16  C   UNL     1      -2.921  11.323  18.525  0.00  0.00    +0.000 A 
BRANCH  11  18
ATOM     17  C   UNL     1      -6.097  12.710  17.223  0.00  0.00    +0.000 C 
ATOM     18  N   UNL     1      -5.255  12.031  18.210  0.00  0.00    +0.000 N 
BRANCH  18  19
ATOM     19  C   UNL     1      -5.251  12.578  19.587  0.00  0.00    +0.000 C 
BRANCH  19  20
ATOM     20  C   UNL     1      -6.329  12.136  20.531  0.00  0.00    +0.000 A 
ATOM     21  N   UNL     1      -6.867  10.932  20.584  0.00  0.00    +0.000 NA
ATOM     22  N   UNL     1      -7.701  10.877  21.676  0.00  0.00    +0.000 NA
ATOM     23  C   UNL     1      -7.673  12.051  22.257  0.00  0.00    +0.000 A 
ATOM     24  N   UNL     1      -6.865  12.887  21.550  0.00  0.00    +0.000 N 
ATOM     25  C   UNL     1      -6.667  14.284  21.827  0.00  0.00    +0.000 C 
ENDBRANCH  19  20
ENDBRANCH  18  19
ENDBRANCH  11  18
ENDBRANCH   1  15
BRANCH   8  26
ATOM     26  C   UNL     1      -0.090   9.084  22.231  0.00  0.00    +0.000 C 
ATOM     27  F   UNL     1      -0.966   8.260  21.598  0.00  0.00    +0.000 F 
ATOM     28  F   UNL     1       1.147   8.600  21.932  0.00  0.00    +0.000 F 
ATOM     29  F   UNL     1      -0.266   8.864  23.562  0.00  0.00    +0.000 F 
ENDBRANCH   8  26
BRANCH   6  30
ATOM     30  O   UNL     1      -1.481  13.592  23.459  0.00  0.00    +0.000 OA
ATOM     31  H   UNL     1      -1.499  14.512  23.143  0.00  0.00    +0.000 HD
ENDBRANCH   6  30
TORSDOF 6
ENDMDL
MODEL 7
REMARK VINA RESULT:      -7.8      0.944      1.349
REMARK  Name = 
REMARK  8 active torsions:
REMARK  status: ('A' for Active; 'I' for Inactive)
REMARK    1  A    between atoms: C_1  and  N_2
REMARK    2  A    between atoms: N_2  and  C_3
REMARK    3  A    between atoms: N_2  and  C_10
REMARK    4  A    between atoms: C_3  and  C_4
REMARK    5  A    between atoms: N_8  and  C_9
REMARK    6  A    between atoms: C_14  and  N_15
REMARK    7  A    between atoms: C_20  and  O_21
REMARK    8  A    between atoms: C_23  and  C_24
REMARK                            x       y       z     vdW  Elec       q    Type
REMARK                         _______ _______ _______ _____ _____    ______ ____
ROOT
ATOM      1  N   UNL     1       3.769   4.949  19.384  0.00  0.00    +0.000 N 
ATOM      2  C   UNL     1       5.122   5.552  19.430  0.00  0.00    +0.000 C 
ATOM      3  C   UNL     1       5.717   5.122  18.118  0.00  0.00    +0.000 A 
ATOM      4  C   UNL     1       5.043   3.961  17.717  0.00  0.00    +0.000 A 
ATOM      5  C   UNL     1       5.238   3.369  16.476  0.00  0.00    +0.000 A 
ATOM      6  C   UNL     1       6.110   4.011  15.611  0.00  0.00    +0.000 A 
ATOM      7  C   UNL     1       6.777   5.190  15.978  0.00  0.00    +0.000 A 
ATOM      8  C   UNL     1       6.598   5.767  17.252  0.00  0.00    +0.000 A 
ATOM      9  C   UNL     1       3.891   3.763  18.614  0.00  0.00    +0.000 C 
ATOM     10  O   UNL     1       3.101   2.857  18.495  0.00  0.00    +0.000 OA
ENDROOT
BRANCH   1  15
ATOM     11  C   UNL     1       1.977   8.133  19.474  0.00  0.00    +0.000 A 
ATOM     12  C   UNL     1       2.579   8.580  18.287  0.00  0.00    +0.000 A 
ATOM     13  C   UNL     1       2.984   7.692  17.301  0.00  0.00    +0.000 A 
ATOM     14  C   UNL     1       2.937   6.339  17.558  0.00  0.00    +0.000 A 
ATOM     15  C   UNL     1       2.810   5.929  18.879  0.00  0.00    +0.000 A 
ATOM     16  C   UNL     1       2.183   6.785  19.800  0.00  0.00    +0.000 A 
BRANCH  11  18
ATOM     17  C   UNL     1       1.167   8.676  21.716  0.00  0.00    +0.000 C 
ATOM     18  N   UNL     1       1.273   9.016  20.295  0.00  0.00    +0.000 N 
BRANCH  18  19
ATOM     19  C   UNL     1       0.146   9.766  19.692  0.00  0.00    +0.000 C 
BRANCH  19  20
ATOM     20  C   UNL     1       0.330  11.229  19.419  0.00  0.00    +0.000 A 
ATOM     21  N   UNL     1       1.362  11.963  19.792  0.00  0.00    +0.000 NA
ATOM     22  N   UNL     1       1.237  13.208  19.222  0.00  0.00    +0.000 NA
ATOM     23  C   UNL     1       0.124  13.219  18.530  0.00  0.00    +0.000 A 
ATOM     24  N   UNL     1      -0.502  12.018  18.661  0.00  0.00    +0.000 N 
ATOM     25  C   UNL     1      -1.797  11.691  18.127  0.00  0.00    +0.000 C 
ENDBRANCH  19  20
ENDBRANCH  18  19
ENDBRANCH  11  18
ENDBRANCH   1  15
BRANCH   8  26
ATOM     26  C   UNL     1       7.267   7.079  17.570  0.00  0.00    +0.000 C 
ATOM     27  F   UNL     1       8.125   7.498  16.604  0.00  0.00    +0.000 F 
ATOM     28  F   UNL     1       6.373   8.093  17.730  0.00  0.00    +0.000 F 
ATOM     29  F   UNL     1       7.993   7.036  18.721  0.00  0.00    +0.000 F 
ENDBRANCH   8  26
BRANCH   6  30
ATOM     30  O   UNL     1       6.299   3.562  14.336  0.00  0.00    +0.000 OA
ATOM     31  H   UNL     1       5.438   3.501  13.889  0.00  0.00    +0.000 HD
ENDBRANCH   6  30
TORSDOF 6
ENDMDL
MODEL 8
REMARK VINA RESULT:      -7.8      0.624      1.331
REMARK  Name = 
REMARK  8 active torsions:
REMARK  status: ('A' for Active; 'I' for Inactive)
REMARK    1  A    between atoms: C_1  and  N_2
REMARK    2  A    between atoms: N_2  and  C_3
REMARK    3  A    between atoms: N_2  and  C_10
REMARK    4  A    between atoms: C_3  and  C_4
REMARK    5  A    between atoms: N_8  and  C_9
REMARK    6  A    between atoms: C_14  and  N_15
REMARK    7  A    between atoms: C_20  and  O_21
REMARK    8  A    between atoms: C_23  and  C_24
REMARK                            x       y       z     vdW  Elec       q    Type
REMARK                         _______ _______ _______ _____ _____    ______ ____
ROOT
ATOM      1  N   UNL     1       3.873   4.768  19.337  0.00  0.00    +0.000 N 
ATOM      2  C   UNL     1       5.210   5.405  19.392  0.00  0.00    +0.000 C 
ATOM      3  C   UNL     1       5.802   5.042  18.060  0.00  0.00    +0.000 A 
ATOM      4  C   UNL     1       5.154   3.879  17.621  0.00  0.00    +0.000 A 
ATOM      5  C   UNL     1       5.352   3.339  16.358  0.00  0.00    +0.000 A 
ATOM      6  C   UNL     1       6.197   4.036  15.508  0.00  0.00    +0.000 A 
ATOM      7  C   UNL     1       6.837   5.218  15.914  0.00  0.00    +0.000 A 
ATOM      8  C   UNL     1       6.656   5.742  17.210  0.00  0.00    +0.000 A 
ATOM      9  C   UNL     1       4.018   3.616  18.522  0.00  0.00    +0.000 C 
ATOM     10  O   UNL     1       3.252   2.694  18.377  0.00  0.00    +0.000 OA
ENDROOT
BRANCH   1  15
ATOM     11  C   UNL     1       2.030   7.917  19.541  0.00  0.00    +0.000 A 
ATOM     12  C   UNL     1       2.589   8.398  18.345  0.00  0.00    +0.000 A 
ATOM     13  C   UNL     1       2.980   7.536  17.332  0.00  0.00    +0.000 A 
ATOM     14  C   UNL     1       2.964   6.178  17.563  0.00  0.00    +0.000 A 
ATOM     15  C   UNL     1       2.883   5.740  18.879  0.00  0.00    +0.000 A 
ATOM     16  C   UNL     1       2.269   6.567  19.834  0.00  0.00    +0.000 A 
BRANCH  11  18
ATOM     17  C   UNL     1       0.880   8.221  21.677  0.00  0.00    +0.000 C 
ATOM     18  N   UNL     1       1.335   8.772  20.399  0.00  0.00    +0.000 N 
BRANCH  18  19
ATOM     19  C   UNL     1       0.505   9.836  19.786  0.00  0.00    +0.000 C 
BRANCH  19  20
ATOM     20  C   UNL     1       0.818  11.264  20.119  0.00  0.00    +0.000 A 
ATOM     21  N   UNL     1       1.631  12.056  19.445  0.00  0.00    +0.000 NA
ATOM     22  N   UNL     1       1.533  13.324  19.967  0.00  0.00    +0.000 NA
ATOM     23  C   UNL     1       0.681  13.280  20.962  0.00  0.00    +0.000 A 
ATOM     24  N   UNL     1       0.242  12.002  21.125  0.00  0.00    +0.000 N 
ATOM     25  C   UNL     1      -0.625  11.548  22.179  0.00  0.00    +0.000 C 
ENDBRANCH  19  20
ENDBRANCH  18  19
ENDBRANCH  11  18
ENDBRANCH   1  15
BRANCH   8  26
ATOM     26  C   UNL     1       7.293   7.058  17.571  0.00  0.00    +0.000 C 
ATOM     27  F   UNL     1       8.045   7.005  18.702  0.00  0.00    +0.000 F 
ATOM     28  F   UNL     1       8.128   7.517  16.598  0.00  0.00    +0.000 F 
ATOM     29  F   UNL     1       6.381   8.047  17.778  0.00  0.00    +0.000 F 
ENDBRANCH   8  26
BRANCH   6  30
ATOM     30  O   UNL     1       6.385   3.641  14.216  0.00  0.00    +0.000 OA
ATOM     31  H   UNL     1       5.520   3.456  13.811  0.00  0.00    +0.000 HD
ENDBRANCH   6  30
TORSDOF 6
ENDMDL
MODEL 9
REMARK VINA RESULT:      -7.8      3.276      4.444
REMARK  Name = 
REMARK  8 active torsions:
REMARK  status: ('A' for Active; 'I' for Inactive)
REMARK    1  A    between atoms: C_1  and  N_2
REMARK    2  A    between atoms: N_2  and  C_3
REMARK    3  A    between atoms: N_2  and  C_10
REMARK    4  A    between atoms: C_3  and  C_4
REMARK    5  A    between atoms: N_8  and  C_9
REMARK    6  A    between atoms: C_14  and  N_15
REMARK    7  A    between atoms: C_20  and  O_21
REMARK    8  A    between atoms: C_23  and  C_24
REMARK                            x       y       z     vdW  Elec       q    Type
REMARK                         _______ _______ _______ _____ _____    ______ ____
ROOT
ATOM      1  N   UNL     1       2.871   5.890  17.401  0.00  0.00    +0.000 N 
ATOM      2  C   UNL     1       1.804   4.934  17.781  0.00  0.00    +0.000 C 
ATOM      3  C   UNL     1       2.554   3.907  18.582  0.00  0.00    +0.000 A 
ATOM      4  C   UNL     1       3.892   3.955  18.168  0.00  0.00    +0.000 A 
ATOM      5  C   UNL     1       4.900   3.237  18.798  0.00  0.00    +0.000 A 
ATOM      6  C   UNL     1       4.532   2.491  19.908  0.00  0.00    +0.000 A 
ATOM      7  C   UNL     1       3.203   2.448  20.358  0.00  0.00    +0.000 A 
ATOM      8  C   UNL     1       2.181   3.154  19.693  0.00  0.00    +0.000 A 
ATOM      9  C   UNL     1       4.064   5.127  17.294  0.00  0.00    +0.000 C 
ATOM     10  O   UNL     1       5.122   5.448  16.807  0.00  0.00    +0.000 OA
ENDROOT
BRANCH   1  15
ATOM     11  C   UNL     1       1.735   9.069  18.799  0.00  0.00    +0.000 A 
ATOM     12  C   UNL     1       1.299   8.465  19.989  0.00  0.00    +0.000 A 
ATOM     13  C   UNL     1       1.903   7.319  20.483  0.00  0.00    +0.000 A 
ATOM     14  C   UNL     1       2.846   6.673  19.713  0.00  0.00    +0.000 A 
ATOM     15  C   UNL     1       2.914   6.989  18.362  0.00  0.00    +0.000 A 
ATOM     16  C   UNL     1       2.492   8.262  17.939  0.00  0.00    +0.000 A 
BRANCH  11  18
ATOM     17  C   UNL     1       2.401  11.255  17.928  0.00  0.00    +0.000 C 
ATOM     18  N   UNL     1       1.368  10.380  18.486  0.00  0.00    +0.000 N 
BRANCH  18  19
ATOM     19  C   UNL     1       0.319  11.017  19.317  0.00  0.00    +0.000 C 
BRANCH  19  20
ATOM     20  C   UNL     1       0.680  12.240  20.104  0.00  0.00    +0.000 A 
ATOM     21  N   UNL     1       1.319  12.258  21.259  0.00  0.00    +0.000 NA
ATOM     22  N   UNL     1       1.598  13.565  21.581  0.00  0.00    +0.000 NA
ATOM     23  C   UNL     1       1.107  14.322  20.631  0.00  0.00    +0.000 A 
ATOM     24  N   UNL     1       0.481  13.541  19.708  0.00  0.00    +0.000 N 
ATOM     25  C   UNL     1      -0.261  14.024  18.575  0.00  0.00    +0.000 C 
ENDBRANCH  19  20
ENDBRANCH  18  19
ENDBRANCH  11  18
ENDBRANCH   1  15
BRANCH   8  26
ATOM     26  C   UNL     1       0.786   3.148  20.264  0.00  0.00    +0.000 C 
ATOM     27  F   UNL     1       0.261   4.391  20.423  0.00  0.00    +0.000 F 
ATOM     28  F   UNL     1      -0.097   2.477  19.475  0.00  0.00    +0.000 F 
ATOM     29  F   UNL     1       0.719   2.556  21.488  0.00  0.00    +0.000 F 
ENDBRANCH   8  26
BRANCH   6  30
ATOM     30  O   UNL     1       5.462   1.825  20.652  0.00  0.00    +0.000 OA
ATOM     31  H   UNL     1       6.352   2.102  20.372  0.00  0.00    +0.000 HD
ENDBRANCH   6  30
TORSDOF 6
ENDMDL
