MODEL 1
REMARK VINA RESULT:      -6.9      0.000      0.000
REMARK  Name = 
REMARK  4 active torsions:
REMARK  status: ('A' for Active; 'I' for Inactive)
REMARK    1  A    between atoms: C_2  and  C_3
REMARK    2  A    between atoms: N_5  and  C_6
REMARK    3  A    between atoms: N_17  and  C_18
REMARK    4  A    between atoms: N_17  and  C_25
REMARK                            x       y       z     vdW  Elec       q    Type
REMARK                         _______ _______ _______ _____ _____    ______ ____
ROOT
ATOM      1  O   UNL     1       1.207  13.131  21.422  0.00  0.00    +0.000 OA
ATOM      2  C   UNL     1       0.282  12.456  20.974  0.00  0.00    +0.000 C 
ATOM      3  N   UNL     1      -0.852  12.962  20.262  0.00  0.00    +0.000 N 
ENDROOT
BRANCH   2   4
ATOM      4  C   UNL     1       0.368  10.986  21.324  0.00  0.00    +0.000 A 
ATOM      5  N   UNL     1       0.985  10.196  20.490  0.00  0.00    +0.000 NA
ATOM      6  N   UNL     1       1.036   8.848  20.758  0.00  0.00    +0.000 N 
ATOM      7  C   UNL     1       0.366   8.287  21.829  0.00  0.00    +0.000 A 
ATOM      8  C   UNL     1      -0.334   8.975  22.731  0.00  0.00    +0.000 A 
ATOM      9  C   UNL     1      -0.342  10.433  22.546  0.00  0.00    +0.000 A 
ATOM     10  O   UNL     1      -0.900  11.159  23.350  0.00  0.00    +0.000 OA
BRANCH   6  11
ATOM     11  C   UNL     1       1.771   8.081  19.797  0.00  0.00    +0.000 A 
ATOM     12  C   UNL     1       2.079   8.573  18.515  0.00  0.00    +0.000 A 
ATOM     13  C   UNL     1       2.809   7.804  17.601  0.00  0.00    +0.000 A 
ATOM     14  C   UNL     1       3.234   6.533  17.956  0.00  0.00    +0.000 A 
ATOM     15  F   UNL     1       3.934   5.799  17.081  0.00  0.00    +0.000 F 
ATOM     16  C   UNL     1       2.942   6.010  19.207  0.00  0.00    +0.000 A 
ATOM     17  C   UNL     1       2.212   6.779  20.116  0.00  0.00    +0.000 A 
ENDBRANCH   6  11
ENDBRANCH   2   4
BRANCH   3  18
ATOM     18  C   UNL     1      -0.889  14.386  19.989  0.00  0.00    +0.000 A 
ATOM     19  C   UNL     1      -1.538  15.276  20.869  0.00  0.00    +0.000 A 
ATOM     20  C   UNL     1      -1.602  16.650  20.615  0.00  0.00    +0.000 A 
ATOM     21  C   UNL     1      -0.990  17.166  19.487  0.00  0.00    +0.000 A 
ATOM     22  F   UNL     1      -1.032  18.483  19.248  0.00  0.00    +0.000 F 
ATOM     23  C   UNL     1      -0.328  16.328  18.606  0.00  0.00    +0.000 A 
ATOM     24  C   UNL     1      -0.305  14.946  18.841  0.00  0.00    +0.000 A 
ENDBRANCH   3  18
BRANCH   3  25
ATOM     25  C   UNL     1      -2.046  12.081  19.955  0.00  0.00    +0.000 C 
ATOM     26  C   UNL     1      -2.082  11.572  18.479  0.00  0.00    +0.000 C 
ATOM     27  C   UNL     1      -3.616  11.649  18.537  0.00  0.00    +0.000 C 
ATOM     28  C   UNL     1      -3.451  12.683  19.657  0.00  0.00    +0.000 C 
ENDBRANCH   3  25
TORSDOF 4
ENDMDL
MODEL 2
REMARK VINA RESULT:      -6.8      3.451      8.627
REMARK  Name = 
REMARK  4 active torsions:
REMARK  status: ('A' for Active; 'I' for Inactive)
REMARK    1  A    between atoms: C_2  and  C_3
REMARK    2  A    between atoms: N_5  and  C_6
REMARK    3  A    between atoms: N_17  and  C_18
REMARK    4  A    between atoms: N_17  and  C_25
REMARK                            x       y       z     vdW  Elec       q    Type
REMARK                         _______ _______ _______ _____ _____    ______ ____
ROOT
ATOM      1  O   UNL     1       3.159   8.465  18.145  0.00  0.00    +0.000 OA
ATOM      2  C   UNL     1       2.497   7.768  18.912  0.00  0.00    +0.000 C 
ATOM      3  N   UNL     1       2.685   6.367  19.138  0.00  0.00    +0.000 N 
ENDROOT
BRANCH   2   4
ATOM      4  C   UNL     1       1.345   8.498  19.566  0.00  0.00    +0.000 A 
ATOM      5  N   UNL     1       0.434   9.019  18.791  0.00  0.00    +0.000 NA
ATOM      6  N   UNL     1      -0.598   9.731  19.355  0.00  0.00    +0.000 N 
ATOM      7  C   UNL     1      -0.649  10.001  20.710  0.00  0.00    +0.000 A 
ATOM      8  C   UNL     1       0.238   9.564  21.604  0.00  0.00    +0.000 A 
ATOM      9  C   UNL     1       1.312   8.718  21.067  0.00  0.00    +0.000 A 
ATOM     10  O   UNL     1       2.138   8.215  21.810  0.00  0.00    +0.000 OA
BRANCH   6  11
ATOM     11  C   UNL     1      -1.560  10.225  18.415  0.00  0.00    +0.000 A 
ATOM     12  C   UNL     1      -1.632   9.752  17.091  0.00  0.00    +0.000 A 
ATOM     13  C   UNL     1      -2.591  10.246  16.198  0.00  0.00    +0.000 A 
ATOM     14  C   UNL     1      -3.483  11.221  16.617  0.00  0.00    +0.000 A 
ATOM     15  F   UNL     1      -4.401  11.691  15.761  0.00  0.00    +0.000 F 
ATOM     16  C   UNL     1      -3.437  11.717  17.911  0.00  0.00    +0.000 A 
ATOM     17  C   UNL     1      -2.478  11.224  18.799  0.00  0.00    +0.000 A 
ENDBRANCH   6  11
ENDBRANCH   2   4
BRANCH   3  18
ATOM     18  C   UNL     1       3.787   5.720  18.453  0.00  0.00    +0.000 A 
ATOM     19  C   UNL     1       5.068   5.660  19.038  0.00  0.00    +0.000 A 
ATOM     20  C   UNL     1       6.150   5.057  18.386  0.00  0.00    +0.000 A 
ATOM     21  C   UNL     1       5.962   4.474  17.146  0.00  0.00    +0.000 A 
ATOM     22  F   UNL     1       6.988   3.880  16.525  0.00  0.00    +0.000 F 
ATOM     23  C   UNL     1       4.714   4.496  16.544  0.00  0.00    +0.000 A 
ATOM     24  C   UNL     1       3.644   5.142  17.181  0.00  0.00    +0.000 A 
ENDBRANCH   3  18
BRANCH   3  25
ATOM     25  C   UNL     1       1.673   5.555  19.923  0.00  0.00    +0.000 C 
ATOM     26  C   UNL     1       2.294   4.795  21.139  0.00  0.00    +0.000 C 
ATOM     27  C   UNL     1       1.282   3.665  20.891  0.00  0.00    +0.000 C 
ATOM     28  C   UNL     1       1.200   4.151  19.440  0.00  0.00    +0.000 C 
ENDBRANCH   3  25
TORSDOF 4
ENDMDL
MODEL 3
REMARK VINA RESULT:      -6.8      5.122     10.240
REMARK  Name = 
REMARK  4 active torsions:
REMARK  status: ('A' for Active; 'I' for Inactive)
REMARK    1  A    between atoms: C_2  and  C_3
REMARK    2  A    between atoms: N_5  and  C_6
REMARK    3  A    between atoms: N_17  and  C_18
REMARK    4  A    between atoms: N_17  and  C_25
REMARK                            x       y       z     vdW  Elec       q    Type
REMARK                         _______ _______ _______ _____ _____    ______ ____
ROOT
ATOM      1  O   UNL     1       3.300   3.759  16.320  0.00  0.00    +0.000 OA
ATOM      2  C   UNL     1       3.944   4.510  17.051  0.00  0.00    +0.000 C 
ATOM      3  N   UNL     1       5.231   5.060  16.755  0.00  0.00    +0.000 N 
ENDROOT
BRANCH   2   4
ATOM      4  C   UNL     1       3.302   4.753  18.400  0.00  0.00    +0.000 A 
ATOM      5  N   UNL     1       2.825   5.942  18.643  0.00  0.00    +0.000 NA
ATOM      6  N   UNL     1       2.282   6.207  19.877  0.00  0.00    +0.000 N 
ATOM      7  C   UNL     1       2.315   5.285  20.907  0.00  0.00    +0.000 A 
ATOM      8  C   UNL     1       2.811   4.052  20.804  0.00  0.00    +0.000 A 
ATOM      9  C   UNL     1       3.320   3.683  19.476  0.00  0.00    +0.000 A 
ATOM     10  O   UNL     1       3.736   2.558  19.259  0.00  0.00    +0.000 OA
BRANCH   6  11
ATOM     11  C   UNL     1       1.754   7.531  20.021  0.00  0.00    +0.000 A 
ATOM     12  C   UNL     1       1.748   8.459  18.963  0.00  0.00    +0.000 A 
ATOM     13  C   UNL     1       1.215   9.743  19.130  0.00  0.00    +0.000 A 
ATOM     14  C   UNL     1       0.687  10.114  20.357  0.00  0.00    +0.000 A 
ATOM     15  F   UNL     1       0.175  11.343  20.514  0.00  0.00    +0.000 F 
ATOM     16  C   UNL     1       0.682   9.230  21.425  0.00  0.00    +0.000 A 
ATOM     17  C   UNL     1       1.217   7.951  21.256  0.00  0.00    +0.000 A 
ENDBRANCH   6  11
ENDBRANCH   2   4
BRANCH   3  18
ATOM     18  C   UNL     1       5.805   4.759  15.458  0.00  0.00    +0.000 A 
ATOM     19  C   UNL     1       5.126   3.934  14.538  0.00  0.00    +0.000 A 
ATOM     20  C   UNL     1       5.671   3.616  13.289  0.00  0.00    +0.000 A 
ATOM     21  C   UNL     1       6.895   4.145  12.923  0.00  0.00    +0.000 A 
ATOM     22  F   UNL     1       7.413   3.859  11.722  0.00  0.00    +0.000 F 
ATOM     23  C   UNL     1       7.587   4.974  13.790  0.00  0.00    +0.000 A 
ATOM     24  C   UNL     1       7.058   5.252  15.059  0.00  0.00    +0.000 A 
ENDBRANCH   3  18
BRANCH   3  25
ATOM     25  C   UNL     1       6.040   5.783  17.814  0.00  0.00    +0.000 C 
ATOM     26  C   UNL     1       6.596   7.163  17.338  0.00  0.00    +0.000 C 
ATOM     27  C   UNL     1       7.836   6.914  18.211  0.00  0.00    +0.000 C 
ATOM     28  C   UNL     1       7.526   5.417  18.099  0.00  0.00    +0.000 C 
ENDBRANCH   3  25
TORSDOF 4
ENDMDL
MODEL 4
REMARK VINA RESULT:      -6.8      0.234      1.301
REMARK  Name = 
REMARK  4 active torsions:
REMARK  status: ('A' for Active; 'I' for Inactive)
REMARK    1  A    between atoms: C_2  and  C_3
REMARK    2  A    between atoms: N_5  and  C_6
REMARK    3  A    between atoms: N_17  and  C_18
REMARK    4  A    between atoms: N_17  and  C_25
REMARK                            x       y       z     vdW  Elec       q    Type
REMARK                         _______ _______ _______ _____ _____    ______ ____
ROOT
ATOM      1  O   UNL     1       1.391  12.937  21.360  0.00  0.00    +0.000 OA
ATOM      2  C   UNL     1       0.411  12.316  20.953  0.00  0.00    +0.000 C 
ATOM      3  N   UNL     1      -0.730  12.889  20.306  0.00  0.00    +0.000 N 
ENDROOT
BRANCH   2   4
ATOM      4  C   UNL     1       0.439  10.840  21.284  0.00  0.00    +0.000 A 
ATOM      5  N   UNL     1       1.068  10.043  20.465  0.00  0.00    +0.000 NA
ATOM      6  N   UNL     1       1.068   8.691  20.713  0.00  0.00    +0.000 N 
ATOM      7  C   UNL     1       0.337   8.135  21.746  0.00  0.00    +0.000 A 
ATOM      8  C   UNL     1      -0.381   8.830  22.628  0.00  0.00    +0.000 A 
ATOM      9  C   UNL     1      -0.339  10.290  22.466  0.00  0.00    +0.000 A 
ATOM     10  O   UNL     1      -0.910  11.021  23.257  0.00  0.00    +0.000 OA
BRANCH   6  11
ATOM     11  C   UNL     1       1.821   7.916  19.772  0.00  0.00    +0.000 A 
ATOM     12  C   UNL     1       2.159   6.570  20.003  0.00  0.00    +0.000 A 
ATOM     13  C   UNL     1       2.886   5.835  19.059  0.00  0.00    +0.000 A 
ATOM     14  C   UNL     1       3.288   6.439  17.877  0.00  0.00    +0.000 A 
ATOM     15  F   UNL     1       3.983   5.734  16.975  0.00  0.00    +0.000 F 
ATOM     16  C   UNL     1       2.981   7.766  17.619  0.00  0.00    +0.000 A 
ATOM     17  C   UNL     1       2.257   8.498  18.563  0.00  0.00    +0.000 A 
ENDBRANCH   6  11
ENDBRANCH   2   4
BRANCH   3  18
ATOM     18  C   UNL     1      -0.708  14.315  20.050  0.00  0.00    +0.000 A 
ATOM     19  C   UNL     1      -0.197  14.827  18.839  0.00  0.00    +0.000 A 
ATOM     20  C   UNL     1      -0.149  16.201  18.580  0.00  0.00    +0.000 A 
ATOM     21  C   UNL     1      -0.642  17.091  19.517  0.00  0.00    +0.000 A 
ATOM     22  F   UNL     1      -0.616  18.406  19.267  0.00  0.00    +0.000 F 
ATOM     23  C   UNL     1      -1.168  16.629  20.711  0.00  0.00    +0.000 A 
ATOM     24  C   UNL     1      -1.172  15.253  20.987  0.00  0.00    +0.000 A 
ENDBRANCH   3  18
BRANCH   3  25
ATOM     25  C   UNL     1      -1.983  12.073  20.053  0.00  0.00    +0.000 C 
ATOM     26  C   UNL     1      -2.163  11.657  18.558  0.00  0.00    +0.000 C 
ATOM     27  C   UNL     1      -3.682  11.788  18.753  0.00  0.00    +0.000 C 
ATOM     28  C   UNL     1      -3.381  12.744  19.912  0.00  0.00    +0.000 C 
ENDBRANCH   3  25
TORSDOF 4
ENDMDL
MODEL 5
REMARK VINA RESULT:      -6.8      5.119     10.266
REMARK  Name = 
REMARK  4 active torsions:
REMARK  status: ('A' for Active; 'I' for Inactive)
REMARK    1  A    between atoms: C_2  and  C_3
REMARK    2  A    between atoms: N_5  and  C_6
REMARK    3  A    between atoms: N_17  and  C_18
REMARK    4  A    between atoms: N_17  and  C_25
REMARK                            x       y       z     vdW  Elec       q    Type
REMARK                         _______ _______ _______ _____ _____    ______ ____
ROOT
ATOM      1  O   UNL     1       3.253   3.678  16.348  0.00  0.00    +0.000 OA
ATOM      2  C   UNL     1       3.891   4.456  17.056  0.00  0.00    +0.000 C 
ATOM      3  N   UNL     1       5.165   5.022  16.733  0.00  0.00    +0.000 N 
ENDROOT
BRANCH   2   4
ATOM      4  C   UNL     1       3.260   4.717  18.406  0.00  0.00    +0.000 A 
ATOM      5  N   UNL     1       2.795   5.913  18.641  0.00  0.00    +0.000 NA
ATOM      6  N   UNL     1       2.261   6.193  19.876  0.00  0.00    +0.000 N 
ATOM      7  C   UNL     1       2.293   5.281  20.913  0.00  0.00    +0.000 A 
ATOM      8  C   UNL     1       2.776   4.042  20.819  0.00  0.00    +0.000 A 
ATOM      9  C   UNL     1       3.274   3.657  19.492  0.00  0.00    +0.000 A 
ATOM     10  O   UNL     1       3.678   2.526  19.282  0.00  0.00    +0.000 OA
BRANCH   6  11
ATOM     11  C   UNL     1       1.746   7.524  20.010  0.00  0.00    +0.000 A 
ATOM     12  C   UNL     1       1.158   7.988  21.201  0.00  0.00    +0.000 A 
ATOM     13  C   UNL     1       0.674   9.298  21.306  0.00  0.00    +0.000 A 
ATOM     14  C   UNL     1       0.767  10.155  20.220  0.00  0.00    +0.000 A 
ATOM     15  F   UNL     1       0.305  11.408  20.323  0.00  0.00    +0.000 F 
ATOM     16  C   UNL     1       1.333   9.730  19.027  0.00  0.00    +0.000 A 
ATOM     17  C   UNL     1       1.814   8.423  18.925  0.00  0.00    +0.000 A 
ENDBRANCH   6  11
ENDBRANCH   2   4
BRANCH   3  18
ATOM     18  C   UNL     1       5.730   4.704  15.436  0.00  0.00    +0.000 A 
ATOM     19  C   UNL     1       7.027   5.133  15.085  0.00  0.00    +0.000 A 
ATOM     20  C   UNL     1       7.584   4.852  13.833  0.00  0.00    +0.000 A 
ATOM     21  C   UNL     1       6.864   4.109  12.916  0.00  0.00    +0.000 A 
ATOM     22  F   UNL     1       7.398   3.822  11.722  0.00  0.00    +0.000 F 
ATOM     23  C   UNL     1       5.593   3.654  13.227  0.00  0.00    +0.000 A 
ATOM     24  C   UNL     1       5.021   3.977  14.466  0.00  0.00    +0.000 A 
ENDBRANCH   3  18
BRANCH   3  25
ATOM     25  C   UNL     1       5.971   5.783  17.766  0.00  0.00    +0.000 C 
ATOM     26  C   UNL     1       6.483   7.169  17.259  0.00  0.00    +0.000 C 
ATOM     27  C   UNL     1       7.744   6.966  18.115  0.00  0.00    +0.000 C 
ATOM     28  C   UNL     1       7.471   5.460  18.032  0.00  0.00    +0.000 C 
ENDBRANCH   3  25
TORSDOF 4
ENDMDL
MODEL 6
REMARK VINA RESULT:      -6.6      3.449      8.564
REMARK  Name = 
REMARK  4 active torsions:
REMARK  status: ('A' for Active; 'I' for Inactive)
REMARK    1  A    between atoms: C_2  and  C_3
REMARK    2  A    between atoms: N_5  and  C_6
REMARK    3  A    between atoms: N_17  and  C_18
REMARK    4  A    between atoms: N_17  and  C_25
REMARK                            x       y       z     vdW  Elec       q    Type
REMARK                         _______ _______ _______ _____ _____    ______ ____
ROOT
ATOM      1  O   UNL     1       3.173   8.618  18.256  0.00  0.00    +0.000 OA
ATOM      2  C   UNL     1       2.484   7.887  18.966  0.00  0.00    +0.000 C 
ATOM      3  N   UNL     1       2.668   6.478  19.139  0.00  0.00    +0.000 N 
ENDROOT
BRANCH   2   4
ATOM      4  C   UNL     1       1.304   8.586  19.605  0.00  0.00    +0.000 A 
ATOM      5  N   UNL     1       0.395   9.091  18.819  0.00  0.00    +0.000 NA
ATOM      6  N   UNL     1      -0.663   9.775  19.370  0.00  0.00    +0.000 N 
ATOM      7  C   UNL     1      -0.742  10.035  20.725  0.00  0.00    +0.000 A 
ATOM      8  C   UNL     1       0.140   9.614  21.631  0.00  0.00    +0.000 A 
ATOM      9  C   UNL     1       1.242   8.796  21.107  0.00  0.00    +0.000 A 
ATOM     10  O   UNL     1       2.068   8.308  21.860  0.00  0.00    +0.000 OA
BRANCH   6  11
ATOM     11  C   UNL     1      -1.620  10.252  18.417  0.00  0.00    +0.000 A 
ATOM     12  C   UNL     1      -2.562  11.250  18.729  0.00  0.00    +0.000 A 
ATOM     13  C   UNL     1      -3.479  11.705  17.773  0.00  0.00    +0.000 A 
ATOM     14  C   UNL     1      -3.467  11.162  16.497  0.00  0.00    +0.000 A 
ATOM     15  F   UNL     1      -4.344  11.599  15.583  0.00  0.00    +0.000 F 
ATOM     16  C   UNL     1      -2.559  10.171  16.155  0.00  0.00    +0.000 A 
ATOM     17  C   UNL     1      -1.648   9.719  17.111  0.00  0.00    +0.000 A 
ENDBRANCH   6  11
ENDBRANCH   2   4
BRANCH   3  18
ATOM     18  C   UNL     1       3.798   5.863  18.470  0.00  0.00    +0.000 A 
ATOM     19  C   UNL     1       3.792   5.662  17.074  0.00  0.00    +0.000 A 
ATOM     20  C   UNL     1       4.864   5.054  16.412  0.00  0.00    +0.000 A 
ATOM     21  C   UNL     1       5.978   4.662  17.131  0.00  0.00    +0.000 A 
ATOM     22  F   UNL     1       7.015   4.096  16.500  0.00  0.00    +0.000 F 
ATOM     23  C   UNL     1       6.031   4.857  18.501  0.00  0.00    +0.000 A 
ATOM     24  C   UNL     1       4.935   5.425  19.167  0.00  0.00    +0.000 A 
ENDBRANCH   3  18
BRANCH   3  25
ATOM     25  C   UNL     1       1.630   5.631  19.848  0.00  0.00    +0.000 C 
ATOM     26  C   UNL     1       2.170   4.936  21.139  0.00  0.00    +0.000 C 
ATOM     27  C   UNL     1       1.247   3.747  20.830  0.00  0.00    +0.000 C 
ATOM     28  C   UNL     1       1.279   4.193  19.364  0.00  0.00    +0.000 C 
ENDBRANCH   3  25
TORSDOF 4
ENDMDL
MODEL 7
REMARK VINA RESULT:      -6.5      2.712      4.028
REMARK  Name = 
REMARK  4 active torsions:
REMARK  status: ('A' for Active; 'I' for Inactive)
REMARK    1  A    between atoms: C_2  and  C_3
REMARK    2  A    between atoms: N_5  and  C_6
REMARK    3  A    between atoms: N_17  and  C_18
REMARK    4  A    between atoms: N_17  and  C_25
REMARK                            x       y       z     vdW  Elec       q    Type
REMARK                         _______ _______ _______ _____ _____    ______ ____
ROOT
ATOM      1  O   UNL     1       1.394  10.034  21.799  0.00  0.00    +0.000 OA
ATOM      2  C   UNL     1       0.946  10.200  20.666  0.00  0.00    +0.000 C 
ATOM      3  N   UNL     1      -0.095  11.115  20.306  0.00  0.00    +0.000 N 
ENDROOT
BRANCH   2   4
ATOM      4  C   UNL     1       1.523   9.258  19.632  0.00  0.00    +0.000 A 
ATOM      5  N   UNL     1       1.514   7.981  19.898  0.00  0.00    +0.000 NA
ATOM      6  N   UNL     1       2.077   7.106  18.999  0.00  0.00    +0.000 N 
ATOM      7  C   UNL     1       2.745   7.542  17.871  0.00  0.00    +0.000 A 
ATOM      8  C   UNL     1       2.864   8.818  17.505  0.00  0.00    +0.000 A 
ATOM      9  C   UNL     1       2.198   9.791  18.382  0.00  0.00    +0.000 A 
ATOM     10  O   UNL     1       2.192  10.978  18.103  0.00  0.00    +0.000 OA
BRANCH   6  11
ATOM     11  C   UNL     1       1.976   5.727  19.374  0.00  0.00    +0.000 A 
ATOM     12  C   UNL     1       1.920   5.312  20.717  0.00  0.00    +0.000 A 
ATOM     13  C   UNL     1       1.810   3.957  21.052  0.00  0.00    +0.000 A 
ATOM     14  C   UNL     1       1.760   3.002  20.048  0.00  0.00    +0.000 A 
ATOM     15  F   UNL     1       1.653   1.706  20.370  0.00  0.00    +0.000 F 
ATOM     16  C   UNL     1       1.821   3.372  18.713  0.00  0.00    +0.000 A 
ATOM     17  C   UNL     1       1.933   4.724  18.382  0.00  0.00    +0.000 A 
ENDBRANCH   6  11
ENDBRANCH   2   4
BRANCH   3  18
ATOM     18  C   UNL     1      -0.630  11.965  21.352  0.00  0.00    +0.000 A 
ATOM     19  C   UNL     1      -0.071  13.234  21.611  0.00  0.00    +0.000 A 
ATOM     20  C   UNL     1      -0.560  14.062  22.628  0.00  0.00    +0.000 A 
ATOM     21  C   UNL     1      -1.639  13.648  23.387  0.00  0.00    +0.000 A 
ATOM     22  F   UNL     1      -2.123  14.443  24.349  0.00  0.00    +0.000 F 
ATOM     23  C   UNL     1      -2.228  12.416  23.153  0.00  0.00    +0.000 A 
ATOM     24  C   UNL     1      -1.705  11.570  22.163  0.00  0.00    +0.000 A 
ENDBRANCH   3  18
BRANCH   3  25
ATOM     25  C   UNL     1      -0.733  11.079  18.932  0.00  0.00    +0.000 C 
ATOM     26  C   UNL     1      -1.691  12.283  18.659  0.00  0.00    +0.000 C 
ATOM     27  C   UNL     1      -2.565  11.338  17.818  0.00  0.00    +0.000 C 
ATOM     28  C   UNL     1      -1.968  10.181  18.627  0.00  0.00    +0.000 C 
ENDBRANCH   3  25
TORSDOF 4
ENDMDL
MODEL 8
REMARK VINA RESULT:      -6.5      2.906      7.961
REMARK  Name = 
REMARK  4 active torsions:
REMARK  status: ('A' for Active; 'I' for Inactive)
REMARK    1  A    between atoms: C_2  and  C_3
REMARK    2  A    between atoms: N_5  and  C_6
REMARK    3  A    between atoms: N_17  and  C_18
REMARK    4  A    between atoms: N_17  and  C_25
REMARK                            x       y       z     vdW  Elec       q    Type
REMARK                         _______ _______ _______ _____ _____    ______ ____
ROOT
ATOM      1  O   UNL     1       1.545   8.940  17.565  0.00  0.00    +0.000 OA
ATOM      2  C   UNL     1       1.286   9.480  18.639  0.00  0.00    +0.000 C 
ATOM      3  N   UNL     1       1.391   8.865  19.927  0.00  0.00    +0.000 N 
ENDROOT
BRANCH   2   4
ATOM      4  C   UNL     1       0.726  10.879  18.505  0.00  0.00    +0.000 A 
ATOM      5  N   UNL     1       1.566  11.877  18.524  0.00  0.00    +0.000 NA
ATOM      6  N   UNL     1       1.081  13.161  18.454  0.00  0.00    +0.000 N 
ATOM      7  C   UNL     1      -0.273  13.436  18.466  0.00  0.00    +0.000 A 
ATOM      8  C   UNL     1      -1.235  12.513  18.487  0.00  0.00    +0.000 A 
ATOM      9  C   UNL     1      -0.772  11.119  18.467  0.00  0.00    +0.000 A 
ATOM     10  O   UNL     1      -1.570  10.199  18.419  0.00  0.00    +0.000 OA
BRANCH   6  11
ATOM     11  C   UNL     1       2.093  14.176  18.445  0.00  0.00    +0.000 A 
ATOM     12  C   UNL     1       1.804  15.531  18.690  0.00  0.00    +0.000 A 
ATOM     13  C   UNL     1       2.816  16.499  18.685  0.00  0.00    +0.000 A 
ATOM     14  C   UNL     1       4.126  16.123  18.430  0.00  0.00    +0.000 A 
ATOM     15  F   UNL     1       5.093  17.050  18.428  0.00  0.00    +0.000 F 
ATOM     16  C   UNL     1       4.448  14.798  18.177  0.00  0.00    +0.000 A 
ATOM     17  C   UNL     1       3.436  13.835  18.180  0.00  0.00    +0.000 A 
ENDBRANCH   6  11
ENDBRANCH   2   4
BRANCH   3  18
ATOM     18  C   UNL     1       1.903   7.510  19.983  0.00  0.00    +0.000 A 
ATOM     19  C   UNL     1       3.070   7.146  19.280  0.00  0.00    +0.000 A 
ATOM     20  C   UNL     1       3.570   5.840  19.305  0.00  0.00    +0.000 A 
ATOM     21  C   UNL     1       2.927   4.876  20.060  0.00  0.00    +0.000 A 
ATOM     22  F   UNL     1       3.411   3.629  20.103  0.00  0.00    +0.000 F 
ATOM     23  C   UNL     1       1.788   5.196  20.780  0.00  0.00    +0.000 A 
ATOM     24  C   UNL     1       1.264   6.496  20.715  0.00  0.00    +0.000 A 
ENDBRANCH   3  18
BRANCH   3  25
ATOM     25  C   UNL     1       0.830   9.535  21.166  0.00  0.00    +0.000 C 
ATOM     26  C   UNL     1       1.596   9.165  22.476  0.00  0.00    +0.000 C 
ATOM     27  C   UNL     1       0.260   9.258  23.230  0.00  0.00    +0.000 C 
ATOM     28  C   UNL     1      -0.434   8.985  21.891  0.00  0.00    +0.000 C 
ENDBRANCH   3  25
TORSDOF 4
ENDMDL
MODEL 9
REMARK VINA RESULT:      -6.4      2.977      7.749
REMARK  Name = 
REMARK  4 active torsions:
REMARK  status: ('A' for Active; 'I' for Inactive)
REMARK    1  A    between atoms: C_2  and  C_3
REMARK    2  A    between atoms: N_5  and  C_6
REMARK    3  A    between atoms: N_17  and  C_18
REMARK    4  A    between atoms: N_17  and  C_25
REMARK                            x       y       z     vdW  Elec       q    Type
REMARK                         _______ _______ _______ _____ _____    ______ ____
ROOT
ATOM      1  O   UNL     1       1.355  11.929  21.169  0.00  0.00    +0.000 OA
ATOM      2  C   UNL     1       0.255  11.906  20.618  0.00  0.00    +0.000 C 
ATOM      3  N   UNL     1      -0.195  10.909  19.695  0.00  0.00    +0.000 N 
ENDROOT
BRANCH   2   4
ATOM      4  C   UNL     1      -0.605  13.115  20.914  0.00  0.00    +0.000 A 
ATOM      5  N   UNL     1      -1.730  12.924  21.545  0.00  0.00    +0.000 NA
ATOM      6  N   UNL     1      -2.555  13.996  21.784  0.00  0.00    +0.000 N 
ATOM      7  C   UNL     1      -2.283  15.257  21.287  0.00  0.00    +0.000 A 
ATOM      8  C   UNL     1      -1.192  15.578  20.592  0.00  0.00    +0.000 A 
ATOM      9  C   UNL     1      -0.228  14.488  20.389  0.00  0.00    +0.000 A 
ATOM     10  O   UNL     1       0.832  14.692  19.821  0.00  0.00    +0.000 OA
BRANCH   6  11
ATOM     11  C   UNL     1      -3.744  13.677  22.518  0.00  0.00    +0.000 A 
ATOM     12  C   UNL     1      -5.016  14.143  22.134  0.00  0.00    +0.000 A 
ATOM     13  C   UNL     1      -6.160  13.805  22.865  0.00  0.00    +0.000 A 
ATOM     14  C   UNL     1      -6.047  13.002  23.991  0.00  0.00    +0.000 A 
ATOM     15  F   UNL     1      -7.144  12.679  24.688  0.00  0.00    +0.000 F 
ATOM     16  C   UNL     1      -4.809  12.532  24.404  0.00  0.00    +0.000 A 
ATOM     17  C   UNL     1      -3.669  12.872  23.674  0.00  0.00    +0.000 A 
ENDBRANCH   6  11
ENDBRANCH   2   4
BRANCH   3  18
ATOM     18  C   UNL     1       0.693   9.794  19.429  0.00  0.00    +0.000 A 
ATOM     19  C   UNL     1       0.903   8.788  20.394  0.00  0.00    +0.000 A 
ATOM     20  C   UNL     1       1.769   7.714  20.165  0.00  0.00    +0.000 A 
ATOM     21  C   UNL     1       2.422   7.609  18.950  0.00  0.00    +0.000 A 
ATOM     22  F   UNL     1       3.238   6.574  18.718  0.00  0.00    +0.000 F 
ATOM     23  C   UNL     1       2.230   8.567  17.969  0.00  0.00    +0.000 A 
ATOM     24  C   UNL     1       1.396   9.666  18.220  0.00  0.00    +0.000 A 
ENDBRANCH   3  18
BRANCH   3  25
ATOM     25  C   UNL     1      -1.470  11.094  18.897  0.00  0.00    +0.000 C 
ATOM     26  C   UNL     1      -1.794   9.893  17.953  0.00  0.00    +0.000 C 
ATOM     27  C   UNL     1      -2.393  10.897  16.955  0.00  0.00    +0.000 C 
ATOM     28  C   UNL     1      -1.507  11.965  17.606  0.00  0.00    +0.000 C 
ENDBRANCH   3  25
TORSDOF 4
ENDMDL
