MODEL 1
REMARK VINA RESULT:      -8.3      0.000      0.000
REMARK  Name = 
REMARK  4 active torsions:
REMARK  status: ('A' for Active; 'I' for Inactive)
REMARK    1  A    between atoms: S_2  and  C_4
REMARK    2  A    between atoms: S_2  and  N_12
REMARK    3  A    between atoms: C_16  and  C_17
REMARK    4  A    between atoms: C_23  and  C_24
REMARK                            x       y       z     vdW  Elec       q    Type
REMARK                         _______ _______ _______ _____ _____    ______ ____
ROOT
ATOM      1  N   UNL     1       1.691   9.344  19.792  0.00  0.00    +0.000 NA
ATOM      2  C   UNL     1       0.585   9.033  20.749  0.00  0.00    +0.000 C 
ATOM      3  C   UNL     1       0.909   7.790  21.575  0.00  0.00    +0.000 C 
ATOM      4  C   UNL     1       1.162   6.580  20.684  0.00  0.00    +0.000 C 
ATOM      5  C   UNL     1       2.306   6.871  19.709  0.00  0.00    +0.000 C 
ATOM      6  C   UNL     1       2.015   8.157  18.911  0.00  0.00    +0.000 C 
ENDROOT
BRANCH   5   7
ATOM      7  C   UNL     1       2.493   5.723  18.763  0.00  0.00    +0.000 A 
ATOM      8  N   UNL     1       1.523   4.989  18.249  0.00  0.00    +0.000 NA
ATOM      9  N   UNL     1       2.071   4.063  17.400  0.00  0.00    +0.000 NA
ATOM     10  C   UNL     1       3.373   4.227  17.417  0.00  0.00    +0.000 A 
ATOM     11  C   UNL     1       4.429   3.564  16.740  0.00  0.00    +0.000 A 
ATOM     12  C   UNL     1       5.704   3.928  16.975  0.00  0.00    +0.000 A 
ATOM     13  C   UNL     1       6.039   5.001  17.921  0.00  0.00    +0.000 A 
ATOM     14  C   UNL     1       5.021   5.637  18.545  0.00  0.00    +0.000 A 
ATOM     15  N   UNL     1       3.705   5.255  18.287  0.00  0.00    +0.000 N 
BRANCH  13  16
ATOM     16  C   UNL     1       7.483   5.347  18.163  0.00  0.00    +0.000 C 
ATOM     17  F   UNL     1       7.890   6.449  17.483  0.00  0.00    +0.000 F 
ATOM     18  F   UNL     1       7.720   5.584  19.479  0.00  0.00    +0.000 F 
ATOM     19  F   UNL     1       8.303   4.331  17.795  0.00  0.00    +0.000 F 
ENDBRANCH  13  16
ENDBRANCH   5   7
BRANCH   1  21
ATOM     20  O   UNL     1       1.922  10.437  17.470  0.00  0.00    +0.000 OA
ATOM     21  S   UNL     1       1.354  10.713  18.772  0.00  0.00    +0.000 S 
ATOM     22  O   UNL     1       1.720  11.907  19.504  0.00  0.00    +0.000 OA
BRANCH  21  23
ATOM     23  C   UNL     1      -0.414  10.748  18.586  0.00  0.00    +0.000 A 
ATOM     24  C   UNL     1      -1.166  11.586  19.415  0.00  0.00    +0.000 A 
ATOM     25  C   UNL     1      -2.525  11.760  19.158  0.00  0.00    +0.000 A 
ATOM     26 CL   UNL     1      -3.451  12.820  20.148  0.00  0.00    +0.000 Cl
ATOM     27  C   UNL     1      -3.137  11.108  18.088  0.00  0.00    +0.000 A 
ATOM     28  C   UNL     1      -2.373  10.285  17.262  0.00  0.00    +0.000 A 
ATOM     29 CL   UNL     1      -3.116   9.503  15.922  0.00  0.00    +0.000 Cl
ATOM     30  C   UNL     1      -1.009  10.110  17.494  0.00  0.00    +0.000 A 
ENDBRANCH  21  23
ENDBRANCH   1  21
TORSDOF 4
ENDMDL
MODEL 2
REMARK VINA RESULT:      -8.1      0.585      1.010
REMARK  Name = 
REMARK  4 active torsions:
REMARK  status: ('A' for Active; 'I' for Inactive)
REMARK    1  A    between atoms: S_2  and  C_4
REMARK    2  A    between atoms: S_2  and  N_12
REMARK    3  A    between atoms: C_16  and  C_17
REMARK    4  A    between atoms: C_23  and  C_24
REMARK                            x       y       z     vdW  Elec       q    Type
REMARK                         _______ _______ _______ _____ _____    ______ ____
ROOT
ATOM      1  N   UNL     1       1.647   9.416  19.823  0.00  0.00    +0.000 NA
ATOM      2  C   UNL     1       0.537   9.156  20.793  0.00  0.00    +0.000 C 
ATOM      3  C   UNL     1       0.861   7.962  21.688  0.00  0.00    +0.000 C 
ATOM      4  C   UNL     1       1.120   6.705  20.867  0.00  0.00    +0.000 C 
ATOM      5  C   UNL     1       2.267   6.944  19.881  0.00  0.00    +0.000 C 
ATOM      6  C   UNL     1       1.977   8.183  19.012  0.00  0.00    +0.000 C 
ENDROOT
BRANCH   5   7
ATOM      7  C   UNL     1       2.461   5.745  19.001  0.00  0.00    +0.000 A 
ATOM      8  N   UNL     1       1.574   4.786  18.811  0.00  0.00    +0.000 NA
ATOM      9  N   UNL     1       2.085   3.883  17.915  0.00  0.00    +0.000 NA
ATOM     10  C   UNL     1       3.288   4.289  17.580  0.00  0.00    +0.000 A 
ATOM     11  C   UNL     1       4.265   3.760  16.699  0.00  0.00    +0.000 A 
ATOM     12  C   UNL     1       5.452   4.383  16.568  0.00  0.00    +0.000 A 
ATOM     13  C   UNL     1       5.769   5.606  17.316  0.00  0.00    +0.000 A 
ATOM     14  C   UNL     1       4.820   6.110  18.139  0.00  0.00    +0.000 A 
ATOM     15  N   UNL     1       3.593   5.459  18.260  0.00  0.00    +0.000 N 
BRANCH  13  16
ATOM     16  C   UNL     1       7.120   6.244  17.149  0.00  0.00    +0.000 C 
ATOM     17  F   UNL     1       7.999   5.901  18.124  0.00  0.00    +0.000 F 
ATOM     18  F   UNL     1       7.688   5.897  15.966  0.00  0.00    +0.000 F 
ATOM     19  F   UNL     1       7.031   7.599  17.157  0.00  0.00    +0.000 F 
ENDBRANCH  13  16
ENDBRANCH   5   7
BRANCH   1  21
ATOM     20  O   UNL     1       1.874  10.373  17.442  0.00  0.00    +0.000 OA
ATOM     21  S   UNL     1       1.310  10.725  18.728  0.00  0.00    +0.000 S 
ATOM     22  O   UNL     1       1.681  11.959  19.389  0.00  0.00    +0.000 OA
BRANCH  21  23
ATOM     23  C   UNL     1      -0.458  10.755  18.545  0.00  0.00    +0.000 A 
ATOM     24  C   UNL     1      -1.212  11.589  19.376  0.00  0.00    +0.000 A 
ATOM     25  C   UNL     1      -2.571  11.759  19.120  0.00  0.00    +0.000 A 
ATOM     26 CL   UNL     1      -3.499  12.815  20.112  0.00  0.00    +0.000 Cl
ATOM     27  C   UNL     1      -3.183  11.105  18.051  0.00  0.00    +0.000 A 
ATOM     28  C   UNL     1      -2.418  10.286  17.223  0.00  0.00    +0.000 A 
ATOM     29 CL   UNL     1      -3.160   9.502  15.884  0.00  0.00    +0.000 Cl
ATOM     30  C   UNL     1      -1.053  10.115  17.453  0.00  0.00    +0.000 A 
ENDBRANCH  21  23
ENDBRANCH   1  21
TORSDOF 4
ENDMDL
MODEL 3
REMARK VINA RESULT:      -8.1      5.628      9.221
REMARK  Name = 
REMARK  4 active torsions:
REMARK  status: ('A' for Active; 'I' for Inactive)
REMARK    1  A    between atoms: S_2  and  C_4
REMARK    2  A    between atoms: S_2  and  N_12
REMARK    3  A    between atoms: C_16  and  C_17
REMARK    4  A    between atoms: C_23  and  C_24
REMARK                            x       y       z     vdW  Elec       q    Type
REMARK                         _______ _______ _______ _____ _____    ______ ____
ROOT
ATOM      1  N   UNL     1       2.619   7.173  19.007  0.00  0.00    +0.000 NA
ATOM      2  C   UNL     1       1.940   7.687  17.777  0.00  0.00    +0.000 C 
ATOM      3  C   UNL     1       1.817   9.208  17.815  0.00  0.00    +0.000 C 
ATOM      4  C   UNL     1       1.052   9.675  19.048  0.00  0.00    +0.000 C 
ATOM      5  C   UNL     1       1.743   9.176  20.320  0.00  0.00    +0.000 C 
ATOM      6  C   UNL     1       1.925   7.647  20.265  0.00  0.00    +0.000 C 
ENDROOT
BRANCH   5   7
ATOM      7  C   UNL     1       0.941   9.546  21.531  0.00  0.00    +0.000 A 
ATOM      8  N   UNL     1       1.135   9.077  22.750  0.00  0.00    +0.000 NA
ATOM      9  N   UNL     1       0.240   9.669  23.601  0.00  0.00    +0.000 NA
ATOM     10  C   UNL     1      -0.507  10.483  22.891  0.00  0.00    +0.000 A 
ATOM     11  C   UNL     1      -1.577  11.347  23.239  0.00  0.00    +0.000 A 
ATOM     12  C   UNL     1      -2.196  12.061  22.279  0.00  0.00    +0.000 A 
ATOM     13  C   UNL     1      -1.795  11.970  20.868  0.00  0.00    +0.000 A 
ATOM     14  C   UNL     1      -0.762  11.155  20.554  0.00  0.00    +0.000 A 
ATOM     15  N   UNL     1      -0.124  10.428  21.559  0.00  0.00    +0.000 N 
BRANCH  13  16
ATOM     16  C   UNL     1      -2.541  12.771  19.836  0.00  0.00    +0.000 C 
ATOM     17  F   UNL     1      -1.969  12.723  18.607  0.00  0.00    +0.000 F 
ATOM     18  F   UNL     1      -3.817  12.330  19.696  0.00  0.00    +0.000 F 
ATOM     19  F   UNL     1      -2.615  14.080  20.187  0.00  0.00    +0.000 F 
ENDBRANCH  13  16
ENDBRANCH   5   7
BRANCH   1  21
ATOM     20  O   UNL     1       1.756   4.911  18.126  0.00  0.00    +0.000 OA
ATOM     21  S   UNL     1       2.731   5.438  19.058  0.00  0.00    +0.000 S 
ATOM     22  O   UNL     1       2.720   5.036  20.449  0.00  0.00    +0.000 OA
BRANCH  21  23
ATOM     23  C   UNL     1       4.343   5.042  18.423  0.00  0.00    +0.000 A 
ATOM     24  C   UNL     1       4.459   4.571  17.112  0.00  0.00    +0.000 A 
ATOM     25  C   UNL     1       5.725   4.434  16.545  0.00  0.00    +0.000 A 
ATOM     26 CL   UNL     1       5.877   3.895  14.918  0.00  0.00    +0.000 Cl
ATOM     27  C   UNL     1       6.871   4.757  17.272  0.00  0.00    +0.000 A 
ATOM     28  C   UNL     1       6.740   5.237  18.574  0.00  0.00    +0.000 A 
ATOM     29 CL   UNL     1       8.148   5.666  19.465  0.00  0.00    +0.000 Cl
ATOM     30  C   UNL     1       5.482   5.396  19.154  0.00  0.00    +0.000 A 
ENDBRANCH  21  23
ENDBRANCH   1  21
TORSDOF 4
ENDMDL
MODEL 4
REMARK VINA RESULT:      -8.1      3.090      4.191
REMARK  Name = 
REMARK  4 active torsions:
REMARK  status: ('A' for Active; 'I' for Inactive)
REMARK    1  A    between atoms: S_2  and  C_4
REMARK    2  A    between atoms: S_2  and  N_12
REMARK    3  A    between atoms: C_16  and  C_17
REMARK    4  A    between atoms: C_23  and  C_24
REMARK                            x       y       z     vdW  Elec       q    Type
REMARK                         _______ _______ _______ _____ _____    ______ ____
ROOT
ATOM      1  N   UNL     1       0.333  11.320  21.834  0.00  0.00    +0.000 NA
ATOM      2  C   UNL     1      -0.821  10.590  22.445  0.00  0.00    +0.000 C 
ATOM      3  C   UNL     1      -0.425   9.166  22.831  0.00  0.00    +0.000 C 
ATOM      4  C   UNL     1       0.087   8.385  21.627  0.00  0.00    +0.000 C 
ATOM      5  C   UNL     1       1.283   9.106  20.998  0.00  0.00    +0.000 C 
ATOM      6  C   UNL     1       0.911  10.562  20.659  0.00  0.00    +0.000 C 
ENDROOT
BRANCH   5   7
ATOM      7  C   UNL     1       1.728   8.397  19.755  0.00  0.00    +0.000 A 
ATOM      8  N   UNL     1       1.941   8.967  18.583  0.00  0.00    +0.000 NA
ATOM      9  N   UNL     1       2.375   8.014  17.699  0.00  0.00    +0.000 NA
ATOM     10  C   UNL     1       2.406   6.865  18.334  0.00  0.00    +0.000 A 
ATOM     11  C   UNL     1       2.774   5.557  17.927  0.00  0.00    +0.000 A 
ATOM     12  C   UNL     1       2.677   4.535  18.799  0.00  0.00    +0.000 A 
ATOM     13  C   UNL     1       2.198   4.735  20.173  0.00  0.00    +0.000 A 
ATOM     14  C   UNL     1       1.868   5.991  20.553  0.00  0.00    +0.000 A 
ATOM     15  N   UNL     1       1.980   7.041  19.643  0.00  0.00    +0.000 N 
BRANCH  13  16
ATOM     16  C   UNL     1       2.086   3.552  21.095  0.00  0.00    +0.000 C 
ATOM     17  F   UNL     1       2.890   2.518  20.739  0.00  0.00    +0.000 F 
ATOM     18  F   UNL     1       2.414   3.886  22.369  0.00  0.00    +0.000 F 
ATOM     19  F   UNL     1       0.818   3.071  21.130  0.00  0.00    +0.000 F 
ENDBRANCH  13  16
ENDBRANCH   5   7
BRANCH   1  21
ATOM     20  O   UNL     1       0.906  13.323  20.318  0.00  0.00    +0.000 OA
ATOM     21  S   UNL     1      -0.072  12.929  21.309  0.00  0.00    +0.000 S 
ATOM     22  O   UNL     1      -0.295  13.734  22.492  0.00  0.00    +0.000 OA
BRANCH  21  23
ATOM     23  C   UNL     1      -1.640  12.785  20.485  0.00  0.00    +0.000 A 
ATOM     24  C   UNL     1      -1.693  12.168  19.231  0.00  0.00    +0.000 A 
ATOM     25  C   UNL     1      -2.933  11.885  18.662  0.00  0.00    +0.000 A 
ATOM     26 CL   UNL     1      -3.009  11.090  17.138  0.00  0.00    +0.000 Cl
ATOM     27  C   UNL     1      -4.115  12.213  19.326  0.00  0.00    +0.000 A 
ATOM     28  C   UNL     1      -4.048  12.817  20.581  0.00  0.00    +0.000 A 
ATOM     29 CL   UNL     1      -5.502  13.196  21.419  0.00  0.00    +0.000 Cl
ATOM     30  C   UNL     1      -2.817  13.094  21.174  0.00  0.00    +0.000 A 
ENDBRANCH  21  23
ENDBRANCH   1  21
TORSDOF 4
ENDMDL
MODEL 5
REMARK VINA RESULT:      -8.1      3.692      4.574
REMARK  Name = 
REMARK  4 active torsions:
REMARK  status: ('A' for Active; 'I' for Inactive)
REMARK    1  A    between atoms: S_2  and  C_4
REMARK    2  A    between atoms: S_2  and  N_12
REMARK    3  A    between atoms: C_16  and  C_17
REMARK    4  A    between atoms: C_23  and  C_24
REMARK                            x       y       z     vdW  Elec       q    Type
REMARK                         _______ _______ _______ _____ _____    ______ ____
ROOT
ATOM      1  N   UNL     1       0.580   9.186  20.239  0.00  0.00    +0.000 NA
ATOM      2  C   UNL     1       0.772  10.446  19.457  0.00  0.00    +0.000 C 
ATOM      3  C   UNL     1       0.931  10.148  17.968  0.00  0.00    +0.000 C 
ATOM      4  C   UNL     1       2.103   9.209  17.710  0.00  0.00    +0.000 C 
ATOM      5  C   UNL     1       1.915   7.902  18.487  0.00  0.00    +0.000 C 
ATOM      6  C   UNL     1       1.696   8.197  19.983  0.00  0.00    +0.000 C 
ENDROOT
BRANCH   5   7
ATOM      7  C   UNL     1       3.112   7.015  18.318  0.00  0.00    +0.000 A 
ATOM      8  N   UNL     1       4.204   7.325  17.644  0.00  0.00    +0.000 NA
ATOM      9  N   UNL     1       5.094   6.287  17.742  0.00  0.00    +0.000 NA
ATOM     10  C   UNL     1       4.530   5.344  18.461  0.00  0.00    +0.000 A 
ATOM     11  C   UNL     1       4.980   4.067  18.885  0.00  0.00    +0.000 A 
ATOM     12  C   UNL     1       4.160   3.278  19.606  0.00  0.00    +0.000 A 
ATOM     13  C   UNL     1       2.802   3.702  19.970  0.00  0.00    +0.000 A 
ATOM     14  C   UNL     1       2.394   4.930  19.575  0.00  0.00    +0.000 A 
ATOM     15  N   UNL     1       3.255   5.741  18.836  0.00  0.00    +0.000 N 
BRANCH  13  16
ATOM     16  C   UNL     1       1.923   2.768  20.755  0.00  0.00    +0.000 C 
ATOM     17  F   UNL     1       2.497   2.330  21.904  0.00  0.00    +0.000 F 
ATOM     18  F   UNL     1       0.753   3.364  21.100  0.00  0.00    +0.000 F 
ATOM     19  F   UNL     1       1.602   1.667  20.030  0.00  0.00    +0.000 F 
ENDBRANCH  13  16
ENDBRANCH   5   7
BRANCH   1  21
ATOM     20  O   UNL     1       1.805   9.606  22.466  0.00  0.00    +0.000 OA
ATOM     21  S   UNL     1       0.460   9.453  21.954  0.00  0.00    +0.000 S 
ATOM     22  O   UNL     1      -0.430   8.446  22.494  0.00  0.00    +0.000 OA
BRANCH  21  23
ATOM     23  C   UNL     1      -0.363  11.017  22.140  0.00  0.00    +0.000 A 
ATOM     24  C   UNL     1      -1.566  11.070  22.852  0.00  0.00    +0.000 A 
ATOM     25  C   UNL     1      -2.122  12.310  23.161  0.00  0.00    +0.000 A 
ATOM     26 CL   UNL     1      -3.580  12.387  24.071  0.00  0.00    +0.000 Cl
ATOM     27  C   UNL     1      -1.495  13.491  22.766  0.00  0.00    +0.000 A 
ATOM     28  C   UNL     1      -0.290  13.424  22.067  0.00  0.00    +0.000 A 
ATOM     29 CL   UNL     1       0.504  14.879  21.605  0.00  0.00    +0.000 Cl
ATOM     30  C   UNL     1       0.290  12.194  21.762  0.00  0.00    +0.000 A 
ENDBRANCH  21  23
ENDBRANCH   1  21
TORSDOF 4
ENDMDL
MODEL 6
REMARK VINA RESULT:      -8.0      5.635      8.423
REMARK  Name = 
REMARK  4 active torsions:
REMARK  status: ('A' for Active; 'I' for Inactive)
REMARK    1  A    between atoms: S_2  and  C_4
REMARK    2  A    between atoms: S_2  and  N_12
REMARK    3  A    between atoms: C_16  and  C_17
REMARK    4  A    between atoms: C_23  and  C_24
REMARK                            x       y       z     vdW  Elec       q    Type
REMARK                         _______ _______ _______ _____ _____    ______ ____
ROOT
ATOM      1  N   UNL     1       2.371   4.115  18.883  0.00  0.00    +0.000 NA
ATOM      2  C   UNL     1       2.824   4.043  20.307  0.00  0.00    +0.000 C 
ATOM      3  C   UNL     1       2.040   5.020  21.181  0.00  0.00    +0.000 C 
ATOM      4  C   UNL     1       2.180   6.452  20.678  0.00  0.00    +0.000 C 
ATOM      5  C   UNL     1       1.702   6.551  19.226  0.00  0.00    +0.000 C 
ATOM      6  C   UNL     1       2.445   5.528  18.347  0.00  0.00    +0.000 C 
ENDROOT
BRANCH   5   7
ATOM      7  C   UNL     1       1.930   7.934  18.693  0.00  0.00    +0.000 A 
ATOM      8  N   UNL     1       2.687   8.239  17.656  0.00  0.00    +0.000 NA
ATOM      9  N   UNL     1       2.623   9.591  17.442  0.00  0.00    +0.000 NA
ATOM     10  C   UNL     1       1.840  10.103  18.363  0.00  0.00    +0.000 A 
ATOM     11  C   UNL     1       1.413  11.431  18.625  0.00  0.00    +0.000 A 
ATOM     12  C   UNL     1       0.615  11.678  19.681  0.00  0.00    +0.000 A 
ATOM     13  C   UNL     1       0.167  10.606  20.579  0.00  0.00    +0.000 A 
ATOM     14  C   UNL     1       0.567   9.343  20.307  0.00  0.00    +0.000 A 
ATOM     15  N   UNL     1       1.388   9.098  19.206  0.00  0.00    +0.000 N 
BRANCH  13  16
ATOM     16  C   UNL     1      -0.703  10.946  21.758  0.00  0.00    +0.000 C 
ATOM     17  F   UNL     1      -1.930  11.405  21.403  0.00  0.00    +0.000 F 
ATOM     18  F   UNL     1      -0.900   9.865  22.554  0.00  0.00    +0.000 F 
ATOM     19  F   UNL     1      -0.133  11.904  22.532  0.00  0.00    +0.000 F 
ENDBRANCH  13  16
ENDBRANCH   5   7
BRANCH   1  21
ATOM     20  O   UNL     1       2.480   2.878  16.626  0.00  0.00    +0.000 OA
ATOM     21  S   UNL     1       3.272   3.073  17.821  0.00  0.00    +0.000 S 
ATOM     22  O   UNL     1       3.731   1.941  18.600  0.00  0.00    +0.000 OA
BRANCH  21  23
ATOM     23  C   UNL     1       4.719   3.995  17.358  0.00  0.00    +0.000 A 
ATOM     24  C   UNL     1       5.571   4.468  18.360  0.00  0.00    +0.000 A 
ATOM     25  C   UNL     1       6.797   5.029  18.006  0.00  0.00    +0.000 A 
ATOM     26 CL   UNL     1       7.870   5.578  19.234  0.00  0.00    +0.000 Cl
ATOM     27  C   UNL     1       7.178   5.124  16.668  0.00  0.00    +0.000 A 
ATOM     28  C   UNL     1       6.325   4.636  15.679  0.00  0.00    +0.000 A 
ATOM     29 CL   UNL     1       6.802   4.722  14.028  0.00  0.00    +0.000 Cl
ATOM     30  C   UNL     1       5.101   4.058  16.014  0.00  0.00    +0.000 A 
ENDBRANCH  21  23
ENDBRANCH   1  21
TORSDOF 4
ENDMDL
MODEL 7
REMARK VINA RESULT:      -8.0      5.583      9.107
REMARK  Name = 
REMARK  4 active torsions:
REMARK  status: ('A' for Active; 'I' for Inactive)
REMARK    1  A    between atoms: S_2  and  C_4
REMARK    2  A    between atoms: S_2  and  N_12
REMARK    3  A    between atoms: C_16  and  C_17
REMARK    4  A    between atoms: C_23  and  C_24
REMARK                            x       y       z     vdW  Elec       q    Type
REMARK                         _______ _______ _______ _____ _____    ______ ____
ROOT
ATOM      1  N   UNL     1       2.695   7.135  19.003  0.00  0.00    +0.000 NA
ATOM      2  C   UNL     1       2.205   7.631  17.679  0.00  0.00    +0.000 C 
ATOM      3  C   UNL     1       2.055   9.151  17.685  0.00  0.00    +0.000 C 
ATOM      4  C   UNL     1       1.103   9.612  18.782  0.00  0.00    +0.000 C 
ATOM      5  C   UNL     1       1.599   9.132  20.149  0.00  0.00    +0.000 C 
ATOM      6  C   UNL     1       1.809   7.606  20.135  0.00  0.00    +0.000 C 
ENDROOT
BRANCH   5   7
ATOM      7  C   UNL     1       0.615   9.496  21.220  0.00  0.00    +0.000 A 
ATOM      8  N   UNL     1       0.028   8.645  22.041  0.00  0.00    +0.000 NA
ATOM      9  N   UNL     1      -0.772   9.344  22.906  0.00  0.00    +0.000 NA
ATOM     10  C   UNL     1      -0.682  10.616  22.594  0.00  0.00    +0.000 A 
ATOM     11  C   UNL     1      -1.278  11.780  23.144  0.00  0.00    +0.000 A 
ATOM     12  C   UNL     1      -1.024  12.982  22.592  0.00  0.00    +0.000 A 
ATOM     13  C   UNL     1      -0.142  13.127  21.427  0.00  0.00    +0.000 A 
ATOM     14  C   UNL     1       0.434  12.011  20.925  0.00  0.00    +0.000 A 
ATOM     15  N   UNL     1       0.169  10.773  21.510  0.00  0.00    +0.000 N 
BRANCH  13  16
ATOM     16  C   UNL     1       0.083  14.492  20.837  0.00  0.00    +0.000 C 
ATOM     17  F   UNL     1      -0.368  15.498  21.628  0.00  0.00    +0.000 F 
ATOM     18  F   UNL     1       1.402  14.723  20.616  0.00  0.00    +0.000 F 
ATOM     19  F   UNL     1      -0.542  14.622  19.639  0.00  0.00    +0.000 F 
ENDBRANCH  13  16
ENDBRANCH   5   7
BRANCH   1  21
ATOM     20  O   UNL     1       1.845   4.850  18.171  0.00  0.00    +0.000 OA
ATOM     21  S   UNL     1       2.823   5.402  19.084  0.00  0.00    +0.000 S 
ATOM     22  O   UNL     1       2.828   5.026  20.482  0.00  0.00    +0.000 OA
BRANCH  21  23
ATOM     23  C   UNL     1       4.434   5.009  18.442  0.00  0.00    +0.000 A 
ATOM     24  C   UNL     1       4.545   4.537  17.131  0.00  0.00    +0.000 A 
ATOM     25  C   UNL     1       5.809   4.403  16.559  0.00  0.00    +0.000 A 
ATOM     26 CL   UNL     1       5.955   3.861  14.933  0.00  0.00    +0.000 Cl
ATOM     27  C   UNL     1       6.957   4.729  17.280  0.00  0.00    +0.000 A 
ATOM     28  C   UNL     1       6.831   5.211  18.583  0.00  0.00    +0.000 A 
ATOM     29 CL   UNL     1       8.242   5.645  19.467  0.00  0.00    +0.000 Cl
ATOM     30  C   UNL     1       5.575   5.367  19.167  0.00  0.00    +0.000 A 
ENDBRANCH  21  23
ENDBRANCH   1  21
TORSDOF 4
ENDMDL
MODEL 8
REMARK VINA RESULT:      -8.0      3.342      4.293
REMARK  Name = 
REMARK  4 active torsions:
REMARK  status: ('A' for Active; 'I' for Inactive)
REMARK    1  A    between atoms: S_2  and  C_4
REMARK    2  A    between atoms: S_2  and  N_12
REMARK    3  A    between atoms: C_16  and  C_17
REMARK    4  A    between atoms: C_23  and  C_24
REMARK                            x       y       z     vdW  Elec       q    Type
REMARK                         _______ _______ _______ _____ _____    ______ ____
ROOT
ATOM      1  N   UNL     1       0.364  11.250  21.878  0.00  0.00    +0.000 NA
ATOM      2  C   UNL     1      -0.812  10.532  22.460  0.00  0.00    +0.000 C 
ATOM      3  C   UNL     1      -0.448   9.097  22.834  0.00  0.00    +0.000 C 
ATOM      4  C   UNL     1       0.072   8.323  21.629  0.00  0.00    +0.000 C 
ATOM      5  C   UNL     1       1.291   9.031  21.030  0.00  0.00    +0.000 C 
ATOM      6  C   UNL     1       0.949  10.498  20.703  0.00  0.00    +0.000 C 
ENDROOT
BRANCH   5   7
ATOM      7  C   UNL     1       1.745   8.330  19.785  0.00  0.00    +0.000 A 
ATOM      8  N   UNL     1       1.973   8.909  18.621  0.00  0.00    +0.000 NA
ATOM      9  N   UNL     1       2.411   7.961  17.733  0.00  0.00    +0.000 NA
ATOM     10  C   UNL     1       2.430   6.807  18.358  0.00  0.00    +0.000 A 
ATOM     11  C   UNL     1       2.795   5.500  17.944  0.00  0.00    +0.000 A 
ATOM     12  C   UNL     1       2.685   4.472  18.806  0.00  0.00    +0.000 A 
ATOM     13  C   UNL     1       2.192   4.663  20.177  0.00  0.00    +0.000 A 
ATOM     14  C   UNL     1       1.865   5.917  20.564  0.00  0.00    +0.000 A 
ATOM     15  N   UNL     1       1.991   6.975  19.664  0.00  0.00    +0.000 N 
BRANCH  13  16
ATOM     16  C   UNL     1       2.065   3.473  21.087  0.00  0.00    +0.000 C 
ATOM     17  F   UNL     1       2.871   2.440  20.734  0.00  0.00    +0.000 F 
ATOM     18  F   UNL     1       2.375   3.796  22.369  0.00  0.00    +0.000 F 
ATOM     19  F   UNL     1       0.795   2.995  21.101  0.00  0.00    +0.000 F 
ENDBRANCH  13  16
ENDBRANCH   5   7
BRANCH   1  21
ATOM     20  O   UNL     1       0.311  12.968  19.958  0.00  0.00    +0.000 OA
ATOM     21  S   UNL     1      -0.004  12.872  21.368  0.00  0.00    +0.000 S 
ATOM     22  O   UNL     1       0.592  13.780  22.325  0.00  0.00    +0.000 OA
BRANCH  21  23
ATOM     23  C   UNL     1      -1.766  13.039  21.533  0.00  0.00    +0.000 A 
ATOM     24  C   UNL     1      -2.283  13.697  22.653  0.00  0.00    +0.000 A 
ATOM     25  C   UNL     1      -3.644  13.995  22.702  0.00  0.00    +0.000 A 
ATOM     26 CL   UNL     1      -4.282  14.840  24.059  0.00  0.00    +0.000 Cl
ATOM     27  C   UNL     1      -4.490  13.642  21.652  0.00  0.00    +0.000 A 
ATOM     28  C   UNL     1      -3.959  12.997  20.535  0.00  0.00    +0.000 A 
ATOM     29 CL   UNL     1      -4.993  12.586  19.222  0.00  0.00    +0.000 Cl
ATOM     30  C   UNL     1      -2.598  12.704  20.460  0.00  0.00    +0.000 A 
ENDBRANCH  21  23
ENDBRANCH   1  21
TORSDOF 4
ENDMDL
MODEL 9
REMARK VINA RESULT:      -7.9      3.061      3.895
REMARK  Name = 
REMARK  4 active torsions:
REMARK  status: ('A' for Active; 'I' for Inactive)
REMARK    1  A    between atoms: S_2  and  C_4
REMARK    2  A    between atoms: S_2  and  N_12
REMARK    3  A    between atoms: C_16  and  C_17
REMARK    4  A    between atoms: C_23  and  C_24
REMARK                            x       y       z     vdW  Elec       q    Type
REMARK                         _______ _______ _______ _____ _____    ______ ____
ROOT
ATOM      1  N   UNL     1       0.354  11.186  21.790  0.00  0.00    +0.000 NA
ATOM      2  C   UNL     1      -0.733  10.420  22.476  0.00  0.00    +0.000 C 
ATOM      3  C   UNL     1      -0.252   9.027  22.875  0.00  0.00    +0.000 C 
ATOM      4  C   UNL     1       0.236   8.239  21.665  0.00  0.00    +0.000 C 
ATOM      5  C   UNL     1       1.363   8.997  20.960  0.00  0.00    +0.000 C 
ATOM      6  C   UNL     1       0.907  10.425  20.605  0.00  0.00    +0.000 C 
ENDROOT
BRANCH   5   7
ATOM      7  C   UNL     1       1.779   8.277  19.712  0.00  0.00    +0.000 A 
ATOM      8  N   UNL     1       1.946   8.833  18.527  0.00  0.00    +0.000 NA
ATOM      9  N   UNL     1       2.365   7.874  17.642  0.00  0.00    +0.000 NA
ATOM     10  C   UNL     1       2.434   6.735  18.291  0.00  0.00    +0.000 A 
ATOM     11  C   UNL     1       2.808   5.427  17.890  0.00  0.00    +0.000 A 
ATOM     12  C   UNL     1       2.755   4.416  18.779  0.00  0.00    +0.000 A 
ATOM     13  C   UNL     1       2.317   4.628  20.165  0.00  0.00    +0.000 A 
ATOM     14  C   UNL     1       1.981   5.885  20.538  0.00  0.00    +0.000 A 
ATOM     15  N   UNL     1       2.047   6.924  19.610  0.00  0.00    +0.000 N 
BRANCH  13  16
ATOM     16  C   UNL     1       2.253   3.457  21.106  0.00  0.00    +0.000 C 
ATOM     17  F   UNL     1       1.100   2.749  21.001  0.00  0.00    +0.000 F 
ATOM     18  F   UNL     1       3.272   2.589  20.884  0.00  0.00    +0.000 F 
ATOM     19  F   UNL     1       2.354   3.857  22.399  0.00  0.00    +0.000 F 
ENDBRANCH  13  16
ENDBRANCH   5   7
BRANCH   1  21
ATOM     20  O   UNL     1       0.619  13.083  20.068  0.00  0.00    +0.000 OA
ATOM     21  S   UNL     1      -0.151  12.761  21.249  0.00  0.00    +0.000 S 
ATOM     22  O   UNL     1      -0.151  13.641  22.399  0.00  0.00    +0.000 OA
BRANCH  21  23
ATOM     23  C   UNL     1      -1.846  12.575  20.748  0.00  0.00    +0.000 A 
ATOM     24  C   UNL     1      -2.854  13.129  21.544  0.00  0.00    +0.000 A 
ATOM     25  C   UNL     1      -4.164  13.150  21.069  0.00  0.00    +0.000 A 
ATOM     26 CL   UNL     1      -5.404  13.865  22.024  0.00  0.00    +0.000 Cl
ATOM     27  C   UNL     1      -4.478  12.625  19.816  0.00  0.00    +0.000 A 
ATOM     28  C   UNL     1      -3.462  12.087  19.027  0.00  0.00    +0.000 A 
ATOM     29 CL   UNL     1      -3.837  11.465  17.468  0.00  0.00    +0.000 Cl
ATOM     30  C   UNL     1      -2.142  12.070  19.478  0.00  0.00    +0.000 A 
ENDBRANCH  21  23
ENDBRANCH   1  21
TORSDOF 4
ENDMDL
