MODEL 1
REMARK VINA RESULT:      -8.9      0.000      0.000
REMARK  Name = 
REMARK  6 active torsions:
REMARK  status: ('A' for Active; 'I' for Inactive)
REMARK    1  A    between atoms: C_1  and  C_2
REMARK    2  A    between atoms: C_6  and  C_7
REMARK    3  A    between atoms: N_9  and  C_10
REMARK    4  A    between atoms: N_9  and  C_22
REMARK    5  A    between atoms: C_10  and  C_11
REMARK    6  A    between atoms: C_22  and  C_23
REMARK                            x       y       z     vdW  Elec       q    Type
REMARK                         _______ _______ _______ _____ _____    ______ ____
ROOT
ATOM      1  C   UNL     1       5.479   6.113  17.421  0.00  0.00    +0.000 C 
ATOM      2  O   UNL     1       6.496   6.799  17.555  0.00  0.00    +0.000 OA
ATOM      3  N   UNL     1       5.492   4.991  16.576  0.00  0.00    +0.000 N 
ENDROOT
BRANCH   1   9
ATOM      4  C   UNL     1       1.487   9.093  17.635  0.00  0.00    +0.000 C 
ATOM      5  C   UNL     1       2.340   8.052  18.298  0.00  0.00    +0.000 A 
ATOM      6  C   UNL     1       1.975   7.510  19.531  0.00  0.00    +0.000 A 
ATOM      7  C   UNL     1       2.710   6.458  20.072  0.00  0.00    +0.000 A 
ATOM      8  C   UNL     1       3.818   5.943  19.388  0.00  0.00    +0.000 A 
ATOM      9  C   UNL     1       4.284   6.554  18.217  0.00  0.00    +0.000 A 
ATOM     10  C   UNL     1       3.509   7.594  17.670  0.00  0.00    +0.000 A 
ENDBRANCH   1   9
BRANCH   3  11
ATOM     11  C   UNL     1       4.400   4.048  16.357  0.00  0.00    +0.000 C 
BRANCH  11  12
ATOM     12  C   UNL     1       3.839   3.265  17.534  0.00  0.00    +0.000 A 
ATOM     13  N   UNL     1       2.569   3.310  17.775  0.00  0.00    +0.000 NA
ATOM     14  C   UNL     1       2.133   2.945  19.056  0.00  0.00    +0.000 A 
ATOM     15  C   UNL     1       0.798   3.187  19.387  0.00  0.00    +0.000 A 
ATOM     16  C   UNL     1       0.371   3.094  20.713  0.00  0.00    +0.000 A 
ATOM     17  C   UNL     1       1.272   2.727  21.714  0.00  0.00    +0.000 A 
ATOM     18  C   UNL     1       2.594   2.420  21.386  0.00  0.00    +0.000 A 
ATOM     19  C   UNL     1       3.016   2.536  20.059  0.00  0.00    +0.000 A 
ATOM     20  C   UNL     1       4.427   2.340  19.679  0.00  0.00    +0.000 A 
ATOM     21  O   UNL     1       5.259   1.899  20.463  0.00  0.00    +0.000 OA
ATOM     22  N   UNL     1       4.759   2.736  18.403  0.00  0.00    +0.000 N 
ATOM     23  H   UNL     1       5.737   2.673  18.150  0.00  0.00    +0.000 HD
ENDBRANCH  11  12
ENDBRANCH   3  11
BRANCH   3  24
ATOM     24  C   UNL     1       6.690   4.800  15.726  0.00  0.00    +0.000 C 
BRANCH  24  25
ATOM     25  C   UNL     1       6.466   4.949  14.204  0.00  0.00    +0.000 C 
ATOM     26  C   UNL     1       6.216   3.672  13.410  0.00  0.00    +0.000 C 
ATOM     27  C   UNL     1       6.790   4.003  12.054  0.00  0.00    +0.000 C 
ATOM     28  C   UNL     1       7.966   4.878  12.419  0.00  0.00    +0.000 C 
ATOM     29  O   UNL     1       7.579   5.622  13.580  0.00  0.00    +0.000 OA
ENDBRANCH  24  25
ENDBRANCH   3  24
TORSDOF 5
ENDMDL
MODEL 2
REMARK VINA RESULT:      -8.8      1.791      4.897
REMARK  Name = 
REMARK  6 active torsions:
REMARK  status: ('A' for Active; 'I' for Inactive)
REMARK    1  A    between atoms: C_1  and  C_2
REMARK    2  A    between atoms: C_6  and  C_7
REMARK    3  A    between atoms: N_9  and  C_10
REMARK    4  A    between atoms: N_9  and  C_22
REMARK    5  A    between atoms: C_10  and  C_11
REMARK    6  A    between atoms: C_22  and  C_23
REMARK                            x       y       z     vdW  Elec       q    Type
REMARK                         _______ _______ _______ _____ _____    ______ ____
ROOT
ATOM      1  C   UNL     1       5.398   5.642  15.255  0.00  0.00    +0.000 C 
ATOM      2  O   UNL     1       5.169   6.848  15.121  0.00  0.00    +0.000 OA
ATOM      3  N   UNL     1       5.081   4.996  16.460  0.00  0.00    +0.000 N 
ENDROOT
BRANCH   1   9
ATOM      4  C   UNL     1       4.637   2.646  11.343  0.00  0.00    +0.000 C 
ATOM      5  C   UNL     1       5.597   3.459  12.160  0.00  0.00    +0.000 A 
ATOM      6  C   UNL     1       6.928   3.599  11.768  0.00  0.00    +0.000 A 
ATOM      7  C   UNL     1       7.773   4.456  12.468  0.00  0.00    +0.000 A 
ATOM      8  C   UNL     1       7.295   5.177  13.569  0.00  0.00    +0.000 A 
ATOM      9  C   UNL     1       6.004   4.956  14.064  0.00  0.00    +0.000 A 
ATOM     10  C   UNL     1       5.156   4.111  13.323  0.00  0.00    +0.000 A 
ENDBRANCH   1   9
BRANCH   3  11
ATOM     11  C   UNL     1       5.230   3.574  16.755  0.00  0.00    +0.000 C 
BRANCH  11  12
ATOM     12  C   UNL     1       4.428   2.956  17.890  0.00  0.00    +0.000 A 
ATOM     13  N   UNL     1       3.140   3.074  17.891  0.00  0.00    +0.000 NA
ATOM     14  C   UNL     1       2.467   2.878  19.104  0.00  0.00    +0.000 A 
ATOM     15  C   UNL     1       1.110   3.205  19.160  0.00  0.00    +0.000 A 
ATOM     16  C   UNL     1       0.452   3.285  20.390  0.00  0.00    +0.000 A 
ATOM     17  C   UNL     1       1.143   3.006  21.570  0.00  0.00    +0.000 A 
ATOM     18  C   UNL     1       2.482   2.616  21.523  0.00  0.00    +0.000 A 
ATOM     19  C   UNL     1       3.135   2.560  20.288  0.00  0.00    +0.000 A 
ATOM     20  C   UNL     1       4.578   2.270  20.194  0.00  0.00    +0.000 A 
ATOM     21  O   UNL     1       5.234   1.895  21.158  0.00  0.00    +0.000 OA
ATOM     22  N   UNL     1       5.150   2.501  18.963  0.00  0.00    +0.000 N 
ATOM     23  H   UNL     1       6.152   2.373  18.899  0.00  0.00    +0.000 HD
ENDBRANCH  11  12
ENDBRANCH   3  11
BRANCH   3  24
ATOM     24  C   UNL     1       4.659   5.849  17.594  0.00  0.00    +0.000 C 
BRANCH  24  25
ATOM     25  C   UNL     1       5.800   6.409  18.476  0.00  0.00    +0.000 C 
ATOM     26  C   UNL     1       7.121   6.725  17.785  0.00  0.00    +0.000 C 
ATOM     27  C   UNL     1       8.135   6.486  18.878  0.00  0.00    +0.000 C 
ATOM     28  C   UNL     1       7.517   5.330  19.629  0.00  0.00    +0.000 C 
ATOM     29  O   UNL     1       6.097   5.513  19.566  0.00  0.00    +0.000 OA
ENDBRANCH  24  25
ENDBRANCH   3  24
TORSDOF 5
ENDMDL
MODEL 3
REMARK VINA RESULT:      -8.6      0.424      1.291
REMARK  Name = 
REMARK  6 active torsions:
REMARK  status: ('A' for Active; 'I' for Inactive)
REMARK    1  A    between atoms: C_1  and  C_2
REMARK    2  A    between atoms: C_6  and  C_7
REMARK    3  A    between atoms: N_9  and  C_10
REMARK    4  A    between atoms: N_9  and  C_22
REMARK    5  A    between atoms: C_10  and  C_11
REMARK    6  A    between atoms: C_22  and  C_23
REMARK                            x       y       z     vdW  Elec       q    Type
REMARK                         _______ _______ _______ _____ _____    ______ ____
ROOT
ATOM      1  C   UNL     1       5.294   6.164  17.016  0.00  0.00    +0.000 C 
ATOM      2  O   UNL     1       6.337   6.821  17.097  0.00  0.00    +0.000 OA
ATOM      3  N   UNL     1       5.297   4.915  16.375  0.00  0.00    +0.000 N 
ENDROOT
BRANCH   1   9
ATOM      4  C   UNL     1       2.129   6.128  20.868  0.00  0.00    +0.000 C 
ATOM      5  C   UNL     1       2.529   6.722  19.550  0.00  0.00    +0.000 A 
ATOM      6  C   UNL     1       1.841   7.815  19.021  0.00  0.00    +0.000 A 
ATOM      7  C   UNL     1       2.301   8.431  17.861  0.00  0.00    +0.000 A 
ATOM      8  C   UNL     1       3.449   7.957  17.216  0.00  0.00    +0.000 A 
ATOM      9  C   UNL     1       4.081   6.785  17.648  0.00  0.00    +0.000 A 
ATOM     10  C   UNL     1       3.621   6.196  18.841  0.00  0.00    +0.000 A 
ENDBRANCH   1   9
BRANCH   3  11
ATOM     11  C   UNL     1       4.172   3.994  16.249  0.00  0.00    +0.000 C 
BRANCH  11  12
ATOM     12  C   UNL     1       3.696   3.222  17.470  0.00  0.00    +0.000 A 
ATOM     13  N   UNL     1       2.435   3.211  17.758  0.00  0.00    +0.000 NA
ATOM     14  C   UNL     1       2.067   2.864  19.065  0.00  0.00    +0.000 A 
ATOM     15  C   UNL     1       0.734   3.050  19.441  0.00  0.00    +0.000 A 
ATOM     16  C   UNL     1       0.362   2.978  20.785  0.00  0.00    +0.000 A 
ATOM     17  C   UNL     1       1.318   2.687  21.760  0.00  0.00    +0.000 A 
ATOM     18  C   UNL     1       2.641   2.437  21.390  0.00  0.00    +0.000 A 
ATOM     19  C   UNL     1       3.006   2.532  20.045  0.00  0.00    +0.000 A 
ATOM     20  C   UNL     1       4.410   2.395  19.616  0.00  0.00    +0.000 A 
ATOM     21  O   UNL     1       5.292   2.021  20.380  0.00  0.00    +0.000 OA
ATOM     22  N   UNL     1       4.673   2.767  18.317  0.00  0.00    +0.000 N 
ATOM     23  H   UNL     1       5.643   2.745  18.028  0.00  0.00    +0.000 HD
ENDBRANCH  11  12
ENDBRANCH   3  11
BRANCH   3  24
ATOM     24  C   UNL     1       6.529   4.532  15.648  0.00  0.00    +0.000 C 
BRANCH  24  25
ATOM     25  C   UNL     1       6.572   4.911  14.149  0.00  0.00    +0.000 C 
ATOM     26  C   UNL     1       6.444   3.774  13.142  0.00  0.00    +0.000 C 
ATOM     27  C   UNL     1       7.248   4.278  11.966  0.00  0.00    +0.000 C 
ATOM     28  C   UNL     1       8.356   5.043  12.652  0.00  0.00    +0.000 C 
ATOM     29  O   UNL     1       7.785   5.623  13.831  0.00  0.00    +0.000 OA
ENDBRANCH  24  25
ENDBRANCH   3  24
TORSDOF 5
ENDMDL
MODEL 4
REMARK VINA RESULT:      -8.6      1.152      5.176
REMARK  Name = 
REMARK  6 active torsions:
REMARK  status: ('A' for Active; 'I' for Inactive)
REMARK    1  A    between atoms: C_1  and  C_2
REMARK    2  A    between atoms: C_6  and  C_7
REMARK    3  A    between atoms: N_9  and  C_10
REMARK    4  A    between atoms: N_9  and  C_22
REMARK    5  A    between atoms: C_10  and  C_11
REMARK    6  A    between atoms: C_22  and  C_23
REMARK                            x       y       z     vdW  Elec       q    Type
REMARK                         _______ _______ _______ _____ _____    ______ ____
ROOT
ATOM      1  C   UNL     1       5.713   5.678  15.630  0.00  0.00    +0.000 C 
ATOM      2  O   UNL     1       5.816   6.904  15.734  0.00  0.00    +0.000 OA
ATOM      3  N   UNL     1       5.099   4.934  16.650  0.00  0.00    +0.000 N 
ENDROOT
BRANCH   1   9
ATOM      4  C   UNL     1       4.848   2.761  11.680  0.00  0.00    +0.000 C 
ATOM      5  C   UNL     1       5.810   3.620  12.446  0.00  0.00    +0.000 A 
ATOM      6  C   UNL     1       7.089   3.878  11.950  0.00  0.00    +0.000 A 
ATOM      7  C   UNL     1       7.923   4.776  12.611  0.00  0.00    +0.000 A 
ATOM      8  C   UNL     1       7.488   5.420  13.775  0.00  0.00    +0.000 A 
ATOM      9  C   UNL     1       6.265   5.082  14.367  0.00  0.00    +0.000 A 
ATOM     10  C   UNL     1       5.423   4.197  13.667  0.00  0.00    +0.000 A 
ENDBRANCH   1   9
BRANCH   3  11
ATOM     11  C   UNL     1       4.846   3.497  16.653  0.00  0.00    +0.000 C 
BRANCH  11  12
ATOM     12  C   UNL     1       4.166   2.858  17.853  0.00  0.00    +0.000 A 
ATOM     13  N   UNL     1       2.877   2.903  17.948  0.00  0.00    +0.000 NA
ATOM     14  C   UNL     1       2.306   2.694  19.211  0.00  0.00    +0.000 A 
ATOM     15  C   UNL     1       0.941   2.945  19.362  0.00  0.00    +0.000 A 
ATOM     16  C   UNL     1       0.371   3.012  20.635  0.00  0.00    +0.000 A 
ATOM     17  C   UNL     1       1.160   2.797  21.766  0.00  0.00    +0.000 A 
ATOM     18  C   UNL     1       2.513   2.482  21.626  0.00  0.00    +0.000 A 
ATOM     19  C   UNL     1       3.077   2.438  20.347  0.00  0.00    +0.000 A 
ATOM     20  C   UNL     1       4.523   2.228  20.151  0.00  0.00    +0.000 A 
ATOM     21  O   UNL     1       5.268   1.910  21.070  0.00  0.00    +0.000 OA
ATOM     22  N   UNL     1       4.989   2.466  18.878  0.00  0.00    +0.000 N 
ATOM     23  H   UNL     1       5.990   2.394  18.742  0.00  0.00    +0.000 HD
ENDBRANCH  11  12
ENDBRANCH   3  11
BRANCH   3  24
ATOM     24  C   UNL     1       4.774   5.649  17.905  0.00  0.00    +0.000 C 
BRANCH  24  25
ATOM     25  C   UNL     1       3.358   6.265  17.982  0.00  0.00    +0.000 C 
ATOM     26  C   UNL     1       3.223   7.742  17.633  0.00  0.00    +0.000 C 
ATOM     27  C   UNL     1       2.058   8.182  18.487  0.00  0.00    +0.000 C 
ATOM     28  C   UNL     1       2.247   7.342  19.728  0.00  0.00    +0.000 C 
ATOM     29  O   UNL     1       2.787   6.088  19.295  0.00  0.00    +0.000 OA
ENDBRANCH  24  25
ENDBRANCH   3  24
TORSDOF 5
ENDMDL
MODEL 5
REMARK VINA RESULT:      -8.4      2.970      6.846
REMARK  Name = 
REMARK  6 active torsions:
REMARK  status: ('A' for Active; 'I' for Inactive)
REMARK    1  A    between atoms: C_1  and  C_2
REMARK    2  A    between atoms: C_6  and  C_7
REMARK    3  A    between atoms: N_9  and  C_10
REMARK    4  A    between atoms: N_9  and  C_22
REMARK    5  A    between atoms: C_10  and  C_11
REMARK    6  A    between atoms: C_22  and  C_23
REMARK                            x       y       z     vdW  Elec       q    Type
REMARK                         _______ _______ _______ _____ _____    ______ ____
ROOT
ATOM      1  C   UNL     1       4.286   5.124  17.697  0.00  0.00    +0.000 C 
ATOM      2  O   UNL     1       4.235   4.354  16.734  0.00  0.00    +0.000 OA
ATOM      3  N   UNL     1       3.182   5.254  18.554  0.00  0.00    +0.000 N 
ENDROOT
BRANCH   1   9
ATOM      4  C   UNL     1       8.623   5.406  20.142  0.00  0.00    +0.000 C 
ATOM      5  C   UNL     1       7.697   5.986  19.113  0.00  0.00    +0.000 A 
ATOM      6  C   UNL     1       8.080   7.089  18.349  0.00  0.00    +0.000 A 
ATOM      7  C   UNL     1       7.261   7.536  17.315  0.00  0.00    +0.000 A 
ATOM      8  C   UNL     1       6.051   6.888  17.040  0.00  0.00    +0.000 A 
ATOM      9  C   UNL     1       5.581   5.865  17.873  0.00  0.00    +0.000 A 
ATOM     10  C   UNL     1       6.438   5.406  18.892  0.00  0.00    +0.000 A 
ENDBRANCH   1   9
BRANCH   3  11
ATOM     11  C   UNL     1       3.104   6.069  19.762  0.00  0.00    +0.000 C 
BRANCH  11  12
ATOM     12  C   UNL     1       2.134   7.239  19.816  0.00  0.00    +0.000 A 
ATOM     13  N   UNL     1       2.126   8.098  18.849  0.00  0.00    +0.000 NA
ATOM     14  C   UNL     1       1.552   9.353  19.095  0.00  0.00    +0.000 A 
ATOM     15  C   UNL     1       1.724  10.352  18.133  0.00  0.00    +0.000 A 
ATOM     16  C   UNL     1       1.411  11.680  18.429  0.00  0.00    +0.000 A 
ATOM     17  C   UNL     1       0.894  12.013  19.682  0.00  0.00    +0.000 A 
ATOM     18  C   UNL     1       0.658  11.016  20.630  0.00  0.00    +0.000 A 
ATOM     19  C   UNL     1       0.994   9.692  20.329  0.00  0.00    +0.000 A 
ATOM     20  C   UNL     1       0.876   8.621  21.336  0.00  0.00    +0.000 A 
ATOM     21  O   UNL     1       0.320   8.796  22.414  0.00  0.00    +0.000 OA
ATOM     22  N   UNL     1       1.479   7.428  21.006  0.00  0.00    +0.000 N 
ATOM     23  H   UNL     1       1.467   6.705  21.714  0.00  0.00    +0.000 HD
ENDBRANCH  11  12
ENDBRANCH   3  11
BRANCH   3  24
ATOM     24  C   UNL     1       1.923   4.594  18.138  0.00  0.00    +0.000 C 
BRANCH  24  25
ATOM     25  C   UNL     1       1.433   3.446  19.050  0.00  0.00    +0.000 C 
ATOM     26  C   UNL     1       0.753   3.838  20.357  0.00  0.00    +0.000 C 
ATOM     27  C   UNL     1       1.098   2.687  21.271  0.00  0.00    +0.000 C 
ATOM     28  C   UNL     1       2.487   2.321  20.801  0.00  0.00    +0.000 C 
ATOM     29  O   UNL     1       2.516   2.555  19.388  0.00  0.00    +0.000 OA
ENDBRANCH  24  25
ENDBRANCH   3  24
TORSDOF 5
ENDMDL
MODEL 6
REMARK VINA RESULT:      -8.3      1.992      5.464
REMARK  Name = 
REMARK  6 active torsions:
REMARK  status: ('A' for Active; 'I' for Inactive)
REMARK    1  A    between atoms: C_1  and  C_2
REMARK    2  A    between atoms: C_6  and  C_7
REMARK    3  A    between atoms: N_9  and  C_10
REMARK    4  A    between atoms: N_9  and  C_22
REMARK    5  A    between atoms: C_10  and  C_11
REMARK    6  A    between atoms: C_22  and  C_23
REMARK                            x       y       z     vdW  Elec       q    Type
REMARK                         _______ _______ _______ _____ _____    ______ ____
ROOT
ATOM      1  C   UNL     1       6.802   4.466  14.481  0.00  0.00    +0.000 C 
ATOM      2  O   UNL     1       7.749   5.201  14.186  0.00  0.00    +0.000 OA
ATOM      3  N   UNL     1       6.495   4.220  15.829  0.00  0.00    +0.000 N 
ENDROOT
BRANCH   1   9
ATOM      4  C   UNL     1       6.584   0.952  10.951  0.00  0.00    +0.000 C 
ATOM      5  C   UNL     1       5.969   2.166  11.583  0.00  0.00    +0.000 A 
ATOM      6  C   UNL     1       4.738   2.654  11.145  0.00  0.00    +0.000 A 
ATOM      7  C   UNL     1       4.124   3.703  11.824  0.00  0.00    +0.000 A 
ATOM      8  C   UNL     1       4.739   4.277  12.943  0.00  0.00    +0.000 A 
ATOM      9  C   UNL     1       6.031   3.897  13.324  0.00  0.00    +0.000 A 
ATOM     10  C   UNL     1       6.620   2.813  12.646  0.00  0.00    +0.000 A 
ENDBRANCH   1   9
BRANCH   3  11
ATOM     11  C   UNL     1       5.379   3.431  16.342  0.00  0.00    +0.000 C 
BRANCH  11  12
ATOM     12  C   UNL     1       4.601   3.931  17.549  0.00  0.00    +0.000 A 
ATOM     13  N   UNL     1       4.566   3.208  18.622  0.00  0.00    +0.000 NA
ATOM     14  C   UNL     1       3.544   3.461  19.547  0.00  0.00    +0.000 A 
ATOM     15  C   UNL     1       3.374   2.557  20.598  0.00  0.00    +0.000 A 
ATOM     16  C   UNL     1       2.225   2.601  21.391  0.00  0.00    +0.000 A 
ATOM     17  C   UNL     1       1.252   3.573  21.155  0.00  0.00    +0.000 A 
ATOM     18  C   UNL     1       1.439   4.522  20.148  0.00  0.00    +0.000 A 
ATOM     19  C   UNL     1       2.583   4.455  19.348  0.00  0.00    +0.000 A 
ATOM     20  C   UNL     1       2.772   5.358  18.197  0.00  0.00    +0.000 A 
ATOM     21  O   UNL     1       2.035   6.314  17.990  0.00  0.00    +0.000 OA
ATOM     22  N   UNL     1       3.797   5.022  17.342  0.00  0.00    +0.000 N 
ATOM     23  H   UNL     1       3.896   5.591  16.510  0.00  0.00    +0.000 HD
ENDBRANCH  11  12
ENDBRANCH   3  11
BRANCH   3  24
ATOM     24  C   UNL     1       7.459   4.708  16.841  0.00  0.00    +0.000 C 
BRANCH  24  25
ATOM     25  C   UNL     1       7.118   6.066  17.497  0.00  0.00    +0.000 C 
ATOM     26  C   UNL     1       7.405   7.322  16.683  0.00  0.00    +0.000 C 
ATOM     27  C   UNL     1       7.711   8.348  17.749  0.00  0.00    +0.000 C 
ATOM     28  C   UNL     1       8.411   7.511  18.794  0.00  0.00    +0.000 C 
ATOM     29  O   UNL     1       7.799   6.216  18.760  0.00  0.00    +0.000 OA
ENDBRANCH  24  25
ENDBRANCH   3  24
TORSDOF 5
ENDMDL
MODEL 7
REMARK VINA RESULT:      -8.3      0.989      5.001
REMARK  Name = 
REMARK  6 active torsions:
REMARK  status: ('A' for Active; 'I' for Inactive)
REMARK    1  A    between atoms: C_1  and  C_2
REMARK    2  A    between atoms: C_6  and  C_7
REMARK    3  A    between atoms: N_9  and  C_10
REMARK    4  A    between atoms: N_9  and  C_22
REMARK    5  A    between atoms: C_10  and  C_11
REMARK    6  A    between atoms: C_22  and  C_23
REMARK                            x       y       z     vdW  Elec       q    Type
REMARK                         _______ _______ _______ _____ _____    ______ ____
ROOT
ATOM      1  C   UNL     1       6.635   5.328  15.740  0.00  0.00    +0.000 C 
ATOM      2  O   UNL     1       7.335   6.288  16.074  0.00  0.00    +0.000 OA
ATOM      3  N   UNL     1       5.753   4.745  16.663  0.00  0.00    +0.000 N 
ENDROOT
BRANCH   1   9
ATOM      4  C   UNL     1       4.578   2.909  11.895  0.00  0.00    +0.000 C 
ATOM      5  C   UNL     1       5.756   3.651  12.454  0.00  0.00    +0.000 A 
ATOM      6  C   UNL     1       6.865   3.935  11.656  0.00  0.00    +0.000 A 
ATOM      7  C   UNL     1       7.894   4.731  12.152  0.00  0.00    +0.000 A 
ATOM      8  C   UNL     1       7.825   5.245  13.452  0.00  0.00    +0.000 A 
ATOM      9  C   UNL     1       6.791   4.869  14.318  0.00  0.00    +0.000 A 
ATOM     10  C   UNL     1       5.745   4.091  13.787  0.00  0.00    +0.000 A 
ENDBRANCH   1   9
BRANCH   3  11
ATOM     11  C   UNL     1       4.819   3.652  16.411  0.00  0.00    +0.000 C 
BRANCH  11  12
ATOM     12  C   UNL     1       4.114   2.983  17.580  0.00  0.00    +0.000 A 
ATOM     13  N   UNL     1       2.836   3.132  17.717  0.00  0.00    +0.000 NA
ATOM     14  C   UNL     1       2.279   2.876  18.977  0.00  0.00    +0.000 A 
ATOM     15  C   UNL     1       0.945   3.232  19.188  0.00  0.00    +0.000 A 
ATOM     16  C   UNL     1       0.413   3.250  20.479  0.00  0.00    +0.000 A 
ATOM     17  C   UNL     1       1.207   2.880  21.566  0.00  0.00    +0.000 A 
ATOM     18  C   UNL     1       2.523   2.461  21.362  0.00  0.00    +0.000 A 
ATOM     19  C   UNL     1       3.050   2.467  20.067  0.00  0.00    +0.000 A 
ATOM     20  C   UNL     1       4.467   2.149  19.812  0.00  0.00    +0.000 A 
ATOM     21  O   UNL     1       5.202   1.697  20.682  0.00  0.00    +0.000 OA
ATOM     22  N   UNL     1       4.923   2.443  18.547  0.00  0.00    +0.000 N 
ATOM     23  H   UNL     1       5.909   2.295  18.375  0.00  0.00    +0.000 HD
ENDBRANCH  11  12
ENDBRANCH   3  11
BRANCH   3  24
ATOM     24  C   UNL     1       5.851   5.197  18.070  0.00  0.00    +0.000 C 
BRANCH  24  25
ATOM     25  C   UNL     1       4.818   6.260  18.509  0.00  0.00    +0.000 C 
ATOM     26  C   UNL     1       3.879   5.886  19.650  0.00  0.00    +0.000 C 
ATOM     27  C   UNL     1       2.632   6.676  19.329  0.00  0.00    +0.000 C 
ATOM     28  C   UNL     1       2.622   6.641  17.819  0.00  0.00    +0.000 C 
ATOM     29  O   UNL     1       3.992   6.668  17.399  0.00  0.00    +0.000 OA
ENDBRANCH  24  25
ENDBRANCH   3  24
TORSDOF 5
ENDMDL
MODEL 8
REMARK VINA RESULT:      -8.2      2.726      6.672
REMARK  Name = 
REMARK  6 active torsions:
REMARK  status: ('A' for Active; 'I' for Inactive)
REMARK    1  A    between atoms: C_1  and  C_2
REMARK    2  A    between atoms: C_6  and  C_7
REMARK    3  A    between atoms: N_9  and  C_10
REMARK    4  A    between atoms: N_9  and  C_22
REMARK    5  A    between atoms: C_10  and  C_11
REMARK    6  A    between atoms: C_22  and  C_23
REMARK                            x       y       z     vdW  Elec       q    Type
REMARK                         _______ _______ _______ _____ _____    ______ ____
ROOT
ATOM      1  C   UNL     1       4.229   4.991  17.600  0.00  0.00    +0.000 C 
ATOM      2  O   UNL     1       4.188   4.265  16.602  0.00  0.00    +0.000 OA
ATOM      3  N   UNL     1       3.135   5.045  18.478  0.00  0.00    +0.000 N 
ENDROOT
BRANCH   1   9
ATOM      4  C   UNL     1       8.538   5.371  20.081  0.00  0.00    +0.000 C 
ATOM      5  C   UNL     1       7.605   5.934  19.050  0.00  0.00    +0.000 A 
ATOM      6  C   UNL     1       7.963   7.053  18.297  0.00  0.00    +0.000 A 
ATOM      7  C   UNL     1       7.141   7.486  17.260  0.00  0.00    +0.000 A 
ATOM      8  C   UNL     1       5.951   6.807  16.970  0.00  0.00    +0.000 A 
ATOM      9  C   UNL     1       5.502   5.765  17.792  0.00  0.00    +0.000 A 
ATOM     10  C   UNL     1       6.363   5.322  18.814  0.00  0.00    +0.000 A 
ENDBRANCH   1   9
BRANCH   3  11
ATOM     11  C   UNL     1       3.050   5.800  19.724  0.00  0.00    +0.000 C 
BRANCH  11  12
ATOM     12  C   UNL     1       2.557   7.238  19.697  0.00  0.00    +0.000 A 
ATOM     13  N   UNL     1       1.909   7.703  20.715  0.00  0.00    +0.000 NA
ATOM     14  C   UNL     1       1.123   8.848  20.522  0.00  0.00    +0.000 A 
ATOM     15  C   UNL     1       0.262   9.232  21.553  0.00  0.00    +0.000 A 
ATOM     16  C   UNL     1      -0.727  10.192  21.327  0.00  0.00    +0.000 A 
ATOM     17  C   UNL     1      -0.841  10.796  20.073  0.00  0.00    +0.000 A 
ATOM     18  C   UNL     1       0.054  10.466  19.054  0.00  0.00    +0.000 A 
ATOM     19  C   UNL     1       1.027   9.490  19.285  0.00  0.00    +0.000 A 
ATOM     20  C   UNL     1       1.917   9.020  18.208  0.00  0.00    +0.000 A 
ATOM     21  O   UNL     1       1.972   9.575  17.117  0.00  0.00    +0.000 OA
ATOM     22  N   UNL     1       2.643   7.885  18.491  0.00  0.00    +0.000 N 
ATOM     23  H   UNL     1       3.207   7.510  17.739  0.00  0.00    +0.000 HD
ENDBRANCH  11  12
ENDBRANCH   3  11
BRANCH   3  24
ATOM     24  C   UNL     1       1.892   4.364  18.050  0.00  0.00    +0.000 C 
BRANCH  24  25
ATOM     25  C   UNL     1       1.337   3.301  19.026  0.00  0.00    +0.000 C 
ATOM     26  C   UNL     1       0.729   3.805  20.330  0.00  0.00    +0.000 C 
ATOM     27  C   UNL     1       1.006   2.671  21.288  0.00  0.00    +0.000 C 
ATOM     28  C   UNL     1       2.346   2.173  20.801  0.00  0.00    +0.000 C 
ATOM     29  O   UNL     1       2.354   2.341  19.379  0.00  0.00    +0.000 OA
ENDBRANCH  24  25
ENDBRANCH   3  24
TORSDOF 5
ENDMDL
MODEL 9
REMARK VINA RESULT:      -8.1      2.494      5.189
REMARK  Name = 
REMARK  6 active torsions:
REMARK  status: ('A' for Active; 'I' for Inactive)
REMARK    1  A    between atoms: C_1  and  C_2
REMARK    2  A    between atoms: C_6  and  C_7
REMARK    3  A    between atoms: N_9  and  C_10
REMARK    4  A    between atoms: N_9  and  C_22
REMARK    5  A    between atoms: C_10  and  C_11
REMARK    6  A    between atoms: C_22  and  C_23
REMARK                            x       y       z     vdW  Elec       q    Type
REMARK                         _______ _______ _______ _____ _____    ______ ____
ROOT
ATOM      1  C   UNL     1       4.490   4.647  18.925  0.00  0.00    +0.000 C 
ATOM      2  O   UNL     1       5.588   4.110  19.099  0.00  0.00    +0.000 OA
ATOM      3  N   UNL     1       4.368   5.730  18.040  0.00  0.00    +0.000 N 
ENDROOT
BRANCH   1   9
ATOM      4  C   UNL     1       0.356   1.862  18.765  0.00  0.00    +0.000 C 
ATOM      5  C   UNL     1       1.301   2.699  19.576  0.00  0.00    +0.000 A 
ATOM      6  C   UNL     1       1.133   2.834  20.955  0.00  0.00    +0.000 A 
ATOM      7  C   UNL     1       2.088   3.509  21.709  0.00  0.00    +0.000 A 
ATOM      8  C   UNL     1       3.217   4.061  21.091  0.00  0.00    +0.000 A 
ATOM      9  C   UNL     1       3.345   4.056  19.697  0.00  0.00    +0.000 A 
ATOM     10  C   UNL     1       2.386   3.340  18.956  0.00  0.00    +0.000 A 
ENDBRANCH   1   9
BRANCH   3  11
ATOM     11  C   UNL     1       3.139   6.430  17.679  0.00  0.00    +0.000 C 
BRANCH  11  12
ATOM     12  C   UNL     1       2.679   7.614  18.514  0.00  0.00    +0.000 A 
ATOM     13  N   UNL     1       2.234   7.409  19.711  0.00  0.00    +0.000 NA
ATOM     14  C   UNL     1       1.449   8.410  20.298  0.00  0.00    +0.000 A 
ATOM     15  C   UNL     1       0.797   8.113  21.497  0.00  0.00    +0.000 A 
ATOM     16  C   UNL     1      -0.198   8.960  21.990  0.00  0.00    +0.000 A 
ATOM     17  C   UNL     1      -0.524  10.129  21.300  0.00  0.00    +0.000 A 
ATOM     18  C   UNL     1       0.164  10.470  20.135  0.00  0.00    +0.000 A 
ATOM     19  C   UNL     1       1.143   9.604  19.640  0.00  0.00    +0.000 A 
ATOM     20  C   UNL     1       1.815   9.857  18.352  0.00  0.00    +0.000 A 
ATOM     21  O   UNL     1       1.683  10.912  17.743  0.00  0.00    +0.000 OA
ATOM     22  N   UNL     1       2.557   8.810  17.854  0.00  0.00    +0.000 N 
ATOM     23  H   UNL     1       2.968   8.943  16.938  0.00  0.00    +0.000 HD
ENDBRANCH  11  12
ENDBRANCH   3  11
BRANCH   3  24
ATOM     24  C   UNL     1       5.621   6.304  17.499  0.00  0.00    +0.000 C 
BRANCH  24  25
ATOM     25  C   UNL     1       5.875   6.066  15.992  0.00  0.00    +0.000 C 
ATOM     26  C   UNL     1       5.233   4.834  15.365  0.00  0.00    +0.000 C 
ATOM     27  C   UNL     1       6.205   4.473  14.268  0.00  0.00    +0.000 C 
ATOM     28  C   UNL     1       7.530   4.847  14.890  0.00  0.00    +0.000 C 
ATOM     29  O   UNL     1       7.288   5.996  15.711  0.00  0.00    +0.000 OA
ENDBRANCH  24  25
ENDBRANCH   3  24
TORSDOF 5
ENDMDL
