MODEL 1
REMARK VINA RESULT:      -8.4      0.000      0.000
REMARK  Name = 
REMARK  5 active torsions:
REMARK  status: ('A' for Active; 'I' for Inactive)
REMARK    1  A    between atoms: C_2  and  C_11
REMARK    2  A    between atoms: N_3  and  C_4
REMARK    3  A    between atoms: C_4  and  C_5
REMARK    4  A    between atoms: N_14  and  C_15
REMARK    5  A    between atoms: C_17  and  C_18
REMARK                            x       y       z     vdW  Elec       q    Type
REMARK                         _______ _______ _______ _____ _____    ______ ____
ROOT
ATOM      1  C   UNL     1       6.550   6.526  16.495  0.00  0.00    +0.000 C 
ATOM      2  C   UNL     1       6.638   6.362  18.030  0.00  0.00    +0.000 C 
ATOM      3  C   UNL     1       5.727   5.232  18.537  0.00  0.00    +0.000 C 
ATOM      4  N   UNL     1       4.373   5.572  18.106  0.00  0.00    +0.000 N 
ATOM      5  C   UNL     1       4.215   5.540  16.648  0.00  0.00    +0.000 C 
ATOM      6  C   UNL     1       5.081   6.668  16.065  0.00  0.00    +0.000 C 
ENDROOT
BRANCH   4   7
ATOM      7  C   UNL     1       3.317   5.613  19.009  0.00  0.00    +0.000 A 
ATOM      8  N   UNL     1       2.876   6.827  19.415  0.00  0.00    +0.000 NA
ATOM      9  C   UNL     1       1.910   6.894  20.370  0.00  0.00    +0.000 A 
ATOM     10  N   UNL     1       1.382   5.807  20.966  0.00  0.00    +0.000 NA
ATOM     11  C   UNL     1       1.776   4.616  20.544  0.00  0.00    +0.000 A 
ATOM     12  C   UNL     1       1.221   3.524  21.189  0.00  0.00    +0.000 A 
ATOM     13  C   UNL     1       1.537   2.217  20.821  0.00  0.00    +0.000 A 
ATOM     14  C   UNL     1       2.351   2.000  19.730  0.00  0.00    +0.000 A 
ATOM     15  C   UNL     1       2.893   3.097  19.060  0.00  0.00    +0.000 A 
ATOM     16  C   UNL     1       2.698   4.432  19.507  0.00  0.00    +0.000 A 
BRANCH   9  17
ATOM     17  C   UNL     1       1.344   8.233  20.861  0.00  0.00    +0.000 C 
ATOM     18  F   UNL     1       2.017   8.800  21.904  0.00  0.00    +0.000 F 
ATOM     19  F   UNL     1       1.325   9.188  19.879  0.00  0.00    +0.000 F 
ATOM     20  F   UNL     1       0.044   8.130  21.279  0.00  0.00    +0.000 F 
ENDBRANCH   9  17
ENDBRANCH   4   7
BRANCH   1  22
ATOM     21  O   UNL     1       7.854   4.488  16.292  0.00  0.00    +0.000 OA
ATOM     22  C   UNL     1       7.243   5.388  15.737  0.00  0.00    +0.000 C 
ATOM     23  N   UNL     1       7.074   5.451  14.374  0.00  0.00    +0.000 N 
ATOM     24  H   UNL     1       6.519   6.193  13.967  0.00  0.00    +0.000 HD
BRANCH  23  25
ATOM     25  C   UNL     1       7.676   4.506  13.464  0.00  0.00    +0.000 C 
BRANCH  25  26
ATOM     26  C   UNL     1       6.614   3.768  12.690  0.00  0.00    +0.000 A 
ATOM     27  C   UNL     1       5.273   4.167  12.778  0.00  0.00    +0.000 A 
ATOM     28  C   UNL     1       4.284   3.492  12.060  0.00  0.00    +0.000 A 
ATOM     29  C   UNL     1       4.623   2.404  11.258  0.00  0.00    +0.000 A 
ATOM     30  C   UNL     1       5.950   1.982  11.181  0.00  0.00    +0.000 A 
ATOM     31  C   UNL     1       6.941   2.658  11.897  0.00  0.00    +0.000 A 
ENDBRANCH  25  26
ENDBRANCH  23  25
ENDBRANCH   1  22
TORSDOF 5
ENDMDL
MODEL 2
REMARK VINA RESULT:      -8.3      0.212      1.141
REMARK  Name = 
REMARK  5 active torsions:
REMARK  status: ('A' for Active; 'I' for Inactive)
REMARK    1  A    between atoms: C_2  and  C_11
REMARK    2  A    between atoms: N_3  and  C_4
REMARK    3  A    between atoms: C_4  and  C_5
REMARK    4  A    between atoms: N_14  and  C_15
REMARK    5  A    between atoms: C_17  and  C_18
REMARK                            x       y       z     vdW  Elec       q    Type
REMARK                         _______ _______ _______ _____ _____    ______ ____
ROOT
ATOM      1  C   UNL     1       6.765   6.419  16.712  0.00  0.00    +0.000 C 
ATOM      2  C   UNL     1       6.754   6.090  18.223  0.00  0.00    +0.000 C 
ATOM      3  C   UNL     1       5.713   5.013  18.565  0.00  0.00    +0.000 C 
ATOM      4  N   UNL     1       4.423   5.531  18.114  0.00  0.00    +0.000 N 
ATOM      5  C   UNL     1       4.341   5.665  16.656  0.00  0.00    +0.000 C 
ATOM      6  C   UNL     1       5.342   6.753  16.236  0.00  0.00    +0.000 C 
ENDROOT
BRANCH   4   7
ATOM      7  C   UNL     1       3.328   5.586  18.970  0.00  0.00    +0.000 A 
ATOM      8  N   UNL     1       2.913   6.803  19.392  0.00  0.00    +0.000 NA
ATOM      9  C   UNL     1       1.907   6.880  20.304  0.00  0.00    +0.000 A 
ATOM     10  N   UNL     1       1.313   5.797  20.842  0.00  0.00    +0.000 NA
ATOM     11  C   UNL     1       1.682   4.604  20.403  0.00  0.00    +0.000 A 
ATOM     12  C   UNL     1       1.059   3.516  20.989  0.00  0.00    +0.000 A 
ATOM     13  C   UNL     1       1.345   2.209  20.597  0.00  0.00    +0.000 A 
ATOM     14  C   UNL     1       2.200   1.993  19.538  0.00  0.00    +0.000 A 
ATOM     15  C   UNL     1       2.812   3.087  18.926  0.00  0.00    +0.000 A 
ATOM     16  C   UNL     1       2.645   4.415  19.403  0.00  0.00    +0.000 A 
BRANCH   9  17
ATOM     17  C   UNL     1       1.368   8.224  20.809  0.00  0.00    +0.000 C 
ATOM     18  F   UNL     1       0.062   8.213  21.208  0.00  0.00    +0.000 F 
ATOM     19  F   UNL     1       2.071   8.703  21.883  0.00  0.00    +0.000 F 
ATOM     20  F   UNL     1       1.452   9.211  19.864  0.00  0.00    +0.000 F 
ENDBRANCH   9  17
ENDBRANCH   4   7
BRANCH   1  22
ATOM     21  O   UNL     1       7.884   4.295  16.348  0.00  0.00    +0.000 OA
ATOM     22  C   UNL     1       7.385   5.301  15.866  0.00  0.00    +0.000 C 
ATOM     23  N   UNL     1       7.287   5.515  14.513  0.00  0.00    +0.000 N 
ATOM     24  H   UNL     1       6.822   6.344  14.164  0.00  0.00    +0.000 HD
BRANCH  23  25
ATOM     25  C   UNL     1       7.841   4.612  13.532  0.00  0.00    +0.000 C 
BRANCH  25  26
ATOM     26  C   UNL     1       6.741   3.885  12.802  0.00  0.00    +0.000 A 
ATOM     27  C   UNL     1       7.056   2.885  11.870  0.00  0.00    +0.000 A 
ATOM     28  C   UNL     1       6.043   2.203  11.193  0.00  0.00    +0.000 A 
ATOM     29  C   UNL     1       4.708   2.522  11.431  0.00  0.00    +0.000 A 
ATOM     30  C   UNL     1       4.382   3.529  12.338  0.00  0.00    +0.000 A 
ATOM     31  C   UNL     1       5.395   4.211  13.018  0.00  0.00    +0.000 A 
ENDBRANCH  25  26
ENDBRANCH  23  25
ENDBRANCH   1  22
TORSDOF 5
ENDMDL
MODEL 3
REMARK VINA RESULT:      -8.1      4.767      8.642
REMARK  Name = 
REMARK  5 active torsions:
REMARK  status: ('A' for Active; 'I' for Inactive)
REMARK    1  A    between atoms: C_2  and  C_11
REMARK    2  A    between atoms: N_3  and  C_4
REMARK    3  A    between atoms: C_4  and  C_5
REMARK    4  A    between atoms: N_14  and  C_15
REMARK    5  A    between atoms: C_17  and  C_18
REMARK                            x       y       z     vdW  Elec       q    Type
REMARK                         _______ _______ _______ _____ _____    ______ ____
ROOT
ATOM      1  C   UNL     1      -0.278   9.905  20.180  0.00  0.00    +0.000 C 
ATOM      2  C   UNL     1       0.162   8.644  20.959  0.00  0.00    +0.000 C 
ATOM      3  C   UNL     1       1.663   8.360  20.785  0.00  0.00    +0.000 C 
ATOM      4  N   UNL     1       1.890   8.217  19.349  0.00  0.00    +0.000 N 
ATOM      5  C   UNL     1       1.669   9.464  18.610  0.00  0.00    +0.000 C 
ATOM      6  C   UNL     1       0.173   9.802  18.714  0.00  0.00    +0.000 C 
ENDROOT
BRANCH   4   7
ATOM      7  C   UNL     1       2.534   7.099  18.827  0.00  0.00    +0.000 A 
ATOM      8  N   UNL     1       3.471   7.296  17.871  0.00  0.00    +0.000 NA
ATOM      9  C   UNL     1       4.046   6.216  17.277  0.00  0.00    +0.000 A 
ATOM     10  N   UNL     1       3.708   4.945  17.568  0.00  0.00    +0.000 NA
ATOM     11  C   UNL     1       2.825   4.743  18.533  0.00  0.00    +0.000 A 
ATOM     12  C   UNL     1       2.494   3.424  18.794  0.00  0.00    +0.000 A 
ATOM     13  C   UNL     1       1.593   3.081  19.801  0.00  0.00    +0.000 A 
ATOM     14  C   UNL     1       1.086   4.067  20.620  0.00  0.00    +0.000 A 
ATOM     15  C   UNL     1       1.436   5.395  20.378  0.00  0.00    +0.000 A 
ATOM     16  C   UNL     1       2.238   5.779  19.269  0.00  0.00    +0.000 A 
BRANCH   9  17
ATOM     17  C   UNL     1       5.133   6.361  16.203  0.00  0.00    +0.000 C 
ATOM     18  F   UNL     1       6.325   6.856  16.647  0.00  0.00    +0.000 F 
ATOM     19  F   UNL     1       5.437   5.169  15.599  0.00  0.00    +0.000 F 
ATOM     20  F   UNL     1       4.752   7.188  15.180  0.00  0.00    +0.000 F 
ENDBRANCH   9  17
ENDBRANCH   4   7
BRANCH   1  22
ATOM     21  O   UNL     1       0.711  11.251  21.943  0.00  0.00    +0.000 OA
ATOM     22  C   UNL     1       0.222  11.203  20.824  0.00  0.00    +0.000 C 
ATOM     23  N   UNL     1       0.110  12.303  20.007  0.00  0.00    +0.000 N 
ATOM     24  H   UNL     1      -0.261  12.201  19.071  0.00  0.00    +0.000 HD
BRANCH  23  25
ATOM     25  C   UNL     1       0.479  13.634  20.426  0.00  0.00    +0.000 C 
BRANCH  25  26
ATOM     26  C   UNL     1       1.497  14.221  19.483  0.00  0.00    +0.000 A 
ATOM     27  C   UNL     1       2.537  13.424  18.984  0.00  0.00    +0.000 A 
ATOM     28  C   UNL     1       3.481  13.960  18.106  0.00  0.00    +0.000 A 
ATOM     29  C   UNL     1       3.403  15.298  17.728  0.00  0.00    +0.000 A 
ATOM     30  C   UNL     1       2.387  16.107  18.235  0.00  0.00    +0.000 A 
ATOM     31  C   UNL     1       1.440  15.573  19.112  0.00  0.00    +0.000 A 
ENDBRANCH  25  26
ENDBRANCH  23  25
ENDBRANCH   1  22
TORSDOF 5
ENDMDL
MODEL 4
REMARK VINA RESULT:      -8.1      4.769      8.604
REMARK  Name = 
REMARK  5 active torsions:
REMARK  status: ('A' for Active; 'I' for Inactive)
REMARK    1  A    between atoms: C_2  and  C_11
REMARK    2  A    between atoms: N_3  and  C_4
REMARK    3  A    between atoms: C_4  and  C_5
REMARK    4  A    between atoms: N_14  and  C_15
REMARK    5  A    between atoms: C_17  and  C_18
REMARK                            x       y       z     vdW  Elec       q    Type
REMARK                         _______ _______ _______ _____ _____    ______ ____
ROOT
ATOM      1  C   UNL     1      -0.158   9.906  20.093  0.00  0.00    +0.000 C 
ATOM      2  C   UNL     1       0.233   8.634  20.881  0.00  0.00    +0.000 C 
ATOM      3  C   UNL     1       1.726   8.303  20.727  0.00  0.00    +0.000 C 
ATOM      4  N   UNL     1       1.966   8.148  19.294  0.00  0.00    +0.000 N 
ATOM      5  C   UNL     1       1.793   9.398  18.549  0.00  0.00    +0.000 C 
ATOM      6  C   UNL     1       0.308   9.784  18.633  0.00  0.00    +0.000 C 
ENDROOT
BRANCH   4   7
ATOM      7  C   UNL     1       2.581   7.008  18.785  0.00  0.00    +0.000 A 
ATOM      8  N   UNL     1       3.495   7.168  17.800  0.00  0.00    +0.000 NA
ATOM      9  C   UNL     1       4.040   6.066  17.218  0.00  0.00    +0.000 A 
ATOM     10  N   UNL     1       3.692   4.807  17.550  0.00  0.00    +0.000 NA
ATOM     11  C   UNL     1       2.831   4.641  18.542  0.00  0.00    +0.000 A 
ATOM     12  C   UNL     1       2.488   3.335  18.844  0.00  0.00    +0.000 A 
ATOM     13  C   UNL     1       1.609   3.029  19.881  0.00  0.00    +0.000 A 
ATOM     14  C   UNL     1       1.137   4.042  20.688  0.00  0.00    +0.000 A 
ATOM     15  C   UNL     1       1.500   5.359  20.405  0.00  0.00    +0.000 A 
ATOM     16  C   UNL     1       2.278   5.704  19.267  0.00  0.00    +0.000 A 
BRANCH   9  17
ATOM     17  C   UNL     1       5.100   6.168  16.115  0.00  0.00    +0.000 C 
ATOM     18  F   UNL     1       4.844   7.098  15.148  0.00  0.00    +0.000 F 
ATOM     19  F   UNL     1       6.340   6.485  16.604  0.00  0.00    +0.000 F 
ATOM     20  F   UNL     1       5.276   4.986  15.446  0.00  0.00    +0.000 F 
ENDBRANCH   9  17
ENDBRANCH   4   7
BRANCH   1  22
ATOM     21  O   UNL     1       1.000  11.202  21.789  0.00  0.00    +0.000 OA
ATOM     22  C   UNL     1       0.375  11.190  20.739  0.00  0.00    +0.000 C 
ATOM     23  N   UNL     1       0.122  12.323  20.004  0.00  0.00    +0.000 N 
ATOM     24  H   UNL     1      -0.361  12.253  19.117  0.00  0.00    +0.000 HD
BRANCH  23  25
ATOM     25  C   UNL     1       0.495  13.646  20.445  0.00  0.00    +0.000 C 
BRANCH  25  26
ATOM     26  C   UNL     1       1.518  14.245  19.513  0.00  0.00    +0.000 A 
ATOM     27  C   UNL     1       1.400  15.580  19.103  0.00  0.00    +0.000 A 
ATOM     28  C   UNL     1       2.346  16.144  18.245  0.00  0.00    +0.000 A 
ATOM     29  C   UNL     1       3.410  15.376  17.778  0.00  0.00    +0.000 A 
ATOM     30  C   UNL     1       3.526  14.040  18.159  0.00  0.00    +0.000 A 
ATOM     31  C   UNL     1       2.581  13.475  19.021  0.00  0.00    +0.000 A 
ENDBRANCH  25  26
ENDBRANCH  23  25
ENDBRANCH   1  22
TORSDOF 5
ENDMDL
MODEL 5
REMARK VINA RESULT:      -8.0      0.946      1.609
REMARK  Name = 
REMARK  5 active torsions:
REMARK  status: ('A' for Active; 'I' for Inactive)
REMARK    1  A    between atoms: C_2  and  C_11
REMARK    2  A    between atoms: N_3  and  C_4
REMARK    3  A    between atoms: C_4  and  C_5
REMARK    4  A    between atoms: N_14  and  C_15
REMARK    5  A    between atoms: C_17  and  C_18
REMARK                            x       y       z     vdW  Elec       q    Type
REMARK                         _______ _______ _______ _____ _____    ______ ____
ROOT
ATOM      1  C   UNL     1       6.524   5.336  16.527  0.00  0.00    +0.000 C 
ATOM      2  C   UNL     1       5.610   4.174  16.978  0.00  0.00    +0.000 C 
ATOM      3  C   UNL     1       4.125   4.568  16.946  0.00  0.00    +0.000 C 
ATOM      4  N   UNL     1       3.990   5.733  17.818  0.00  0.00    +0.000 N 
ATOM      5  C   UNL     1       4.691   6.913  17.304  0.00  0.00    +0.000 C 
ATOM      6  C   UNL     1       6.196   6.605  17.332  0.00  0.00    +0.000 C 
ENDROOT
BRANCH   4   7
ATOM      7  C   UNL     1       3.051   5.762  18.844  0.00  0.00    +0.000 A 
ATOM      8  N   UNL     1       2.623   6.970  19.278  0.00  0.00    +0.000 NA
ATOM      9  C   UNL     1       1.779   7.029  20.343  0.00  0.00    +0.000 A 
ATOM     10  N   UNL     1       1.364   5.940  21.019  0.00  0.00    +0.000 NA
ATOM     11  C   UNL     1       1.742   4.752  20.573  0.00  0.00    +0.000 A 
ATOM     12  C   UNL     1       1.306   3.658  21.301  0.00  0.00    +0.000 A 
ATOM     13  C   UNL     1       1.618   2.354  20.922  0.00  0.00    +0.000 A 
ATOM     14  C   UNL     1       2.300   2.138  19.744  0.00  0.00    +0.000 A 
ATOM     15  C   UNL     1       2.720   3.235  18.992  0.00  0.00    +0.000 A 
ATOM     16  C   UNL     1       2.537   4.574  19.435  0.00  0.00    +0.000 A 
BRANCH   9  17
ATOM     17  C   UNL     1       1.233   8.361  20.875  0.00  0.00    +0.000 C 
ATOM     18  F   UNL     1      -0.084   8.346  21.234  0.00  0.00    +0.000 F 
ATOM     19  F   UNL     1       1.906   8.800  21.985  0.00  0.00    +0.000 F 
ATOM     20  F   UNL     1       1.352   9.377  19.965  0.00  0.00    +0.000 F 
ENDBRANCH   9  17
ENDBRANCH   4   7
BRANCH   1  22
ATOM     21  O   UNL     1       5.621   6.347  14.512  0.00  0.00    +0.000 OA
ATOM     22  C   UNL     1       6.445   5.601  15.019  0.00  0.00    +0.000 C 
ATOM     23  N   UNL     1       7.416   4.954  14.294  0.00  0.00    +0.000 N 
ATOM     24  H   UNL     1       8.104   4.382  14.768  0.00  0.00    +0.000 HD
BRANCH  23  25
ATOM     25  C   UNL     1       7.502   5.026  12.855  0.00  0.00    +0.000 C 
BRANCH  25  26
ATOM     26  C   UNL     1       6.900   3.795  12.227  0.00  0.00    +0.000 A 
ATOM     27  C   UNL     1       7.724   2.847  11.605  0.00  0.00    +0.000 A 
ATOM     28  C   UNL     1       7.174   1.702  11.026  0.00  0.00    +0.000 A 
ATOM     29  C   UNL     1       5.796   1.500  11.051  0.00  0.00    +0.000 A 
ATOM     30  C   UNL     1       4.964   2.446  11.646  0.00  0.00    +0.000 A 
ATOM     31  C   UNL     1       5.512   3.592  12.229  0.00  0.00    +0.000 A 
ENDBRANCH  25  26
ENDBRANCH  23  25
ENDBRANCH   1  22
TORSDOF 5
ENDMDL
MODEL 6
REMARK VINA RESULT:      -8.0      4.585      8.377
REMARK  Name = 
REMARK  5 active torsions:
REMARK  status: ('A' for Active; 'I' for Inactive)
REMARK    1  A    between atoms: C_2  and  C_11
REMARK    2  A    between atoms: N_3  and  C_4
REMARK    3  A    between atoms: C_4  and  C_5
REMARK    4  A    between atoms: N_14  and  C_15
REMARK    5  A    between atoms: C_17  and  C_18
REMARK                            x       y       z     vdW  Elec       q    Type
REMARK                         _______ _______ _______ _____ _____    ______ ____
ROOT
ATOM      1  C   UNL     1       1.176  10.531  20.881  0.00  0.00    +0.000 C 
ATOM      2  C   UNL     1       1.692  10.409  19.428  0.00  0.00    +0.000 C 
ATOM      3  C   UNL     1       1.236   9.097  18.769  0.00  0.00    +0.000 C 
ATOM      4  N   UNL     1       1.738   8.017  19.614  0.00  0.00    +0.000 N 
ATOM      5  C   UNL     1       1.112   7.993  20.940  0.00  0.00    +0.000 C 
ATOM      6  C   UNL     1       1.546   9.270  21.678  0.00  0.00    +0.000 C 
ENDROOT
BRANCH   4   7
ATOM      7  C   UNL     1       2.491   6.975  19.083  0.00  0.00    +0.000 A 
ATOM      8  N   UNL     1       3.438   7.280  18.167  0.00  0.00    +0.000 NA
ATOM      9  C   UNL     1       4.122   6.272  17.561  0.00  0.00    +0.000 A 
ATOM     10  N   UNL     1       3.883   4.968  17.802  0.00  0.00    +0.000 NA
ATOM     11  C   UNL     1       2.989   4.661  18.730  0.00  0.00    +0.000 A 
ATOM     12  C   UNL     1       2.763   3.312  18.940  0.00  0.00    +0.000 A 
ATOM     13  C   UNL     1       1.862   2.862  19.903  0.00  0.00    +0.000 A 
ATOM     14  C   UNL     1       1.247   3.775  20.733  0.00  0.00    +0.000 A 
ATOM     15  C   UNL     1       1.491   5.135  20.543  0.00  0.00    +0.000 A 
ATOM     16  C   UNL     1       2.293   5.621  19.475  0.00  0.00    +0.000 A 
BRANCH   9  17
ATOM     17  C   UNL     1       5.226   6.541  16.532  0.00  0.00    +0.000 C 
ATOM     18  F   UNL     1       5.897   5.435  16.096  0.00  0.00    +0.000 F 
ATOM     19  F   UNL     1       4.752   7.147  15.397  0.00  0.00    +0.000 F 
ATOM     20  F   UNL     1       6.191   7.389  17.007  0.00  0.00    +0.000 F 
ENDBRANCH   9  17
ENDBRANCH   4   7
BRANCH   1  22
ATOM     21  O   UNL     1      -1.041  10.413  21.863  0.00  0.00    +0.000 OA
ATOM     22  C   UNL     1      -0.329  10.812  20.954  0.00  0.00    +0.000 C 
ATOM     23  N   UNL     1      -0.796  11.591  19.922  0.00  0.00    +0.000 N 
ATOM     24  H   UNL     1      -0.155  11.934  19.218  0.00  0.00    +0.000 HD
BRANCH  23  25
ATOM     25  C   UNL     1      -2.187  11.941  19.769  0.00  0.00    +0.000 C 
BRANCH  25  26
ATOM     26  C   UNL     1      -2.721  11.426  18.457  0.00  0.00    +0.000 A 
ATOM     27  C   UNL     1      -1.904  10.651  17.621  0.00  0.00    +0.000 A 
ATOM     28  C   UNL     1      -2.393  10.165  16.406  0.00  0.00    +0.000 A 
ATOM     29  C   UNL     1      -3.695  10.460  16.009  0.00  0.00    +0.000 A 
ATOM     30  C   UNL     1      -4.509  11.249  16.821  0.00  0.00    +0.000 A 
ATOM     31  C   UNL     1      -4.023  11.734  18.038  0.00  0.00    +0.000 A 
ENDBRANCH  25  26
ENDBRANCH  23  25
ENDBRANCH   1  22
TORSDOF 5
ENDMDL
MODEL 7
REMARK VINA RESULT:      -8.0      4.714      8.370
REMARK  Name = 
REMARK  5 active torsions:
REMARK  status: ('A' for Active; 'I' for Inactive)
REMARK    1  A    between atoms: C_2  and  C_11
REMARK    2  A    between atoms: N_3  and  C_4
REMARK    3  A    between atoms: C_4  and  C_5
REMARK    4  A    between atoms: N_14  and  C_15
REMARK    5  A    between atoms: C_17  and  C_18
REMARK                            x       y       z     vdW  Elec       q    Type
REMARK                         _______ _______ _______ _____ _____    ______ ____
ROOT
ATOM      1  C   UNL     1       1.148  10.701  20.513  0.00  0.00    +0.000 C 
ATOM      2  C   UNL     1       1.584  10.476  19.047  0.00  0.00    +0.000 C 
ATOM      3  C   UNL     1       1.154   9.094  18.529  0.00  0.00    +0.000 C 
ATOM      4  N   UNL     1       1.756   8.113  19.429  0.00  0.00    +0.000 N 
ATOM      5  C   UNL     1       1.210   8.177  20.788  0.00  0.00    +0.000 C 
ATOM      6  C   UNL     1       1.625   9.530  21.389  0.00  0.00    +0.000 C 
ENDROOT
BRANCH   4   7
ATOM      7  C   UNL     1       2.526   7.062  18.940  0.00  0.00    +0.000 A 
ATOM      8  N   UNL     1       3.406   7.329  17.948  0.00  0.00    +0.000 NA
ATOM      9  C   UNL     1       4.101   6.303  17.387  0.00  0.00    +0.000 A 
ATOM     10  N   UNL     1       3.937   5.015  17.747  0.00  0.00    +0.000 NA
ATOM     11  C   UNL     1       3.111   4.750  18.747  0.00  0.00    +0.000 A 
ATOM     12  C   UNL     1       2.959   3.415  19.079  0.00  0.00    +0.000 A 
ATOM     13  C   UNL     1       2.135   3.010  20.127  0.00  0.00    +0.000 A 
ATOM     14  C   UNL     1       1.524   3.963  20.915  0.00  0.00    +0.000 A 
ATOM     15  C   UNL     1       1.694   5.311  20.601  0.00  0.00    +0.000 A 
ATOM     16  C   UNL     1       2.413   5.739  19.452  0.00  0.00    +0.000 A 
BRANCH   9  17
ATOM     17  C   UNL     1       5.134   6.531  16.276  0.00  0.00    +0.000 C 
ATOM     18  F   UNL     1       4.698   7.285  15.225  0.00  0.00    +0.000 F 
ATOM     19  F   UNL     1       6.264   7.159  16.729  0.00  0.00    +0.000 F 
ATOM     20  F   UNL     1       5.579   5.359  15.725  0.00  0.00    +0.000 F 
ENDBRANCH   9  17
ENDBRANCH   4   7
BRANCH   1  22
ATOM     21  O   UNL     1      -1.007  10.534  21.618  0.00  0.00    +0.000 OA
ATOM     22  C   UNL     1      -0.362  10.922  20.656  0.00  0.00    +0.000 C 
ATOM     23  N   UNL     1      -0.915  11.636  19.620  0.00  0.00    +0.000 N 
ATOM     24  H   UNL     1      -0.327  11.974  18.869  0.00  0.00    +0.000 HD
BRANCH  23  25
ATOM     25  C   UNL     1      -2.327  11.921  19.529  0.00  0.00    +0.000 C 
BRANCH  25  26
ATOM     26  C   UNL     1      -2.872  11.467  18.199  0.00  0.00    +0.000 A 
ATOM     27  C   UNL     1      -4.189  11.781  17.833  0.00  0.00    +0.000 A 
ATOM     28  C   UNL     1      -4.700  11.369  16.601  0.00  0.00    +0.000 A 
ATOM     29  C   UNL     1      -3.906  10.627  15.729  0.00  0.00    +0.000 A 
ATOM     30  C   UNL     1      -2.603  10.288  16.090  0.00  0.00    +0.000 A 
ATOM     31  C   UNL     1      -2.089  10.702  17.322  0.00  0.00    +0.000 A 
ENDBRANCH  25  26
ENDBRANCH  23  25
ENDBRANCH   1  22
TORSDOF 5
ENDMDL
MODEL 8
REMARK VINA RESULT:      -8.0      0.940      1.348
REMARK  Name = 
REMARK  5 active torsions:
REMARK  status: ('A' for Active; 'I' for Inactive)
REMARK    1  A    between atoms: C_2  and  C_11
REMARK    2  A    between atoms: N_3  and  C_4
REMARK    3  A    between atoms: C_4  and  C_5
REMARK    4  A    between atoms: N_14  and  C_15
REMARK    5  A    between atoms: C_17  and  C_18
REMARK                            x       y       z     vdW  Elec       q    Type
REMARK                         _______ _______ _______ _____ _____    ______ ____
ROOT
ATOM      1  C   UNL     1       6.533   5.271  16.510  0.00  0.00    +0.000 C 
ATOM      2  C   UNL     1       5.600   4.120  16.952  0.00  0.00    +0.000 C 
ATOM      3  C   UNL     1       4.122   4.538  16.922  0.00  0.00    +0.000 C 
ATOM      4  N   UNL     1       4.006   5.698  17.804  0.00  0.00    +0.000 N 
ATOM      5  C   UNL     1       4.725   6.871  17.299  0.00  0.00    +0.000 C 
ATOM      6  C   UNL     1       6.226   6.539  17.324  0.00  0.00    +0.000 C 
ENDROOT
BRANCH   4   7
ATOM      7  C   UNL     1       3.066   5.735  18.829  0.00  0.00    +0.000 A 
ATOM      8  N   UNL     1       2.647   6.946  19.262  0.00  0.00    +0.000 NA
ATOM      9  C   UNL     1       1.803   7.012  20.327  0.00  0.00    +0.000 A 
ATOM     10  N   UNL     1       1.380   5.926  21.004  0.00  0.00    +0.000 NA
ATOM     11  C   UNL     1       1.750   4.735  20.559  0.00  0.00    +0.000 A 
ATOM     12  C   UNL     1       1.306   3.645  21.288  0.00  0.00    +0.000 A 
ATOM     13  C   UNL     1       1.609   2.338  20.909  0.00  0.00    +0.000 A 
ATOM     14  C   UNL     1       2.290   2.117  19.731  0.00  0.00    +0.000 A 
ATOM     15  C   UNL     1       2.717   3.211  18.979  0.00  0.00    +0.000 A 
ATOM     16  C   UNL     1       2.544   4.550  19.420  0.00  0.00    +0.000 A 
BRANCH   9  17
ATOM     17  C   UNL     1       1.267   8.347  20.859  0.00  0.00    +0.000 C 
ATOM     18  F   UNL     1       1.354   9.396  19.989  0.00  0.00    +0.000 F 
ATOM     19  F   UNL     1      -0.055   8.280  21.213  0.00  0.00    +0.000 F 
ATOM     20  F   UNL     1       1.915   8.759  21.992  0.00  0.00    +0.000 F 
ENDBRANCH   9  17
ENDBRANCH   4   7
BRANCH   1  22
ATOM     21  O   UNL     1       5.654   6.320  14.504  0.00  0.00    +0.000 OA
ATOM     22  C   UNL     1       6.459   5.548  15.004  0.00  0.00    +0.000 C 
ATOM     23  N   UNL     1       7.412   4.881  14.273  0.00  0.00    +0.000 N 
ATOM     24  H   UNL     1       8.085   4.288  14.742  0.00  0.00    +0.000 HD
BRANCH  23  25
ATOM     25  C   UNL     1       7.498   4.962  12.835  0.00  0.00    +0.000 C 
BRANCH  25  26
ATOM     26  C   UNL     1       6.880   3.742  12.199  0.00  0.00    +0.000 A 
ATOM     27  C   UNL     1       5.488   3.577  12.198  0.00  0.00    +0.000 A 
ATOM     28  C   UNL     1       4.908   2.453  11.607  0.00  0.00    +0.000 A 
ATOM     29  C   UNL     1       5.714   1.477  11.024  0.00  0.00    +0.000 A 
ATOM     30  C   UNL     1       7.100   1.617  11.039  0.00  0.00    +0.000 A 
ATOM     31  C   UNL     1       7.682   2.743  11.628  0.00  0.00    +0.000 A 
ENDBRANCH  25  26
ENDBRANCH  23  25
ENDBRANCH   1  22
TORSDOF 5
ENDMDL
MODEL 9
REMARK VINA RESULT:      -8.0      4.732      8.043
REMARK  Name = 
REMARK  5 active torsions:
REMARK  status: ('A' for Active; 'I' for Inactive)
REMARK    1  A    between atoms: C_2  and  C_11
REMARK    2  A    between atoms: N_3  and  C_4
REMARK    3  A    between atoms: C_4  and  C_5
REMARK    4  A    between atoms: N_14  and  C_15
REMARK    5  A    between atoms: C_17  and  C_18
REMARK                            x       y       z     vdW  Elec       q    Type
REMARK                         _______ _______ _______ _____ _____    ______ ____
ROOT
ATOM      1  C   UNL     1       1.368  10.029  19.801  0.00  0.00    +0.000 C 
ATOM      2  C   UNL     1       1.819   9.796  18.340  0.00  0.00    +0.000 C 
ATOM      3  C   UNL     1       1.564   8.350  17.887  0.00  0.00    +0.000 C 
ATOM      4  N   UNL     1       2.290   7.493  18.821  0.00  0.00    +0.000 N 
ATOM      5  C   UNL     1       1.749   7.547  20.183  0.00  0.00    +0.000 C 
ATOM      6  C   UNL     1       1.993   8.966  20.720  0.00  0.00    +0.000 C 
ENDROOT
BRANCH   4   7
ATOM      7  C   UNL     1       3.183   6.527  18.370  0.00  0.00    +0.000 A 
ATOM      8  N   UNL     1       4.433   6.924  18.038  0.00  0.00    +0.000 NA
ATOM      9  C   UNL     1       5.296   6.019  17.503  0.00  0.00    +0.000 A 
ATOM     10  N   UNL     1       4.961   4.738  17.252  0.00  0.00    +0.000 NA
ATOM     11  C   UNL     1       3.755   4.329  17.615  0.00  0.00    +0.000 A 
ATOM     12  C   UNL     1       3.443   3.011  17.330  0.00  0.00    +0.000 A 
ATOM     13  C   UNL     1       2.214   2.456  17.681  0.00  0.00    +0.000 A 
ATOM     14  C   UNL     1       1.318   3.206  18.412  0.00  0.00    +0.000 A 
ATOM     15  C   UNL     1       1.637   4.528  18.726  0.00  0.00    +0.000 A 
ATOM     16  C   UNL     1       2.821   5.155  18.253  0.00  0.00    +0.000 A 
BRANCH   9  17
ATOM     17  C   UNL     1       6.735   6.390  17.125  0.00  0.00    +0.000 C 
ATOM     18  F   UNL     1       7.002   7.729  17.099  0.00  0.00    +0.000 F 
ATOM     19  F   UNL     1       7.659   5.853  17.983  0.00  0.00    +0.000 F 
ATOM     20  F   UNL     1       7.089   5.923  15.887  0.00  0.00    +0.000 F 
ENDBRANCH   9  17
ENDBRANCH   4   7
BRANCH   1  22
ATOM     21  O   UNL     1      -0.764   9.395  20.773  0.00  0.00    +0.000 OA
ATOM     22  C   UNL     1      -0.157  10.064  19.952  0.00  0.00    +0.000 C 
ATOM     23  N   UNL     1      -0.774  10.953  19.105  0.00  0.00    +0.000 N 
ATOM     24  H   UNL     1      -0.220  11.518  18.474  0.00  0.00    +0.000 HD
BRANCH  23  25
ATOM     25  C   UNL     1      -2.207  11.117  19.046  0.00  0.00    +0.000 C 
BRANCH  25  26
ATOM     26  C   UNL     1      -2.716  10.827  17.657  0.00  0.00    +0.000 A 
ATOM     27  C   UNL     1      -3.906  11.415  17.207  0.00  0.00    +0.000 A 
ATOM     28  C   UNL     1      -4.381  11.157  15.919  0.00  0.00    +0.000 A 
ATOM     29  C   UNL     1      -3.679  10.299  15.075  0.00  0.00    +0.000 A 
ATOM     30  C   UNL     1      -2.507   9.690  15.520  0.00  0.00    +0.000 A 
ATOM     31  C   UNL     1      -2.028   9.949  16.806  0.00  0.00    +0.000 A 
ENDBRANCH  25  26
ENDBRANCH  23  25
ENDBRANCH   1  22
TORSDOF 5
ENDMDL
