MODEL 1
REMARK VINA RESULT:      -7.7      0.000      0.000
REMARK  Name = 
REMARK  5 active torsions:
REMARK  status: ('A' for Active; 'I' for Inactive)
REMARK    1  A    between atoms: C_2  and  C_3
REMARK    2  A    between atoms: C_8  and  O_9
REMARK    3  A    between atoms: O_9  and  C_10
REMARK    4  A    between atoms: C_10  and  C_11
REMARK    5  A    between atoms: C_16  and  C_17
REMARK                            x       y       z     vdW  Elec       q    Type
REMARK                         _______ _______ _______ _____ _____    ______ ____
ROOT
ATOM      1  C   UNL     1       3.607   2.150  18.868  0.00  0.00    +0.000 C 
ATOM      2  O   UNL     1       3.857   1.003  18.489  0.00  0.00    +0.000 OA
ATOM      3  N   UNL     1       2.307   2.590  18.862  0.00  0.00    +0.000 N 
ATOM      4  C   UNL     1       1.973   3.800  19.392  0.00  0.00    +0.000 A 
ATOM      5  N   UNL     1       2.095   4.942  18.770  0.00  0.00    +0.000 NA
ATOM      6  C   UNL     1       1.834   5.975  19.655  0.00  0.00    +0.000 A 
ATOM      7  C   UNL     1       1.622   5.570  20.962  0.00  0.00    +0.000 A 
ATOM      8  S   UNL     1       1.557   3.851  21.040  0.00  0.00    +0.000 S 
ATOM      9  H   UNL     1       1.595   1.887  18.743  0.00  0.00    +0.000 HD
ENDROOT
BRANCH   6  10
ATOM     10  C   UNL     1       1.860   7.362  19.211  0.00  0.00    +0.000 A 
ATOM     11  C   UNL     1       2.514   7.692  18.014  0.00  0.00    +0.000 A 
ATOM     12  C   UNL     1       2.565   9.013  17.566  0.00  0.00    +0.000 A 
ATOM     13  C   UNL     1       1.981  10.018  18.330  0.00  0.00    +0.000 A 
ATOM     14  C   UNL     1       1.302   9.710  19.515  0.00  0.00    +0.000 A 
ATOM     15  C   UNL     1       1.227   8.379  19.941  0.00  0.00    +0.000 A 
ATOM     16  C   UNL     1       0.598  10.812  20.257  0.00  0.00    +0.000 C 
ATOM     17  C   UNL     1       1.381  12.109  20.136  0.00  0.00    +0.000 C 
ATOM     18  C   UNL     1       1.717  12.418  18.694  0.00  0.00    +0.000 C 
ATOM     19  O   UNL     1       1.786  13.568  18.266  0.00  0.00    +0.000 OA
ATOM     20  N   UNL     1       2.066  11.348  17.912  0.00  0.00    +0.000 N 
ATOM     21  H   UNL     1       2.430  11.571  16.994  0.00  0.00    +0.000 HD
ENDBRANCH   6  10
BRANCH   1  22
ATOM     22  C   UNL     1       4.706   3.077  19.400  0.00  0.00    +0.000 C 
BRANCH  22  23
ATOM     23  O   UNL     1       5.645   3.307  18.353  0.00  0.00    +0.000 OA
BRANCH  23  29
ATOM     24  C   UNL     1       6.637   5.614  18.325  0.00  0.00    +0.000 A 
ATOM     25  C   UNL     1       6.669   6.839  17.634  0.00  0.00    +0.000 A 
ATOM     26  C   UNL     1       5.905   7.041  16.487  0.00  0.00    +0.000 A 
ATOM     27  C   UNL     1       5.102   6.012  16.014  0.00  0.00    +0.000 A 
ATOM     28  C   UNL     1       5.072   4.787  16.687  0.00  0.00    +0.000 A 
ATOM     29  C   UNL     1       5.831   4.568  17.850  0.00  0.00    +0.000 A 
BRANCH  24  31
ATOM     30  N   UNL     1       8.107   5.485  20.454  0.00  0.00    +0.000 NA
ATOM     31  C   UNL     1       7.456   5.545  19.499  0.00  0.00    +0.000 C 
ENDBRANCH  24  31
ENDBRANCH  23  29
ENDBRANCH  22  23
ENDBRANCH   1  22
TORSDOF 5
ENDMDL
MODEL 2
REMARK VINA RESULT:      -7.7      1.282      1.873
REMARK  Name = 
REMARK  5 active torsions:
REMARK  status: ('A' for Active; 'I' for Inactive)
REMARK    1  A    between atoms: C_2  and  C_3
REMARK    2  A    between atoms: C_8  and  O_9
REMARK    3  A    between atoms: O_9  and  C_10
REMARK    4  A    between atoms: C_10  and  C_11
REMARK    5  A    between atoms: C_16  and  C_17
REMARK                            x       y       z     vdW  Elec       q    Type
REMARK                         _______ _______ _______ _____ _____    ______ ____
ROOT
ATOM      1  C   UNL     1       3.702   2.349  18.677  0.00  0.00    +0.000 C 
ATOM      2  O   UNL     1       3.937   1.216  18.251  0.00  0.00    +0.000 OA
ATOM      3  N   UNL     1       2.399   2.744  18.852  0.00  0.00    +0.000 N 
ATOM      4  C   UNL     1       2.099   3.936  19.439  0.00  0.00    +0.000 A 
ATOM      5  N   UNL     1       2.098   5.088  18.824  0.00  0.00    +0.000 NA
ATOM      6  C   UNL     1       1.924   6.102  19.751  0.00  0.00    +0.000 A 
ATOM      7  C   UNL     1       1.903   5.677  21.068  0.00  0.00    +0.000 A 
ATOM      8  S   UNL     1       1.907   3.956  21.129  0.00  0.00    +0.000 S 
ATOM      9  H   UNL     1       1.701   2.017  18.819  0.00  0.00    +0.000 HD
ENDROOT
BRANCH   6  10
ATOM     10  C   UNL     1       1.844   7.494  19.327  0.00  0.00    +0.000 A 
ATOM     11  C   UNL     1       2.353   7.865  18.074  0.00  0.00    +0.000 A 
ATOM     12  C   UNL     1       2.300   9.192  17.643  0.00  0.00    +0.000 A 
ATOM     13  C   UNL     1       1.758  10.162  18.480  0.00  0.00    +0.000 A 
ATOM     14  C   UNL     1       1.221   9.811  19.724  0.00  0.00    +0.000 A 
ATOM     15  C   UNL     1       1.248   8.474  20.135  0.00  0.00    +0.000 A 
ATOM     16  C   UNL     1       0.553  10.873  20.552  0.00  0.00    +0.000 C 
ATOM     17  C   UNL     1       1.262  12.205  20.369  0.00  0.00    +0.000 C 
ATOM     18  C   UNL     1       1.431  12.544  18.905  0.00  0.00    +0.000 C 
ATOM     19  O   UNL     1       1.405  13.700  18.490  0.00  0.00    +0.000 OA
ATOM     20  N   UNL     1       1.742  11.499  18.075  0.00  0.00    +0.000 N 
ATOM     21  H   UNL     1       1.997  11.747  17.127  0.00  0.00    +0.000 HD
ENDBRANCH   6  10
BRANCH   1  22
ATOM     22  C   UNL     1       4.831   3.309  19.070  0.00  0.00    +0.000 C 
BRANCH  22  23
ATOM     23  O   UNL     1       5.173   4.091  17.929  0.00  0.00    +0.000 OA
BRANCH  23  29
ATOM     24  C   UNL     1       6.277   6.230  17.212  0.00  0.00    +0.000 A 
ATOM     25  C   UNL     1       7.294   7.153  17.516  0.00  0.00    +0.000 A 
ATOM     26  C   UNL     1       8.128   6.970  18.616  0.00  0.00    +0.000 A 
ATOM     27  C   UNL     1       7.950   5.859  19.430  0.00  0.00    +0.000 A 
ATOM     28  C   UNL     1       6.934   4.942  19.141  0.00  0.00    +0.000 A 
ATOM     29  C   UNL     1       6.087   5.107  18.031  0.00  0.00    +0.000 A 
BRANCH  24  31
ATOM     30  N   UNL     1       4.882   6.779  15.099  0.00  0.00    +0.000 NA
ATOM     31  C   UNL     1       5.503   6.527  16.043  0.00  0.00    +0.000 C 
ENDBRANCH  24  31
ENDBRANCH  23  29
ENDBRANCH  22  23
ENDBRANCH   1  22
TORSDOF 5
ENDMDL
MODEL 3
REMARK VINA RESULT:      -7.5      0.997      1.083
REMARK  Name = 
REMARK  5 active torsions:
REMARK  status: ('A' for Active; 'I' for Inactive)
REMARK    1  A    between atoms: C_2  and  C_3
REMARK    2  A    between atoms: C_8  and  O_9
REMARK    3  A    between atoms: O_9  and  C_10
REMARK    4  A    between atoms: C_10  and  C_11
REMARK    5  A    between atoms: C_16  and  C_17
REMARK                            x       y       z     vdW  Elec       q    Type
REMARK                         _______ _______ _______ _____ _____    ______ ____
ROOT
ATOM      1  C   UNL     1       3.575   2.136  18.724  0.00  0.00    +0.000 C 
ATOM      2  O   UNL     1       3.766   0.995  18.298  0.00  0.00    +0.000 OA
ATOM      3  N   UNL     1       2.296   2.541  19.011  0.00  0.00    +0.000 N 
ATOM      4  C   UNL     1       2.055   3.745  19.602  0.00  0.00    +0.000 A 
ATOM      5  N   UNL     1       2.002   4.885  18.969  0.00  0.00    +0.000 NA
ATOM      6  C   UNL     1       1.918   5.916  19.889  0.00  0.00    +0.000 A 
ATOM      7  C   UNL     1       2.017   5.515  21.210  0.00  0.00    +0.000 A 
ATOM      8  S   UNL     1       2.020   3.795  21.301  0.00  0.00    +0.000 S 
ATOM      9  H   UNL     1       1.595   1.817  19.056  0.00  0.00    +0.000 HD
ENDROOT
BRANCH   6  10
ATOM     10  C   UNL     1       1.804   7.301  19.450  0.00  0.00    +0.000 A 
ATOM     11  C   UNL     1       2.255   7.659  18.171  0.00  0.00    +0.000 A 
ATOM     12  C   UNL     1       2.169   8.979  17.724  0.00  0.00    +0.000 A 
ATOM     13  C   UNL     1       1.651   9.955  18.569  0.00  0.00    +0.000 A 
ATOM     14  C   UNL     1       1.171   9.617  19.840  0.00  0.00    +0.000 A 
ATOM     15  C   UNL     1       1.231   8.286  20.269  0.00  0.00    +0.000 A 
ATOM     16  C   UNL     1       0.526  10.683  20.681  0.00  0.00    +0.000 C 
ATOM     17  C   UNL     1       1.212  12.020  20.449  0.00  0.00    +0.000 C 
ATOM     18  C   UNL     1       1.315  12.339  18.975  0.00  0.00    +0.000 C 
ATOM     19  O   UNL     1       1.258  13.489  18.545  0.00  0.00    +0.000 OA
ATOM     20  N   UNL     1       1.603  11.286  18.147  0.00  0.00    +0.000 N 
ATOM     21  H   UNL     1       1.815  11.523  17.186  0.00  0.00    +0.000 HD
ENDBRANCH   6  10
BRANCH   1  22
ATOM     22  C   UNL     1       4.740   3.097  18.993  0.00  0.00    +0.000 C 
BRANCH  22  23
ATOM     23  O   UNL     1       4.605   4.220  18.127  0.00  0.00    +0.000 OA
BRANCH  23  29
ATOM     24  C   UNL     1       6.827   4.819  17.121  0.00  0.00    +0.000 A 
ATOM     25  C   UNL     1       7.541   4.950  15.916  0.00  0.00    +0.000 A 
ATOM     26  C   UNL     1       6.938   4.691  14.689  0.00  0.00    +0.000 A 
ATOM     27  C   UNL     1       5.609   4.292  14.653  0.00  0.00    +0.000 A 
ATOM     28  C   UNL     1       4.893   4.149  15.846  0.00  0.00    +0.000 A 
ATOM     29  C   UNL     1       5.485   4.412  17.094  0.00  0.00    +0.000 A 
BRANCH  24  31
ATOM     30  N   UNL     1       8.143   5.393  19.277  0.00  0.00    +0.000 NA
ATOM     31  C   UNL     1       7.561   5.133  18.312  0.00  0.00    +0.000 C 
ENDBRANCH  24  31
ENDBRANCH  23  29
ENDBRANCH  22  23
ENDBRANCH   1  22
TORSDOF 5
ENDMDL
MODEL 4
REMARK VINA RESULT:      -7.4      3.081      6.705
REMARK  Name = 
REMARK  5 active torsions:
REMARK  status: ('A' for Active; 'I' for Inactive)
REMARK    1  A    between atoms: C_2  and  C_3
REMARK    2  A    between atoms: C_8  and  O_9
REMARK    3  A    between atoms: O_9  and  C_10
REMARK    4  A    between atoms: C_10  and  C_11
REMARK    5  A    between atoms: C_16  and  C_17
REMARK                            x       y       z     vdW  Elec       q    Type
REMARK                         _______ _______ _______ _____ _____    ______ ____
ROOT
ATOM      1  C   UNL     1       2.143   3.467  21.502  0.00  0.00    +0.000 C 
ATOM      2  O   UNL     1       1.759   3.435  22.674  0.00  0.00    +0.000 OA
ATOM      3  N   UNL     1       3.016   2.508  21.055  0.00  0.00    +0.000 N 
ATOM      4  C   UNL     1       3.364   2.432  19.740  0.00  0.00    +0.000 A 
ATOM      5  N   UNL     1       4.280   3.168  19.170  0.00  0.00    +0.000 NA
ATOM      6  C   UNL     1       4.251   2.958  17.802  0.00  0.00    +0.000 A 
ATOM      7  C   UNL     1       3.226   2.134  17.370  0.00  0.00    +0.000 A 
ATOM      8  S   UNL     1       2.406   1.458  18.726  0.00  0.00    +0.000 S 
ATOM      9  H   UNL     1       3.141   1.702  21.648  0.00  0.00    +0.000 HD
ENDROOT
BRANCH   6  10
ATOM     10  C   UNL     1       5.202   3.627  16.924  0.00  0.00    +0.000 A 
ATOM     11  C   UNL     1       6.002   4.662  17.433  0.00  0.00    +0.000 A 
ATOM     12  C   UNL     1       6.915   5.329  16.615  0.00  0.00    +0.000 A 
ATOM     13  C   UNL     1       7.015   4.980  15.272  0.00  0.00    +0.000 A 
ATOM     14  C   UNL     1       6.245   3.935  14.748  0.00  0.00    +0.000 A 
ATOM     15  C   UNL     1       5.355   3.248  15.582  0.00  0.00    +0.000 A 
ATOM     16  C   UNL     1       6.457   3.522  13.318  0.00  0.00    +0.000 C 
ATOM     17  C   UNL     1       6.785   4.737  12.465  0.00  0.00    +0.000 C 
ATOM     18  C   UNL     1       7.906   5.551  13.072  0.00  0.00    +0.000 C 
ATOM     19  O   UNL     1       8.721   6.164  12.386  0.00  0.00    +0.000 OA
ATOM     20  N   UNL     1       7.894   5.673  14.437  0.00  0.00    +0.000 N 
ATOM     21  H   UNL     1       8.553   6.334  14.828  0.00  0.00    +0.000 HD
ENDBRANCH   6  10
BRANCH   1  22
ATOM     22  C   UNL     1       1.626   4.523  20.518  0.00  0.00    +0.000 C 
BRANCH  22  23
ATOM     23  O   UNL     1       2.198   5.781  20.865  0.00  0.00    +0.000 OA
BRANCH  23  29
ATOM     24  C   UNL     1       1.651   8.085  20.029  0.00  0.00    +0.000 A 
ATOM     25  C   UNL     1       1.812   8.984  18.959  0.00  0.00    +0.000 A 
ATOM     26  C   UNL     1       2.526   8.627  17.818  0.00  0.00    +0.000 A 
ATOM     27  C   UNL     1       3.093   7.362  17.737  0.00  0.00    +0.000 A 
ATOM     28  C   UNL     1       2.948   6.465  18.800  0.00  0.00    +0.000 A 
ATOM     29  C   UNL     1       2.225   6.807  19.957  0.00  0.00    +0.000 A 
BRANCH  24  31
ATOM     30  N   UNL     1       0.252   8.975  22.020  0.00  0.00    +0.000 NA
ATOM     31  C   UNL     1       0.880   8.572  21.135  0.00  0.00    +0.000 C 
ENDBRANCH  24  31
ENDBRANCH  23  29
ENDBRANCH  22  23
ENDBRANCH   1  22
TORSDOF 5
ENDMDL
MODEL 5
REMARK VINA RESULT:      -7.4      3.942      9.555
REMARK  Name = 
REMARK  5 active torsions:
REMARK  status: ('A' for Active; 'I' for Inactive)
REMARK    1  A    between atoms: C_2  and  C_3
REMARK    2  A    between atoms: C_8  and  O_9
REMARK    3  A    between atoms: O_9  and  C_10
REMARK    4  A    between atoms: C_10  and  C_11
REMARK    5  A    between atoms: C_16  and  C_17
REMARK                            x       y       z     vdW  Elec       q    Type
REMARK                         _______ _______ _______ _____ _____    ______ ____
ROOT
ATOM      1  C   UNL     1      -0.439  12.192  18.508  0.00  0.00    +0.000 C 
ATOM      2  O   UNL     1      -0.671  13.318  18.063  0.00  0.00    +0.000 OA
ATOM      3  N   UNL     1       0.699  11.984  19.248  0.00  0.00    +0.000 N 
ATOM      4  C   UNL     1       0.928  10.790  19.864  0.00  0.00    +0.000 A 
ATOM      5  N   UNL     1       1.423   9.735  19.276  0.00  0.00    +0.000 NA
ATOM      6  C   UNL     1       1.357   8.656  20.142  0.00  0.00    +0.000 A 
ATOM      7  C   UNL     1       0.707   8.918  21.336  0.00  0.00    +0.000 A 
ATOM      8  S   UNL     1       0.348  10.598  21.451  0.00  0.00    +0.000 S 
ATOM      9  H   UNL     1       1.185  12.808  19.566  0.00  0.00    +0.000 HD
ENDROOT
BRANCH   6  10
ATOM     10  C   UNL     1       1.882   7.354  19.752  0.00  0.00    +0.000 A 
ATOM     11  C   UNL     1       2.657   7.241  18.588  0.00  0.00    +0.000 A 
ATOM     12  C   UNL     1       3.166   6.006  18.183  0.00  0.00    +0.000 A 
ATOM     13  C   UNL     1       2.879   4.869  18.930  0.00  0.00    +0.000 A 
ATOM     14  C   UNL     1       2.129   4.960  20.108  0.00  0.00    +0.000 A 
ATOM     15  C   UNL     1       1.649   6.207  20.526  0.00  0.00    +0.000 A 
ATOM     16  C   UNL     1       1.929   3.724  20.940  0.00  0.00    +0.000 C 
ATOM     17  C   UNL     1       1.805   2.503  20.043  0.00  0.00    +0.000 C 
ATOM     18  C   UNL     1       2.942   2.431  19.048  0.00  0.00    +0.000 C 
ATOM     19  O   UNL     1       3.407   1.363  18.657  0.00  0.00    +0.000 OA
ATOM     20  N   UNL     1       3.347   3.623  18.507  0.00  0.00    +0.000 N 
ATOM     21  H   UNL     1       4.003   3.559  17.739  0.00  0.00    +0.000 HD
ENDBRANCH   6  10
BRANCH   1  22
ATOM     22  C   UNL     1      -1.418  11.030  18.303  0.00  0.00    +0.000 C 
BRANCH  22  23
ATOM     23  O   UNL     1      -2.522  11.211  19.185  0.00  0.00    +0.000 OA
BRANCH  23  29
ATOM     24  C   UNL     1      -4.828  12.185  19.389  0.00  0.00    +0.000 A 
ATOM     25  C   UNL     1      -5.984  12.554  18.677  0.00  0.00    +0.000 A 
ATOM     26  C   UNL     1      -6.068  12.377  17.298  0.00  0.00    +0.000 A 
ATOM     27  C   UNL     1      -4.991  11.831  16.614  0.00  0.00    +0.000 A 
ATOM     28  C   UNL     1      -3.833  11.472  17.312  0.00  0.00    +0.000 A 
ATOM     29  C   UNL     1      -3.733  11.637  18.705  0.00  0.00    +0.000 A 
BRANCH  24  31
ATOM     30  N   UNL     1      -4.908  12.577  21.949  0.00  0.00    +0.000 NA
ATOM     31  C   UNL     1      -4.879  12.404  20.805  0.00  0.00    +0.000 C 
ENDBRANCH  24  31
ENDBRANCH  23  29
ENDBRANCH  22  23
ENDBRANCH   1  22
TORSDOF 5
ENDMDL
MODEL 6
REMARK VINA RESULT:      -7.3      3.614      9.191
REMARK  Name = 
REMARK  5 active torsions:
REMARK  status: ('A' for Active; 'I' for Inactive)
REMARK    1  A    between atoms: C_2  and  C_3
REMARK    2  A    between atoms: C_8  and  O_9
REMARK    3  A    between atoms: O_9  and  C_10
REMARK    4  A    between atoms: C_10  and  C_11
REMARK    5  A    between atoms: C_16  and  C_17
REMARK                            x       y       z     vdW  Elec       q    Type
REMARK                         _______ _______ _______ _____ _____    ______ ____
ROOT
ATOM      1  C   UNL     1       0.447  12.614  19.921  0.00  0.00    +0.000 C 
ATOM      2  O   UNL     1       0.519  13.842  19.836  0.00  0.00    +0.000 OA
ATOM      3  N   UNL     1       1.049  11.978  20.978  0.00  0.00    +0.000 N 
ATOM      4  C   UNL     1       0.886  10.640  21.178  0.00  0.00    +0.000 A 
ATOM      5  N   UNL     1       1.562   9.709  20.561  0.00  0.00    +0.000 NA
ATOM      6  C   UNL     1       1.022   8.471  20.870  0.00  0.00    +0.000 A 
ATOM      7  C   UNL     1      -0.127   8.523  21.639  0.00  0.00    +0.000 A 
ATOM      8  S   UNL     1      -0.422  10.142  22.145  0.00  0.00    +0.000 S 
ATOM      9  H   UNL     1       1.345  12.562  21.745  0.00  0.00    +0.000 HD
ENDROOT
BRANCH   6  10
ATOM     10  C   UNL     1       1.615   7.248  20.345  0.00  0.00    +0.000 A 
ATOM     11  C   UNL     1       2.432   7.309  19.206  0.00  0.00    +0.000 A 
ATOM     12  C   UNL     1       3.006   6.154  18.673  0.00  0.00    +0.000 A 
ATOM     13  C   UNL     1       2.743   4.923  19.265  0.00  0.00    +0.000 A 
ATOM     14  C   UNL     1       1.951   4.840  20.416  0.00  0.00    +0.000 A 
ATOM     15  C   UNL     1       1.405   6.006  20.964  0.00  0.00    +0.000 A 
ATOM     16  C   UNL     1       1.776   3.504  21.083  0.00  0.00    +0.000 C 
ATOM     17  C   UNL     1       1.734   2.399  20.040  0.00  0.00    +0.000 C 
ATOM     18  C   UNL     1       2.905   2.493  19.088  0.00  0.00    +0.000 C 
ATOM     19  O   UNL     1       3.428   1.500  18.587  0.00  0.00    +0.000 OA
ATOM     20  N   UNL     1       3.277   3.757  18.711  0.00  0.00    +0.000 N 
ATOM     21  H   UNL     1       3.960   3.814  17.966  0.00  0.00    +0.000 HD
ENDBRANCH   6  10
BRANCH   1  22
ATOM     22  C   UNL     1      -0.345  11.785  18.904  0.00  0.00    +0.000 C 
BRANCH  22  23
ATOM     23  O   UNL     1      -1.733  11.920  19.198  0.00  0.00    +0.000 OA
BRANCH  23  29
ATOM     24  C   UNL     1      -4.073  11.758  18.301  0.00  0.00    +0.000 A 
ATOM     25  C   UNL     1      -4.850  11.406  17.182  0.00  0.00    +0.000 A 
ATOM     26  C   UNL     1      -4.259  10.930  16.015  0.00  0.00    +0.000 A 
ATOM     27  C   UNL     1      -2.877  10.805  15.952  0.00  0.00    +0.000 A 
ATOM     28  C   UNL     1      -2.096  11.163  17.056  0.00  0.00    +0.000 A 
ATOM     29  C   UNL     1      -2.676  11.640  18.245  0.00  0.00    +0.000 A 
BRANCH  24  31
ATOM     30  N   UNL     1      -5.394  12.580  20.373  0.00  0.00    +0.000 NA
ATOM     31  C   UNL     1      -4.808  12.217  19.443  0.00  0.00    +0.000 C 
ENDBRANCH  24  31
ENDBRANCH  23  29
ENDBRANCH  22  23
ENDBRANCH   1  22
TORSDOF 5
ENDMDL
MODEL 7
REMARK VINA RESULT:      -7.3      3.878      9.185
REMARK  Name = 
REMARK  5 active torsions:
REMARK  status: ('A' for Active; 'I' for Inactive)
REMARK    1  A    between atoms: C_2  and  C_3
REMARK    2  A    between atoms: C_8  and  O_9
REMARK    3  A    between atoms: O_9  and  C_10
REMARK    4  A    between atoms: C_10  and  C_11
REMARK    5  A    between atoms: C_16  and  C_17
REMARK                            x       y       z     vdW  Elec       q    Type
REMARK                         _______ _______ _______ _____ _____    ______ ____
ROOT
ATOM      1  C   UNL     1      -0.953  12.401  20.187  0.00  0.00    +0.000 C 
ATOM      2  O   UNL     1      -1.247  13.587  20.018  0.00  0.00    +0.000 OA
ATOM      3  N   UNL     1       0.210  12.084  20.843  0.00  0.00    +0.000 N 
ATOM      4  C   UNL     1       0.508  10.794  21.163  0.00  0.00    +0.000 A 
ATOM      5  N   UNL     1       1.036   9.928  20.340  0.00  0.00    +0.000 NA
ATOM      6  C   UNL     1       1.040   8.677  20.933  0.00  0.00    +0.000 A 
ATOM      7  C   UNL     1       0.407   8.624  22.163  0.00  0.00    +0.000 A 
ATOM      8  S   UNL     1      -0.025  10.212  22.669  0.00  0.00    +0.000 S 
ATOM      9  H   UNL     1       0.666  12.836  21.338  0.00  0.00    +0.000 HD
ENDROOT
BRANCH   6  10
ATOM     10  C   UNL     1       1.614   7.527  20.245  0.00  0.00    +0.000 A 
ATOM     11  C   UNL     1       2.289   7.716  19.030  0.00  0.00    +0.000 A 
ATOM     12  C   UNL     1       2.842   6.634  18.342  0.00  0.00    +0.000 A 
ATOM     13  C   UNL     1       2.698   5.350  18.857  0.00  0.00    +0.000 A 
ATOM     14  C   UNL     1       2.050   5.140  20.079  0.00  0.00    +0.000 A 
ATOM     15  C   UNL     1       1.527   6.233  20.780  0.00  0.00    +0.000 A 
ATOM     16  C   UNL     1       2.006   3.750  20.650  0.00  0.00    +0.000 C 
ATOM     17  C   UNL     1       1.885   2.728  19.531  0.00  0.00    +0.000 C 
ATOM     18  C   UNL     1       2.932   2.952  18.463  0.00  0.00    +0.000 C 
ATOM     19  O   UNL     1       3.431   2.027  17.826  0.00  0.00    +0.000 OA
ATOM     20  N   UNL     1       3.208   4.257  18.152  0.00  0.00    +0.000 N 
ATOM     21  H   UNL     1       3.797   4.404  17.342  0.00  0.00    +0.000 HD
ENDBRANCH   6  10
BRANCH   1  22
ATOM     22  C   UNL     1      -1.883  11.271  19.730  0.00  0.00    +0.000 C 
BRANCH  22  23
ATOM     23  O   UNL     1      -2.879  11.826  18.876  0.00  0.00    +0.000 OA
BRANCH  23  29
ATOM     24  C   UNL     1      -4.226  11.443  16.791  0.00  0.00    +0.000 A 
ATOM     25  C   UNL     1      -4.261  10.766  15.558  0.00  0.00    +0.000 A 
ATOM     26  C   UNL     1      -3.224   9.922  15.169  0.00  0.00    +0.000 A 
ATOM     27  C   UNL     1      -2.134   9.749  16.010  0.00  0.00    +0.000 A 
ATOM     28  C   UNL     1      -2.084  10.425  17.233  0.00  0.00    +0.000 A 
ATOM     29  C   UNL     1      -3.125  11.277  17.645  0.00  0.00    +0.000 A 
BRANCH  24  31
ATOM     30  N   UNL     1      -6.289  12.924  17.299  0.00  0.00    +0.000 NA
ATOM     31  C   UNL     1      -5.364  12.266  17.077  0.00  0.00    +0.000 C 
ENDBRANCH  24  31
ENDBRANCH  23  29
ENDBRANCH  22  23
ENDBRANCH   1  22
TORSDOF 5
ENDMDL
MODEL 8
REMARK VINA RESULT:      -7.2      3.805      9.453
REMARK  Name = 
REMARK  5 active torsions:
REMARK  status: ('A' for Active; 'I' for Inactive)
REMARK    1  A    between atoms: C_2  and  C_3
REMARK    2  A    between atoms: C_8  and  O_9
REMARK    3  A    between atoms: O_9  and  C_10
REMARK    4  A    between atoms: C_10  and  C_11
REMARK    5  A    between atoms: C_16  and  C_17
REMARK                            x       y       z     vdW  Elec       q    Type
REMARK                         _______ _______ _______ _____ _____    ______ ____
ROOT
ATOM      1  C   UNL     1      -0.420  12.167  18.575  0.00  0.00    +0.000 C 
ATOM      2  O   UNL     1      -0.622  13.311  18.161  0.00  0.00    +0.000 OA
ATOM      3  N   UNL     1       0.630  11.936  19.428  0.00  0.00    +0.000 N 
ATOM      4  C   UNL     1       0.811  10.717  20.007  0.00  0.00    +0.000 A 
ATOM      5  N   UNL     1       1.388   9.698  19.429  0.00  0.00    +0.000 NA
ATOM      6  C   UNL     1       1.244   8.576  20.228  0.00  0.00    +0.000 A 
ATOM      7  C   UNL     1       0.459   8.769  21.351  0.00  0.00    +0.000 A 
ATOM      8  S   UNL     1       0.058  10.437  21.506  0.00  0.00    +0.000 S 
ATOM      9  H   UNL     1       1.062  12.749  19.839  0.00  0.00    +0.000 HD
ENDROOT
BRANCH   6  10
ATOM     10  C   UNL     1       1.834   7.302  19.838  0.00  0.00    +0.000 A 
ATOM     11  C   UNL     1       2.640   7.237  18.691  0.00  0.00    +0.000 A 
ATOM     12  C   UNL     1       3.212   6.029  18.285  0.00  0.00    +0.000 A 
ATOM     13  C   UNL     1       2.958   4.872  19.015  0.00  0.00    +0.000 A 
ATOM     14  C   UNL     1       2.177   4.918  20.175  0.00  0.00    +0.000 A 
ATOM     15  C   UNL     1       1.634   6.138  20.594  0.00  0.00    +0.000 A 
ATOM     16  C   UNL     1       2.012   3.665  20.990  0.00  0.00    +0.000 C 
ATOM     17  C   UNL     1       1.961   2.450  20.078  0.00  0.00    +0.000 C 
ATOM     18  C   UNL     1       3.123   2.438  19.110  0.00  0.00    +0.000 C 
ATOM     19  O   UNL     1       3.643   1.396  18.718  0.00  0.00    +0.000 OA
ATOM     20  N   UNL     1       3.489   3.652  18.590  0.00  0.00    +0.000 N 
ATOM     21  H   UNL     1       4.164   3.626  17.837  0.00  0.00    +0.000 HD
ENDBRANCH   6  10
BRANCH   1  22
ATOM     22  C   UNL     1      -1.348  11.004  18.203  0.00  0.00    +0.000 C 
BRANCH  22  23
ATOM     23  O   UNL     1      -2.511  11.077  19.022  0.00  0.00    +0.000 OA
BRANCH  23  29
ATOM     24  C   UNL     1      -4.219  11.517  17.235  0.00  0.00    +0.000 A 
ATOM     25  C   UNL     1      -5.452  12.136  16.955  0.00  0.00    +0.000 A 
ATOM     26  C   UNL     1      -6.148  12.834  17.938  0.00  0.00    +0.000 A 
ATOM     27  C   UNL     1      -5.618  12.919  19.219  0.00  0.00    +0.000 A 
ATOM     28  C   UNL     1      -4.399  12.298  19.509  0.00  0.00    +0.000 A 
ATOM     29  C   UNL     1      -3.679  11.594  18.527  0.00  0.00    +0.000 A 
BRANCH  24  31
ATOM     30  N   UNL     1      -3.098  10.294  15.245  0.00  0.00    +0.000 NA
ATOM     31  C   UNL     1      -3.600  10.847  16.130  0.00  0.00    +0.000 C 
ENDBRANCH  24  31
ENDBRANCH  23  29
ENDBRANCH  22  23
ENDBRANCH   1  22
TORSDOF 5
ENDMDL
MODEL 9
REMARK VINA RESULT:      -7.1      3.562      9.006
REMARK  Name = 
REMARK  5 active torsions:
REMARK  status: ('A' for Active; 'I' for Inactive)
REMARK    1  A    between atoms: C_2  and  C_3
REMARK    2  A    between atoms: C_8  and  O_9
REMARK    3  A    between atoms: O_9  and  C_10
REMARK    4  A    between atoms: C_10  and  C_11
REMARK    5  A    between atoms: C_16  and  C_17
REMARK                            x       y       z     vdW  Elec       q    Type
REMARK                         _______ _______ _______ _____ _____    ______ ____
ROOT
ATOM      1  C   UNL     1      -0.059  11.820  20.033  0.00  0.00    +0.000 C 
ATOM      2  O   UNL     1      -0.304  13.027  20.111  0.00  0.00    +0.000 OA
ATOM      3  N   UNL     1       0.971  11.295  20.771  0.00  0.00    +0.000 N 
ATOM      4  C   UNL     1       1.193   9.951  20.812  0.00  0.00    +0.000 A 
ATOM      5  N   UNL     1       1.840   9.277  19.900  0.00  0.00    +0.000 NA
ATOM      6  C   UNL     1       1.725   7.923  20.164  0.00  0.00    +0.000 A 
ATOM      7  C   UNL     1       0.893   7.614  21.226  0.00  0.00    +0.000 A 
ATOM      8  S   UNL     1       0.404   9.059  22.026  0.00  0.00    +0.000 S 
ATOM      9  H   UNL     1       1.348  11.882  21.499  0.00  0.00    +0.000 HD
ENDROOT
BRANCH   6  10
ATOM     10  C   UNL     1       2.391   6.939  19.320  0.00  0.00    +0.000 A 
ATOM     11  C   UNL     1       2.160   5.572  19.537  0.00  0.00    +0.000 A 
ATOM     12  C   UNL     1       2.791   4.605  18.752  0.00  0.00    +0.000 A 
ATOM     13  C   UNL     1       3.678   5.003  17.757  0.00  0.00    +0.000 A 
ATOM     14  C   UNL     1       3.906   6.361  17.506  0.00  0.00    +0.000 A 
ATOM     15  C   UNL     1       3.245   7.326  18.276  0.00  0.00    +0.000 A 
ATOM     16  C   UNL     1       4.793   6.749  16.356  0.00  0.00    +0.000 C 
ATOM     17  C   UNL     1       5.919   5.740  16.199  0.00  0.00    +0.000 C 
ATOM     18  C   UNL     1       5.389   4.324  16.153  0.00  0.00    +0.000 C 
ATOM     19  O   UNL     1       5.924   3.442  15.486  0.00  0.00    +0.000 OA
ATOM     20  N   UNL     1       4.347   4.041  16.997  0.00  0.00    +0.000 N 
ATOM     21  H   UNL     1       4.091   3.065  17.072  0.00  0.00    +0.000 HD
ENDBRANCH   6  10
BRANCH   1  22
ATOM     22  C   UNL     1      -0.915  10.883  19.172  0.00  0.00    +0.000 C 
BRANCH  22  23
ATOM     23  O   UNL     1      -1.547  11.657  18.157  0.00  0.00    +0.000 OA
BRANCH  23  29
ATOM     24  C   UNL     1      -3.693  11.238  16.921  0.00  0.00    +0.000 A 
ATOM     25  C   UNL     1      -5.096  11.307  17.004  0.00  0.00    +0.000 A 
ATOM     26  C   UNL     1      -5.727  11.775  18.153  0.00  0.00    +0.000 A 
ATOM     27  C   UNL     1      -4.960  12.176  19.238  0.00  0.00    +0.000 A 
ATOM     28  C   UNL     1      -3.565  12.101  19.169  0.00  0.00    +0.000 A 
ATOM     29  C   UNL     1      -2.910  11.637  18.014  0.00  0.00    +0.000 A 
BRANCH  24  31
ATOM     30  N   UNL     1      -2.759  10.372  14.665  0.00  0.00    +0.000 NA
ATOM     31  C   UNL     1      -3.171  10.756  15.676  0.00  0.00    +0.000 C 
ENDBRANCH  24  31
ENDBRANCH  23  29
ENDBRANCH  22  23
ENDBRANCH   1  22
TORSDOF 5
ENDMDL
