MODEL 1
REMARK VINA RESULT:      -9.2      0.000      0.000
REMARK  Name = 
REMARK  7 active torsions:
REMARK  status: ('A' for Active; 'I' for Inactive)
REMARK    1  A    between atoms: C_5  and  C_6
REMARK    2  A    between atoms: C_6  and  C_7
REMARK    3  A    between atoms: C_10  and  C_11
REMARK    4  A    between atoms: C_11  and  N_12
REMARK    5  A    between atoms: N_12  and  C_13
REMARK    6  A    between atoms: N_12  and  C_21
REMARK    7  A    between atoms: C_13  and  C_14
REMARK                            x       y       z     vdW  Elec       q    Type
REMARK                         _______ _______ _______ _____ _____    ______ ____
ROOT
ATOM      1  N   UNL     1       3.937   6.478  18.059  0.00  0.00    +0.000 NA
ENDROOT
BRANCH   1   2
ATOM      2  C   UNL     1       5.358   6.178  17.693  0.00  0.00    +0.000 C 
ATOM      3  C   UNL     1       5.482   5.414  16.355  0.00  0.00    +0.000 C 
ATOM      4  C   UNL     1       6.940   5.122  16.018  0.00  0.00    +0.000 C 
ATOM      5  O   UNL     1       7.563   4.405  17.081  0.00  0.00    +0.000 OA
ATOM      6  C   UNL     1       7.598   5.167  18.285  0.00  0.00    +0.000 C 
ATOM      7  C   UNL     1       6.187   5.454  18.777  0.00  0.00    +0.000 C 
ENDBRANCH   1   2
BRANCH   1   8
ATOM      8  C   UNL     1       3.480   7.752  17.439  0.00  0.00    +0.000 C 
BRANCH   8  12
ATOM      9  C   UNL     1       0.985   9.938  18.716  0.00  0.00    +0.000 A 
ATOM     10  N   UNL     1       1.109   9.130  19.780  0.00  0.00    +0.000 NA
ATOM     11  O   UNL     1       1.979   8.132  19.328  0.00  0.00    +0.000 OA
ATOM     12  C   UNL     1       2.306   8.457  18.042  0.00  0.00    +0.000 A 
ATOM     13  N   UNL     1       1.697   9.540  17.607  0.00  0.00    +0.000 NA
BRANCH   9  14
ATOM     14  C   UNL     1       0.333  11.271  18.789  0.00  0.00    +0.000 C 
BRANCH  14  19
ATOM     15  F   UNL     1      -5.130  10.641  17.545  0.00  0.00    +0.000 F 
ATOM     16  C   UNL     1      -3.834  10.782  17.852  0.00  0.00    +0.000 A 
ATOM     17  C   UNL     1      -3.446  11.766  18.751  0.00  0.00    +0.000 A 
ATOM     18  C   UNL     1      -2.096  11.918  19.068  0.00  0.00    +0.000 A 
ATOM     19  C   UNL     1      -1.130  11.082  18.479  0.00  0.00    +0.000 A 
ATOM     20  C   UNL     1      -1.545  10.091  17.576  0.00  0.00    +0.000 A 
ATOM     21  C   UNL     1      -2.897   9.943  17.262  0.00  0.00    +0.000 A 
ENDBRANCH  14  19
ENDBRANCH   9  14
ENDBRANCH   8  12
ENDBRANCH   1   8
BRANCH   1  22
ATOM     22  C   UNL     1       3.008   5.380  17.701  0.00  0.00    +0.000 C 
BRANCH  22  23
ATOM     23  C   UNL     1       2.381   4.636  18.872  0.00  0.00    +0.000 A 
ATOM     24  C   UNL     1       1.433   3.621  18.659  0.00  0.00    +0.000 A 
ATOM     25  C   UNL     1       0.919   2.893  19.737  0.00  0.00    +0.000 A 
ATOM     26  C   UNL     1       1.346   3.179  21.028  0.00  0.00    +0.000 A 
ATOM     27  F   UNL     1       0.870   2.467  22.058  0.00  0.00    +0.000 F 
ATOM     28  C   UNL     1       2.270   4.188  21.264  0.00  0.00    +0.000 A 
ATOM     29  C   UNL     1       2.789   4.914  20.190  0.00  0.00    +0.000 A 
ENDBRANCH  22  23
ENDBRANCH   1  22
TORSDOF 7
ENDMDL
MODEL 2
REMARK VINA RESULT:      -9.1      0.204      1.286
REMARK  Name = 
REMARK  7 active torsions:
REMARK  status: ('A' for Active; 'I' for Inactive)
REMARK    1  A    between atoms: C_5  and  C_6
REMARK    2  A    between atoms: C_6  and  C_7
REMARK    3  A    between atoms: C_10  and  C_11
REMARK    4  A    between atoms: C_11  and  N_12
REMARK    5  A    between atoms: N_12  and  C_13
REMARK    6  A    between atoms: N_12  and  C_21
REMARK    7  A    between atoms: C_13  and  C_14
REMARK                            x       y       z     vdW  Elec       q    Type
REMARK                         _______ _______ _______ _____ _____    ______ ____
ROOT
ATOM      1  N   UNL     1       4.008   6.331  18.027  0.00  0.00    +0.000 NA
ENDROOT
BRANCH   1   2
ATOM      2  C   UNL     1       5.443   6.058  17.694  0.00  0.00    +0.000 C 
ATOM      3  C   UNL     1       5.605   5.097  16.494  0.00  0.00    +0.000 C 
ATOM      4  C   UNL     1       7.075   4.839  16.188  0.00  0.00    +0.000 C 
ATOM      5  O   UNL     1       7.745   4.339  17.344  0.00  0.00    +0.000 OA
ATOM      6  C   UNL     1       7.741   5.286  18.409  0.00  0.00    +0.000 C 
ATOM      7  C   UNL     1       6.318   5.566  18.869  0.00  0.00    +0.000 C 
ENDBRANCH   1   2
BRANCH   1   8
ATOM      8  C   UNL     1       3.529   7.574  17.362  0.00  0.00    +0.000 C 
BRANCH   8  12
ATOM      9  C   UNL     1       1.119   9.835  18.673  0.00  0.00    +0.000 A 
ATOM     10  N   UNL     1       1.215   9.009  19.726  0.00  0.00    +0.000 NA
ATOM     11  O   UNL     1       2.047   7.985  19.260  0.00  0.00    +0.000 OA
ATOM     12  C   UNL     1       2.383   8.314  17.978  0.00  0.00    +0.000 A 
ATOM     13  N   UNL     1       1.814   9.424  17.558  0.00  0.00    +0.000 NA
BRANCH   9  14
ATOM     14  C   UNL     1       0.518  11.190  18.763  0.00  0.00    +0.000 C 
BRANCH  14  19
ATOM     15  F   UNL     1      -4.986  10.627  17.674  0.00  0.00    +0.000 F 
ATOM     16  C   UNL     1      -3.677  10.770  17.921  0.00  0.00    +0.000 A 
ATOM     17  C   UNL     1      -2.766   9.927  17.297  0.00  0.00    +0.000 A 
ATOM     18  C   UNL     1      -1.403  10.071  17.558  0.00  0.00    +0.000 A 
ATOM     19  C   UNL     1      -0.951  11.060  18.449  0.00  0.00    +0.000 A 
ATOM     20  C   UNL     1      -1.889  11.904  19.065  0.00  0.00    +0.000 A 
ATOM     21  C   UNL     1      -3.251  11.757  18.802  0.00  0.00    +0.000 A 
ENDBRANCH  14  19
ENDBRANCH   9  14
ENDBRANCH   8  12
ENDBRANCH   1   8
BRANCH   1  22
ATOM     22  C   UNL     1       3.114   5.199  17.687  0.00  0.00    +0.000 C 
BRANCH  22  23
ATOM     23  C   UNL     1       2.532   4.436  18.869  0.00  0.00    +0.000 A 
ATOM     24  C   UNL     1       2.954   4.706  20.181  0.00  0.00    +0.000 A 
ATOM     25  C   UNL     1       2.360   4.052  21.265  0.00  0.00    +0.000 A 
ATOM     26  C   UNL     1       1.347   3.127  21.042  0.00  0.00    +0.000 A 
ATOM     27  F   UNL     1       0.764   2.518  22.083  0.00  0.00    +0.000 F 
ATOM     28  C   UNL     1       0.925   2.832  19.753  0.00  0.00    +0.000 A 
ATOM     29  C   UNL     1       1.514   3.486  18.668  0.00  0.00    +0.000 A 
ENDBRANCH  22  23
ENDBRANCH   1  22
TORSDOF 7
ENDMDL
MODEL 3
REMARK VINA RESULT:      -8.8      0.814      1.188
REMARK  Name = 
REMARK  7 active torsions:
REMARK  status: ('A' for Active; 'I' for Inactive)
REMARK    1  A    between atoms: C_5  and  C_6
REMARK    2  A    between atoms: C_6  and  C_7
REMARK    3  A    between atoms: C_10  and  C_11
REMARK    4  A    between atoms: C_11  and  N_12
REMARK    5  A    between atoms: N_12  and  C_13
REMARK    6  A    between atoms: N_12  and  C_21
REMARK    7  A    between atoms: C_13  and  C_14
REMARK                            x       y       z     vdW  Elec       q    Type
REMARK                         _______ _______ _______ _____ _____    ______ ____
ROOT
ATOM      1  N   UNL     1       3.936   6.118  18.124  0.00  0.00    +0.000 NA
ENDROOT
BRANCH   1   2
ATOM      2  C   UNL     1       5.386   5.877  17.833  0.00  0.00    +0.000 C 
ATOM      3  C   UNL     1       6.119   7.151  17.354  0.00  0.00    +0.000 C 
ATOM      4  C   UNL     1       7.587   6.867  17.064  0.00  0.00    +0.000 C 
ATOM      5  O   UNL     1       7.712   5.812  16.112  0.00  0.00    +0.000 OA
ATOM      6  C   UNL     1       7.181   4.586  16.608  0.00  0.00    +0.000 C 
ATOM      7  C   UNL     1       5.685   4.715  16.860  0.00  0.00    +0.000 C 
ENDBRANCH   1   2
BRANCH   1   8
ATOM      8  C   UNL     1       3.438   7.327  17.411  0.00  0.00    +0.000 C 
BRANCH   8  12
ATOM      9  C   UNL     1       1.123   9.691  18.708  0.00  0.00    +0.000 A 
ATOM     10  N   UNL     1       1.247   8.914  19.795  0.00  0.00    +0.000 NA
ATOM     11  O   UNL     1       2.042   7.854  19.344  0.00  0.00    +0.000 OA
ATOM     12  C   UNL     1       2.331   8.116  18.036  0.00  0.00    +0.000 A 
ATOM     13  N   UNL     1       1.764   9.216  17.587  0.00  0.00    +0.000 NA
BRANCH   9  14
ATOM     14  C   UNL     1       0.548  11.061  18.759  0.00  0.00    +0.000 C 
BRANCH  14  19
ATOM     15  F   UNL     1      -4.948  10.723  17.548  0.00  0.00    +0.000 F 
ATOM     16  C   UNL     1      -3.644  10.794  17.847  0.00  0.00    +0.000 A 
ATOM     17  C   UNL     1      -3.201  11.748  18.754  0.00  0.00    +0.000 A 
ATOM     18  C   UNL     1      -1.842  11.827  19.062  0.00  0.00    +0.000 A 
ATOM     19  C   UNL     1      -0.925  10.950  18.458  0.00  0.00    +0.000 A 
ATOM     20  C   UNL     1      -1.396   9.990  17.548  0.00  0.00    +0.000 A 
ATOM     21  C   UNL     1      -2.755   9.914  17.242  0.00  0.00    +0.000 A 
ENDBRANCH  14  19
ENDBRANCH   9  14
ENDBRANCH   8  12
ENDBRANCH   1   8
BRANCH   1  22
ATOM     22  C   UNL     1       3.083   4.951  17.796  0.00  0.00    +0.000 C 
BRANCH  22  23
ATOM     23  C   UNL     1       2.565   4.155  18.986  0.00  0.00    +0.000 A 
ATOM     24  C   UNL     1       3.449   3.488  19.850  0.00  0.00    +0.000 A 
ATOM     25  C   UNL     1       2.968   2.822  20.982  0.00  0.00    +0.000 A 
ATOM     26  C   UNL     1       1.605   2.818  21.252  0.00  0.00    +0.000 A 
ATOM     27  F   UNL     1       1.147   2.199  22.348  0.00  0.00    +0.000 F 
ATOM     28  C   UNL     1       0.710   3.458  20.404  0.00  0.00    +0.000 A 
ATOM     29  C   UNL     1       1.188   4.127  19.275  0.00  0.00    +0.000 A 
ENDBRANCH  22  23
ENDBRANCH   1  22
TORSDOF 7
ENDMDL
MODEL 4
REMARK VINA RESULT:      -8.6      1.060      1.603
REMARK  Name = 
REMARK  7 active torsions:
REMARK  status: ('A' for Active; 'I' for Inactive)
REMARK    1  A    between atoms: C_5  and  C_6
REMARK    2  A    between atoms: C_6  and  C_7
REMARK    3  A    between atoms: C_10  and  C_11
REMARK    4  A    between atoms: C_11  and  N_12
REMARK    5  A    between atoms: N_12  and  C_13
REMARK    6  A    between atoms: N_12  and  C_21
REMARK    7  A    between atoms: C_13  and  C_14
REMARK                            x       y       z     vdW  Elec       q    Type
REMARK                         _______ _______ _______ _____ _____    ______ ____
ROOT
ATOM      1  N   UNL     1       3.623   6.445  18.027  0.00  0.00    +0.000 NA
ENDROOT
BRANCH   1   2
ATOM      2  C   UNL     1       4.980   5.947  17.632  0.00  0.00    +0.000 C 
ATOM      3  C   UNL     1       5.992   7.091  17.398  0.00  0.00    +0.000 C 
ATOM      4  C   UNL     1       7.357   6.548  16.994  0.00  0.00    +0.000 C 
ATOM      5  O   UNL     1       7.241   5.718  15.840  0.00  0.00    +0.000 OA
ATOM      6  C   UNL     1       6.436   4.569  16.092  0.00  0.00    +0.000 C 
ATOM      7  C   UNL     1       5.009   4.980  16.427  0.00  0.00    +0.000 C 
ENDBRANCH   1   2
BRANCH   1   8
ATOM      8  C   UNL     1       3.303   7.729  17.345  0.00  0.00    +0.000 C 
BRANCH   8  12
ATOM      9  C   UNL     1       0.992   9.814  19.063  0.00  0.00    +0.000 A 
ATOM     10  N   UNL     1       1.546  10.741  18.266  0.00  0.00    +0.000 NA
ATOM     11  O   UNL     1       2.584  10.046  17.635  0.00  0.00    +0.000 OA
ATOM     12  C   UNL     1       2.531   8.764  18.103  0.00  0.00    +0.000 A 
ATOM     13  N   UNL     1       1.592   8.576  19.006  0.00  0.00    +0.000 NA
BRANCH   9  14
ATOM     14  C   UNL     1      -0.299  10.025  19.767  0.00  0.00    +0.000 C 
BRANCH  14  19
ATOM     15  F   UNL     1      -4.228  11.326  15.938  0.00  0.00    +0.000 F 
ATOM     16  C   UNL     1      -3.285  11.026  16.841  0.00  0.00    +0.000 A 
ATOM     17  C   UNL     1      -2.377  10.010  16.571  0.00  0.00    +0.000 A 
ATOM     18  C   UNL     1      -1.398   9.693  17.514  0.00  0.00    +0.000 A 
ATOM     19  C   UNL     1      -1.330  10.394  18.731  0.00  0.00    +0.000 A 
ATOM     20  C   UNL     1      -2.256  11.420  18.980  0.00  0.00    +0.000 A 
ATOM     21  C   UNL     1      -3.233  11.734  18.035  0.00  0.00    +0.000 A 
ENDBRANCH  14  19
ENDBRANCH   9  14
ENDBRANCH   8  12
ENDBRANCH   1   8
BRANCH   1  22
ATOM     22  C   UNL     1       2.551   5.455  17.769  0.00  0.00    +0.000 C 
BRANCH  22  23
ATOM     23  C   UNL     1       2.113   4.626  18.968  0.00  0.00    +0.000 A 
ATOM     24  C   UNL     1       1.444   3.403  18.795  0.00  0.00    +0.000 A 
ATOM     25  C   UNL     1       1.112   2.613  19.902  0.00  0.00    +0.000 A 
ATOM     26  C   UNL     1       1.445   3.044  21.180  0.00  0.00    +0.000 A 
ATOM     27  F   UNL     1       1.147   2.277  22.237  0.00  0.00    +0.000 F 
ATOM     28  C   UNL     1       2.092   4.256  21.376  0.00  0.00    +0.000 A 
ATOM     29  C   UNL     1       2.428   5.045  20.274  0.00  0.00    +0.000 A 
ENDBRANCH  22  23
ENDBRANCH   1  22
TORSDOF 7
ENDMDL
MODEL 5
REMARK VINA RESULT:      -8.5      2.415      4.319
REMARK  Name = 
REMARK  7 active torsions:
REMARK  status: ('A' for Active; 'I' for Inactive)
REMARK    1  A    between atoms: C_5  and  C_6
REMARK    2  A    between atoms: C_6  and  C_7
REMARK    3  A    between atoms: C_10  and  C_11
REMARK    4  A    between atoms: C_11  and  N_12
REMARK    5  A    between atoms: N_12  and  C_13
REMARK    6  A    between atoms: N_12  and  C_21
REMARK    7  A    between atoms: C_13  and  C_14
REMARK                            x       y       z     vdW  Elec       q    Type
REMARK                         _______ _______ _______ _____ _____    ______ ____
ROOT
ATOM      1  N   UNL     1       2.819   5.550  17.828  0.00  0.00    +0.000 NA
ENDROOT
BRANCH   1   2
ATOM      2  C   UNL     1       1.994   4.721  18.763  0.00  0.00    +0.000 C 
ATOM      3  C   UNL     1       2.674   4.513  20.135  0.00  0.00    +0.000 C 
ATOM      4  C   UNL     1       1.809   3.662  21.057  0.00  0.00    +0.000 C 
ATOM      5  O   UNL     1       1.502   2.414  20.440  0.00  0.00    +0.000 OA
ATOM      6  C   UNL     1       0.734   2.585  19.252  0.00  0.00    +0.000 C 
ATOM      7  C   UNL     1       1.529   3.356  18.208  0.00  0.00    +0.000 C 
ENDBRANCH   1   2
BRANCH   1   8
ATOM      8  C   UNL     1       3.201   6.846  18.454  0.00  0.00    +0.000 C 
BRANCH   8  12
ATOM      9  C   UNL     1       0.994   9.593  18.923  0.00  0.00    +0.000 A 
ATOM     10  N   UNL     1       0.992   9.116  20.177  0.00  0.00    +0.000 NA
ATOM     11  O   UNL     1       1.730   7.932  20.073  0.00  0.00    +0.000 OA
ATOM     12  C   UNL     1       2.120   7.831  18.769  0.00  0.00    +0.000 A 
ATOM     13  N   UNL     1       1.667   8.809  18.013  0.00  0.00    +0.000 NA
BRANCH   9  14
ATOM     14  C   UNL     1       0.522  10.959  18.579  0.00  0.00    +0.000 C 
BRANCH  14  19
ATOM     15  F   UNL     1      -5.035  10.760  17.645  0.00  0.00    +0.000 F 
ATOM     16  C   UNL     1      -3.716  10.798  17.879  0.00  0.00    +0.000 A 
ATOM     17  C   UNL     1      -3.203  11.748  18.753  0.00  0.00    +0.000 A 
ATOM     18  C   UNL     1      -1.829  11.793  18.992  0.00  0.00    +0.000 A 
ATOM     19  C   UNL     1      -0.966  10.886  18.353  0.00  0.00    +0.000 A 
ATOM     20  C   UNL     1      -1.508   9.931  17.477  0.00  0.00    +0.000 A 
ATOM     21  C   UNL     1      -2.882   9.889  17.240  0.00  0.00    +0.000 A 
ENDBRANCH  14  19
ENDBRANCH   9  14
ENDBRANCH   8  12
ENDBRANCH   1   8
BRANCH   1  22
ATOM     22  C   UNL     1       4.031   4.843  17.349  0.00  0.00    +0.000 C 
BRANCH  22  23
ATOM     23  C   UNL     1       5.360   5.497  17.699  0.00  0.00    +0.000 A 
ATOM     24  C   UNL     1       5.862   6.566  16.939  0.00  0.00    +0.000 A 
ATOM     25  C   UNL     1       7.047   7.208  17.313  0.00  0.00    +0.000 A 
ATOM     26  C   UNL     1       7.734   6.783  18.444  0.00  0.00    +0.000 A 
ATOM     27  F   UNL     1       8.857   7.412  18.814  0.00  0.00    +0.000 F 
ATOM     28  C   UNL     1       7.265   5.718  19.202  0.00  0.00    +0.000 A 
ATOM     29  C   UNL     1       6.080   5.078  18.833  0.00  0.00    +0.000 A 
ENDBRANCH  22  23
ENDBRANCH   1  22
TORSDOF 7
ENDMDL
MODEL 6
REMARK VINA RESULT:      -8.5      2.526      3.438
REMARK  Name = 
REMARK  7 active torsions:
REMARK  status: ('A' for Active; 'I' for Inactive)
REMARK    1  A    between atoms: C_5  and  C_6
REMARK    2  A    between atoms: C_6  and  C_7
REMARK    3  A    between atoms: C_10  and  C_11
REMARK    4  A    between atoms: C_11  and  N_12
REMARK    5  A    between atoms: N_12  and  C_13
REMARK    6  A    between atoms: N_12  and  C_21
REMARK    7  A    between atoms: C_13  and  C_14
REMARK                            x       y       z     vdW  Elec       q    Type
REMARK                         _______ _______ _______ _____ _____    ______ ____
ROOT
ATOM      1  N   UNL     1       3.815   6.308  18.141  0.00  0.00    +0.000 NA
ENDROOT
BRANCH   1   2
ATOM      2  C   UNL     1       5.172   5.863  17.691  0.00  0.00    +0.000 C 
ATOM      3  C   UNL     1       6.139   7.044  17.447  0.00  0.00    +0.000 C 
ATOM      4  C   UNL     1       7.506   6.554  16.987  0.00  0.00    +0.000 C 
ATOM      5  O   UNL     1       7.377   5.743  15.821  0.00  0.00    +0.000 OA
ATOM      6  C   UNL     1       6.619   4.564  16.076  0.00  0.00    +0.000 C 
ATOM      7  C   UNL     1       5.192   4.921  16.466  0.00  0.00    +0.000 C 
ENDBRANCH   1   2
BRANCH   1   8
ATOM      8  C   UNL     1       3.463   7.632  17.557  0.00  0.00    +0.000 C 
BRANCH   8  12
ATOM      9  C   UNL     1       0.974   9.896  18.706  0.00  0.00    +0.000 A 
ATOM     10  N   UNL     1       1.137   9.186  19.832  0.00  0.00    +0.000 NA
ATOM     11  O   UNL     1       2.007   8.161  19.446  0.00  0.00    +0.000 OA
ATOM     12  C   UNL     1       2.296   8.375  18.129  0.00  0.00    +0.000 A 
ATOM     13  N   UNL     1       1.662   9.409  17.617  0.00  0.00    +0.000 NA
BRANCH   9  14
ATOM     14  C   UNL     1       0.308  11.224  18.679  0.00  0.00    +0.000 C 
BRANCH  14  19
ATOM     15  F   UNL     1       4.233  15.011  20.109  0.00  0.00    +0.000 F 
ATOM     16  C   UNL     1       3.290  14.122  19.768  0.00  0.00    +0.000 A 
ATOM     17  C   UNL     1       2.476  13.576  20.752  0.00  0.00    +0.000 A 
ATOM     18  C   UNL     1       1.497  12.646  20.399  0.00  0.00    +0.000 A 
ATOM     19  C   UNL     1       1.337  12.259  19.056  0.00  0.00    +0.000 A 
ATOM     20  C   UNL     1       2.168  12.827  18.078  0.00  0.00    +0.000 A 
ATOM     21  C   UNL     1       3.145  13.757  18.435  0.00  0.00    +0.000 A 
ENDBRANCH  14  19
ENDBRANCH   9  14
ENDBRANCH   8  12
ENDBRANCH   1   8
BRANCH   1  22
ATOM     22  C   UNL     1       2.754   5.321  17.831  0.00  0.00    +0.000 C 
BRANCH  22  23
ATOM     23  C   UNL     1       2.213   4.537  19.018  0.00  0.00    +0.000 A 
ATOM     24  C   UNL     1       1.302   3.483  18.833  0.00  0.00    +0.000 A 
ATOM     25  C   UNL     1       0.869   2.721  19.924  0.00  0.00    +0.000 A 
ATOM     26  C   UNL     1       1.340   3.011  21.198  0.00  0.00    +0.000 A 
ATOM     27  F   UNL     1       0.941   2.266  22.238  0.00  0.00    +0.000 F 
ATOM     28  C   UNL     1       2.228   4.057  21.407  0.00  0.00    +0.000 A 
ATOM     29  C   UNL     1       2.666   4.817  20.320  0.00  0.00    +0.000 A 
ENDBRANCH  22  23
ENDBRANCH   1  22
TORSDOF 7
ENDMDL
MODEL 7
REMARK VINA RESULT:      -8.4      2.495      3.478
REMARK  Name = 
REMARK  7 active torsions:
REMARK  status: ('A' for Active; 'I' for Inactive)
REMARK    1  A    between atoms: C_5  and  C_6
REMARK    2  A    between atoms: C_6  and  C_7
REMARK    3  A    between atoms: C_10  and  C_11
REMARK    4  A    between atoms: C_11  and  N_12
REMARK    5  A    between atoms: N_12  and  C_13
REMARK    6  A    between atoms: N_12  and  C_21
REMARK    7  A    between atoms: C_13  and  C_14
REMARK                            x       y       z     vdW  Elec       q    Type
REMARK                         _______ _______ _______ _____ _____    ______ ____
ROOT
ATOM      1  N   UNL     1       3.851   5.964  18.039  0.00  0.00    +0.000 NA
ENDROOT
BRANCH   1   2
ATOM      2  C   UNL     1       5.007   5.327  17.330  0.00  0.00    +0.000 C 
ATOM      3  C   UNL     1       6.306   5.348  18.167  0.00  0.00    +0.000 C 
ATOM      4  C   UNL     1       7.459   4.696  17.414  0.00  0.00    +0.000 C 
ATOM      5  O   UNL     1       7.649   5.329  16.150  0.00  0.00    +0.000 OA
ATOM      6  C   UNL     1       6.511   5.177  15.305  0.00  0.00    +0.000 C 
ATOM      7  C   UNL     1       5.299   5.868  15.913  0.00  0.00    +0.000 C 
ENDBRANCH   1   2
BRANCH   1   8
ATOM      8  C   UNL     1       3.673   7.379  17.611  0.00  0.00    +0.000 C 
BRANCH   8  12
ATOM      9  C   UNL     1       1.139   9.668  18.602  0.00  0.00    +0.000 A 
ATOM     10  N   UNL     1       1.315   9.041  19.775  0.00  0.00    +0.000 NA
ATOM     11  O   UNL     1       2.206   8.010  19.460  0.00  0.00    +0.000 OA
ATOM     12  C   UNL     1       2.491   8.136  18.131  0.00  0.00    +0.000 A 
ATOM     13  N   UNL     1       1.836   9.119  17.549  0.00  0.00    +0.000 NA
BRANCH   9  14
ATOM     14  C   UNL     1       0.445  10.976  18.483  0.00  0.00    +0.000 C 
BRANCH  14  19
ATOM     15  F   UNL     1       3.924  15.045  20.255  0.00  0.00    +0.000 F 
ATOM     16  C   UNL     1       3.108  14.068  19.837  0.00  0.00    +0.000 A 
ATOM     17  C   UNL     1       3.183  13.629  18.522  0.00  0.00    +0.000 A 
ATOM     18  C   UNL     1       2.329  12.616  18.084  0.00  0.00    +0.000 A 
ATOM     19  C   UNL     1       1.396  12.042  18.965  0.00  0.00    +0.000 A 
ATOM     20  C   UNL     1       1.341  12.499  20.292  0.00  0.00    +0.000 A 
ATOM     21  C   UNL     1       2.196  13.512  20.726  0.00  0.00    +0.000 A 
ENDBRANCH  14  19
ENDBRANCH   9  14
ENDBRANCH   8  12
ENDBRANCH   1   8
BRANCH   1  22
ATOM     22  C   UNL     1       2.584   5.218  17.858  0.00  0.00    +0.000 C 
BRANCH  22  23
ATOM     23  C   UNL     1       2.103   4.426  19.066  0.00  0.00    +0.000 A 
ATOM     24  C   UNL     1       1.233   3.333  18.914  0.00  0.00    +0.000 A 
ATOM     25  C   UNL     1       0.858   2.567  20.023  0.00  0.00    +0.000 A 
ATOM     26  C   UNL     1       1.346   2.892  21.283  0.00  0.00    +0.000 A 
ATOM     27  F   UNL     1       1.003   2.144  22.340  0.00  0.00    +0.000 F 
ATOM     28  C   UNL     1       2.195   3.976  21.459  0.00  0.00    +0.000 A 
ATOM     29  C   UNL     1       2.575   4.741  20.354  0.00  0.00    +0.000 A 
ENDBRANCH  22  23
ENDBRANCH   1  22
TORSDOF 7
ENDMDL
MODEL 8
REMARK VINA RESULT:      -8.3      2.537      4.384
REMARK  Name = 
REMARK  7 active torsions:
REMARK  status: ('A' for Active; 'I' for Inactive)
REMARK    1  A    between atoms: C_5  and  C_6
REMARK    2  A    between atoms: C_6  and  C_7
REMARK    3  A    between atoms: C_10  and  C_11
REMARK    4  A    between atoms: C_11  and  N_12
REMARK    5  A    between atoms: N_12  and  C_13
REMARK    6  A    between atoms: N_12  and  C_21
REMARK    7  A    between atoms: C_13  and  C_14
REMARK                            x       y       z     vdW  Elec       q    Type
REMARK                         _______ _______ _______ _____ _____    ______ ____
ROOT
ATOM      1  N   UNL     1       3.233   5.228  17.819  0.00  0.00    +0.000 NA
ENDROOT
BRANCH   1   2
ATOM      2  C   UNL     1       2.751   4.002  18.531  0.00  0.00    +0.000 C 
ATOM      3  C   UNL     1       1.252   3.718  18.283  0.00  0.00    +0.000 C 
ATOM      4  C   UNL     1       0.797   2.468  19.025  0.00  0.00    +0.000 C 
ATOM      5  O   UNL     1       1.076   2.586  20.419  0.00  0.00    +0.000 OA
ATOM      6  C   UNL     1       2.475   2.688  20.672  0.00  0.00    +0.000 C 
ATOM      7  C   UNL     1       3.040   3.956  20.048  0.00  0.00    +0.000 C 
ENDBRANCH   1   2
BRANCH   1   8
ATOM      8  C   UNL     1       3.474   6.345  18.774  0.00  0.00    +0.000 C 
BRANCH   8  12
ATOM      9  C   UNL     1       1.387   9.220  18.903  0.00  0.00    +0.000 A 
ATOM     10  N   UNL     1       1.174   8.760  20.145  0.00  0.00    +0.000 NA
ATOM     11  O   UNL     1       1.849   7.535  20.156  0.00  0.00    +0.000 OA
ATOM     12  C   UNL     1       2.418   7.395  18.923  0.00  0.00    +0.000 A 
ATOM     13  N   UNL     1       2.138   8.387  18.104  0.00  0.00    +0.000 NA
BRANCH   9  14
ATOM     14  C   UNL     1       1.052  10.607  18.488  0.00  0.00    +0.000 C 
BRANCH  14  19
ATOM     15  F   UNL     1      -4.545  11.024  17.952  0.00  0.00    +0.000 F 
ATOM     16  C   UNL     1      -3.217  10.916  18.091  0.00  0.00    +0.000 A 
ATOM     17  C   UNL     1      -2.543  11.793  18.932  0.00  0.00    +0.000 A 
ATOM     18  C   UNL     1      -1.159  11.685  19.073  0.00  0.00    +0.000 A 
ATOM     19  C   UNL     1      -0.447  10.698  18.368  0.00  0.00    +0.000 A 
ATOM     20  C   UNL     1      -1.150   9.820  17.527  0.00  0.00    +0.000 A 
ATOM     21  C   UNL     1      -2.534   9.931  17.389  0.00  0.00    +0.000 A 
ENDBRANCH  14  19
ENDBRANCH   9  14
ENDBRANCH   8  12
ENDBRANCH   1   8
BRANCH   1  22
ATOM     22  C   UNL     1       4.452   4.982  17.012  0.00  0.00    +0.000 C 
BRANCH  22  23
ATOM     23  C   UNL     1       5.711   5.699  17.479  0.00  0.00    +0.000 A 
ATOM     24  C   UNL     1       6.082   6.938  16.931  0.00  0.00    +0.000 A 
ATOM     25  C   UNL     1       7.200   7.624  17.420  0.00  0.00    +0.000 A 
ATOM     26  C   UNL     1       7.949   7.073  18.452  0.00  0.00    +0.000 A 
ATOM     27  F   UNL     1       9.006   7.740  18.935  0.00  0.00    +0.000 F 
ATOM     28  C   UNL     1       7.610   5.842  18.999  0.00  0.00    +0.000 A 
ATOM     29  C   UNL     1       6.493   5.157  18.516  0.00  0.00    +0.000 A 
ENDBRANCH  22  23
ENDBRANCH   1  22
TORSDOF 7
ENDMDL
MODEL 9
REMARK VINA RESULT:      -8.2      1.342      2.090
REMARK  Name = 
REMARK  7 active torsions:
REMARK  status: ('A' for Active; 'I' for Inactive)
REMARK    1  A    between atoms: C_5  and  C_6
REMARK    2  A    between atoms: C_6  and  C_7
REMARK    3  A    between atoms: C_10  and  C_11
REMARK    4  A    between atoms: C_11  and  N_12
REMARK    5  A    between atoms: N_12  and  C_13
REMARK    6  A    between atoms: N_12  and  C_21
REMARK    7  A    between atoms: C_13  and  C_14
REMARK                            x       y       z     vdW  Elec       q    Type
REMARK                         _______ _______ _______ _____ _____    ______ ____
ROOT
ATOM      1  N   UNL     1       4.386   6.284  18.332  0.00  0.00    +0.000 NA
ENDROOT
BRANCH   1   2
ATOM      2  C   UNL     1       5.208   5.573  17.302  0.00  0.00    +0.000 C 
ATOM      3  C   UNL     1       6.666   5.339  17.758  0.00  0.00    +0.000 C 
ATOM      4  C   UNL     1       7.472   4.619  16.684  0.00  0.00    +0.000 C 
ATOM      5  O   UNL     1       7.425   5.343  15.456  0.00  0.00    +0.000 OA
ATOM      6  C   UNL     1       6.099   5.427  14.941  0.00  0.00    +0.000 C 
ATOM      7  C   UNL     1       5.205   6.208  15.894  0.00  0.00    +0.000 C 
ENDBRANCH   1   2
BRANCH   1   8
ATOM      8  C   UNL     1       3.106   6.777  17.752  0.00  0.00    +0.000 C 
BRANCH   8  12
ATOM      9  C   UNL     1       1.231   9.483  19.094  0.00  0.00    +0.000 A 
ATOM     10  N   UNL     1       1.718  10.095  18.003  0.00  0.00    +0.000 NA
ATOM     11  O   UNL     1       2.597   9.149  17.466  0.00  0.00    +0.000 OA
ATOM     12  C   UNL     1       2.531   8.054  18.280  0.00  0.00    +0.000 A 
ATOM     13  N   UNL     1       1.731   8.219  19.312  0.00  0.00    +0.000 NA
BRANCH   9  14
ATOM     14  C   UNL     1       0.081  10.014  19.870  0.00  0.00    +0.000 C 
BRANCH  14  19
ATOM     15  F   UNL     1      -3.981  11.469  16.241  0.00  0.00    +0.000 F 
ATOM     16  C   UNL     1      -3.006  11.132  17.096  0.00  0.00    +0.000 A 
ATOM     17  C   UNL     1      -2.184  10.051  16.805  0.00  0.00    +0.000 A 
ATOM     18  C   UNL     1      -1.172   9.695  17.697  0.00  0.00    +0.000 A 
ATOM     19  C   UNL     1      -0.985  10.422  18.886  0.00  0.00    +0.000 A 
ATOM     20  C   UNL     1      -1.825  11.514  19.157  0.00  0.00    +0.000 A 
ATOM     21  C   UNL     1      -2.836  11.867  18.262  0.00  0.00    +0.000 A 
ENDBRANCH  14  19
ENDBRANCH   9  14
ENDBRANCH   8  12
ENDBRANCH   1   8
BRANCH   1  22
ATOM     22  C   UNL     1       4.111   5.447  19.525  0.00  0.00    +0.000 C 
BRANCH  22  23
ATOM     23  C   UNL     1       3.056   4.365  19.345  0.00  0.00    +0.000 A 
ATOM     24  C   UNL     1       1.802   4.467  19.971  0.00  0.00    +0.000 A 
ATOM     25  C   UNL     1       0.814   3.504  19.739  0.00  0.00    +0.000 A 
ATOM     26  C   UNL     1       1.076   2.438  18.887  0.00  0.00    +0.000 A 
ATOM     27  F   UNL     1       0.121   1.529  18.649  0.00  0.00    +0.000 F 
ATOM     28  C   UNL     1       2.313   2.309  18.270  0.00  0.00    +0.000 A 
ATOM     29  C   UNL     1       3.300   3.270  18.496  0.00  0.00    +0.000 A 
ENDBRANCH  22  23
ENDBRANCH   1  22
TORSDOF 7
ENDMDL
