MODEL 1
REMARK VINA RESULT:      -7.5      0.000      0.000
REMARK  Name = 
REMARK  2 active torsions:
REMARK  status: ('A' for Active; 'I' for Inactive)
REMARK    1  A    between atoms: C_2  and  C_3
REMARK    2  A    between atoms: N_20  and  C_21
REMARK                            x       y       z     vdW  Elec       q    Type
REMARK                         _______ _______ _______ _____ _____    ______ ____
ROOT
ATOM      1  O   UNL     1       1.831   9.304  22.684  0.00  0.00    +0.000 OA
ATOM      2  C   UNL     1       1.174   8.998  21.689  0.00  0.00    +0.000 C 
ATOM      3  N   UNL     1       0.054   9.746  21.320  0.00  0.00    +0.000 N 
ATOM      4  C   UNL     1      -0.316  10.902  22.165  0.00  0.00    +0.000 C 
ATOM      5  C   UNL     1       0.100  12.245  21.512  0.00  0.00    +0.000 C 
ATOM      6  C   UNL     1      -0.313  12.220  20.079  0.00  0.00    +0.000 A 
ATOM      7  C   UNL     1      -0.668  11.066  19.415  0.00  0.00    +0.000 A 
ATOM      8  N   UNL     1      -1.145  11.338  18.168  0.00  0.00    +0.000 NA
ATOM      9  C   UNL     1      -1.053  12.647  18.060  0.00  0.00    +0.000 A 
ATOM     10  N   UNL     1      -0.514  13.247  19.185  0.00  0.00    +0.000 N 
ATOM     11  C   UNL     1      -0.598   9.696  19.993  0.00  0.00    +0.000 C 
ENDROOT
BRANCH   2  12
ATOM     12  C   UNL     1       1.558   7.856  20.880  0.00  0.00    +0.000 A 
ATOM     13  C   UNL     1       2.143   7.876  19.621  0.00  0.00    +0.000 A 
ATOM     14  C   UNL     1       2.299   6.537  19.173  0.00  0.00    +0.000 A 
ATOM     15  C   UNL     1       2.784   5.946  17.991  0.00  0.00    +0.000 A 
ATOM     16  C   UNL     1       2.764   4.550  17.867  0.00  0.00    +0.000 A 
ATOM     17  C   UNL     1       2.255   3.756  18.892  0.00  0.00    +0.000 A 
ATOM     18 CL   UNL     1       2.231   2.043  18.707  0.00  0.00    +0.000 Cl
ATOM     19  C   UNL     1       1.774   4.318  20.078  0.00  0.00    +0.000 A 
ATOM     20  C   UNL     1       1.830   5.712  20.191  0.00  0.00    +0.000 A 
ATOM     21  N   UNL     1       1.495   6.529  21.243  0.00  0.00    +0.000 N 
ATOM     22  H   UNL     1       1.191   6.190  22.144  0.00  0.00    +0.000 HD
ENDBRANCH   2  12
BRANCH  10  23
ATOM     23  C   UNL     1      -0.231  14.626  19.330  0.00  0.00    +0.000 A 
ATOM     24  C   UNL     1       0.982  15.142  18.847  0.00  0.00    +0.000 A 
ATOM     25  C   UNL     1       1.265  16.500  18.993  0.00  0.00    +0.000 A 
ATOM     26  C   UNL     1       0.354  17.328  19.639  0.00  0.00    +0.000 A 
ATOM     27  F   UNL     1       0.637  18.628  19.787  0.00  0.00    +0.000 F 
ATOM     28  C   UNL     1      -0.841  16.827  20.141  0.00  0.00    +0.000 A 
ATOM     29  C   UNL     1      -1.139  15.472  19.983  0.00  0.00    +0.000 A 
ENDBRANCH  10  23
TORSDOF 2
ENDMDL
MODEL 2
REMARK VINA RESULT:      -7.5      5.742     10.058
REMARK  Name = 
REMARK  2 active torsions:
REMARK  status: ('A' for Active; 'I' for Inactive)
REMARK    1  A    between atoms: C_2  and  C_3
REMARK    2  A    between atoms: N_20  and  C_21
REMARK                            x       y       z     vdW  Elec       q    Type
REMARK                         _______ _______ _______ _____ _____    ______ ____
ROOT
ATOM      1  O   UNL     1       1.402   4.514  18.654  0.00  0.00    +0.000 OA
ATOM      2  C   UNL     1       2.259   5.290  19.074  0.00  0.00    +0.000 C 
ATOM      3  N   UNL     1       3.617   4.988  18.944  0.00  0.00    +0.000 N 
ATOM      4  C   UNL     1       3.983   3.709  18.297  0.00  0.00    +0.000 C 
ATOM      5  C   UNL     1       4.464   3.922  16.839  0.00  0.00    +0.000 C 
ATOM      6  C   UNL     1       5.431   5.057  16.823  0.00  0.00    +0.000 A 
ATOM      7  C   UNL     1       5.568   5.949  17.865  0.00  0.00    +0.000 A 
ATOM      8  N   UNL     1       6.619   6.793  17.662  0.00  0.00    +0.000 NA
ATOM      9  C   UNL     1       7.102   6.439  16.490  0.00  0.00    +0.000 A 
ATOM     10  N   UNL     1       6.395   5.403  15.903  0.00  0.00    +0.000 N 
ATOM     11  C   UNL     1       4.719   5.964  19.088  0.00  0.00    +0.000 C 
ENDROOT
BRANCH   2  12
ATOM     12  C   UNL     1       1.871   6.537  19.708  0.00  0.00    +0.000 A 
ATOM     13  C   UNL     1       1.476   6.725  21.025  0.00  0.00    +0.000 A 
ATOM     14  C   UNL     1       1.135   8.091  21.206  0.00  0.00    +0.000 A 
ATOM     15  C   UNL     1       0.643   8.847  22.287  0.00  0.00    +0.000 A 
ATOM     16  C   UNL     1       0.379  10.211  22.102  0.00  0.00    +0.000 A 
ATOM     17  C   UNL     1       0.584  10.810  20.861  0.00  0.00    +0.000 A 
ATOM     18 CL   UNL     1       0.238  12.486  20.659  0.00  0.00    +0.000 Cl
ATOM     19  C   UNL     1       1.078  10.083  19.775  0.00  0.00    +0.000 A 
ATOM     20  C   UNL     1       1.361   8.730  19.989  0.00  0.00    +0.000 A 
ATOM     21  N   UNL     1       1.906   7.794  19.144  0.00  0.00    +0.000 N 
ATOM     22  H   UNL     1       2.234   8.002  18.212  0.00  0.00    +0.000 HD
ENDBRANCH   2  12
BRANCH  10  23
ATOM     23  C   UNL     1       6.638   4.861  14.618  0.00  0.00    +0.000 A 
ATOM     24  C   UNL     1       7.657   5.400  13.816  0.00  0.00    +0.000 A 
ATOM     25  C   UNL     1       7.894   4.871  12.548  0.00  0.00    +0.000 A 
ATOM     26  C   UNL     1       7.103   3.830  12.077  0.00  0.00    +0.000 A 
ATOM     27  F   UNL     1       7.328   3.334  10.854  0.00  0.00    +0.000 F 
ATOM     28  C   UNL     1       6.078   3.300  12.851  0.00  0.00    +0.000 A 
ATOM     29  C   UNL     1       5.845   3.814  14.129  0.00  0.00    +0.000 A 
ENDBRANCH  10  23
TORSDOF 2
ENDMDL
MODEL 3
REMARK VINA RESULT:      -7.3      0.900      1.322
REMARK  Name = 
REMARK  2 active torsions:
REMARK  status: ('A' for Active; 'I' for Inactive)
REMARK    1  A    between atoms: C_2  and  C_3
REMARK    2  A    between atoms: N_20  and  C_21
REMARK                            x       y       z     vdW  Elec       q    Type
REMARK                         _______ _______ _______ _____ _____    ______ ____
ROOT
ATOM      1  O   UNL     1       1.765   9.279  22.689  0.00  0.00    +0.000 OA
ATOM      2  C   UNL     1       1.130   8.980  21.678  0.00  0.00    +0.000 C 
ATOM      3  N   UNL     1       0.011   9.724  21.297  0.00  0.00    +0.000 N 
ATOM      4  C   UNL     1      -0.386  10.866  22.150  0.00  0.00    +0.000 C 
ATOM      5  C   UNL     1       0.032  12.221  21.523  0.00  0.00    +0.000 C 
ATOM      6  C   UNL     1      -0.353  12.212  20.082  0.00  0.00    +0.000 A 
ATOM      7  C   UNL     1      -0.685  11.064  19.396  0.00  0.00    +0.000 A 
ATOM      8  N   UNL     1      -1.140  11.349  18.143  0.00  0.00    +0.000 NA
ATOM      9  C   UNL     1      -1.056  12.660  18.054  0.00  0.00    +0.000 A 
ATOM     10  N   UNL     1      -0.545  13.249  19.198  0.00  0.00    +0.000 N 
ATOM     11  C   UNL     1      -0.615   9.687  19.957  0.00  0.00    +0.000 C 
ENDROOT
BRANCH   2  12
ATOM     12  C   UNL     1       1.539   7.853  20.861  0.00  0.00    +0.000 A 
ATOM     13  C   UNL     1       1.246   6.512  21.070  0.00  0.00    +0.000 A 
ATOM     14  C   UNL     1       1.890   5.746  20.062  0.00  0.00    +0.000 A 
ATOM     15  C   UNL     1       1.987   4.369  19.786  0.00  0.00    +0.000 A 
ATOM     16  C   UNL     1       2.754   3.944  18.693  0.00  0.00    +0.000 A 
ATOM     17  C   UNL     1       3.427   4.870  17.897  0.00  0.00    +0.000 A 
ATOM     18 CL   UNL     1       4.374   4.318  16.567  0.00  0.00    +0.000 Cl
ATOM     19  C   UNL     1       3.340   6.242  18.146  0.00  0.00    +0.000 A 
ATOM     20  C   UNL     1       2.546   6.645  19.226  0.00  0.00    +0.000 A 
ATOM     21  N   UNL     1       2.226   7.905  19.668  0.00  0.00    +0.000 N 
ATOM     22  H   UNL     1       2.510   8.754  19.201  0.00  0.00    +0.000 HD
ENDBRANCH   2  12
BRANCH  10  23
ATOM     23  C   UNL     1      -0.276  14.629  19.367  0.00  0.00    +0.000 A 
ATOM     24  C   UNL     1       0.936  15.163  18.903  0.00  0.00    +0.000 A 
ATOM     25  C   UNL     1       1.204  16.522  19.074  0.00  0.00    +0.000 A 
ATOM     26  C   UNL     1       0.280  17.331  19.724  0.00  0.00    +0.000 A 
ATOM     27  F   UNL     1       0.548  18.631  19.894  0.00  0.00    +0.000 F 
ATOM     28  C   UNL     1      -0.915  16.810  20.206  0.00  0.00    +0.000 A 
ATOM     29  C   UNL     1      -1.199  15.455  20.025  0.00  0.00    +0.000 A 
ENDBRANCH  10  23
TORSDOF 2
ENDMDL
MODEL 4
REMARK VINA RESULT:      -7.3      5.403      8.086
REMARK  Name = 
REMARK  2 active torsions:
REMARK  status: ('A' for Active; 'I' for Inactive)
REMARK    1  A    between atoms: C_2  and  C_3
REMARK    2  A    between atoms: N_20  and  C_21
REMARK                            x       y       z     vdW  Elec       q    Type
REMARK                         _______ _______ _______ _____ _____    ______ ____
ROOT
ATOM      1  O   UNL     1       2.935  16.539  17.137  0.00  0.00    +0.000 OA
ATOM      2  C   UNL     1       3.346  15.926  18.121  0.00  0.00    +0.000 C 
ATOM      3  N   UNL     1       2.470  15.560  19.147  0.00  0.00    +0.000 N 
ATOM      4  C   UNL     1       1.047  15.942  19.012  0.00  0.00    +0.000 C 
ATOM      5  C   UNL     1       0.168  14.737  18.591  0.00  0.00    +0.000 C 
ATOM      6  C   UNL     1       0.538  13.566  19.438  0.00  0.00    +0.000 A 
ATOM      7  C   UNL     1       1.692  13.510  20.189  0.00  0.00    +0.000 A 
ATOM      8  N   UNL     1       1.715  12.403  20.983  0.00  0.00    +0.000 NA
ATOM      9  C   UNL     1       0.597  11.770  20.695  0.00  0.00    +0.000 A 
ATOM     10  N   UNL     1      -0.156  12.412  19.726  0.00  0.00    +0.000 N 
ATOM     11  C   UNL     1       2.759  14.548  20.186  0.00  0.00    +0.000 C 
ENDROOT
BRANCH   2  12
ATOM     12  C   UNL     1       4.747  15.566  18.229  0.00  0.00    +0.000 A 
ATOM     13  C   UNL     1       5.748  16.269  18.885  0.00  0.00    +0.000 A 
ATOM     14  C   UNL     1       6.980  15.588  18.694  0.00  0.00    +0.000 A 
ATOM     15  C   UNL     1       8.311  15.837  19.079  0.00  0.00    +0.000 A 
ATOM     16  C   UNL     1       9.316  14.945  18.680  0.00  0.00    +0.000 A 
ATOM     17  C   UNL     1       9.006  13.834  17.899  0.00  0.00    +0.000 A 
ATOM     18 CL   UNL     1      10.264  12.761  17.411  0.00  0.00    +0.000 Cl
ATOM     19  C   UNL     1       7.692  13.561  17.509  0.00  0.00    +0.000 A 
ATOM     20  C   UNL     1       6.701  14.450  17.942  0.00  0.00    +0.000 A 
ATOM     21  N   UNL     1       5.339  14.409  17.774  0.00  0.00    +0.000 N 
ATOM     22  H   UNL     1       4.852  13.648  17.323  0.00  0.00    +0.000 HD
ENDBRANCH   2  12
BRANCH  10  23
ATOM     23  C   UNL     1      -1.365  11.933  19.167  0.00  0.00    +0.000 A 
ATOM     24  C   UNL     1      -2.591  12.453  19.612  0.00  0.00    +0.000 A 
ATOM     25  C   UNL     1      -3.783  11.978  19.065  0.00  0.00    +0.000 A 
ATOM     26  C   UNL     1      -3.750  10.976  18.103  0.00  0.00    +0.000 A 
ATOM     27  F   UNL     1      -4.898  10.518  17.590  0.00  0.00    +0.000 F 
ATOM     28  C   UNL     1      -2.544  10.439  17.668  0.00  0.00    +0.000 A 
ATOM     29  C   UNL     1      -1.345  10.920  18.198  0.00  0.00    +0.000 A 
ENDBRANCH  10  23
TORSDOF 2
ENDMDL
MODEL 5
REMARK VINA RESULT:      -7.2      2.984      3.942
REMARK  Name = 
REMARK  2 active torsions:
REMARK  status: ('A' for Active; 'I' for Inactive)
REMARK    1  A    between atoms: C_2  and  C_3
REMARK    2  A    between atoms: N_20  and  C_21
REMARK                            x       y       z     vdW  Elec       q    Type
REMARK                         _______ _______ _______ _____ _____    ______ ____
ROOT
ATOM      1  O   UNL     1       1.201  10.058  17.591  0.00  0.00    +0.000 OA
ATOM      2  C   UNL     1       1.433   9.707  18.748  0.00  0.00    +0.000 C 
ATOM      3  N   UNL     1       1.290  10.609  19.806  0.00  0.00    +0.000 N 
ATOM      4  C   UNL     1       0.864  11.989  19.487  0.00  0.00    +0.000 C 
ATOM      5  C   UNL     1      -0.632  12.219  19.826  0.00  0.00    +0.000 C 
ATOM      6  C   UNL     1      -0.898  11.662  21.184  0.00  0.00    +0.000 A 
ATOM      7  C   UNL     1      -0.039  10.798  21.828  0.00  0.00    +0.000 A 
ATOM      8  N   UNL     1      -0.442  10.561  23.109  0.00  0.00    +0.000 NA
ATOM      9  C   UNL     1      -1.555  11.252  23.235  0.00  0.00    +0.000 A 
ATOM     10  N   UNL     1      -1.912  11.922  22.078  0.00  0.00    +0.000 N 
ATOM     11  C   UNL     1       1.202  10.232  21.233  0.00  0.00    +0.000 C 
ENDROOT
BRANCH   2  12
ATOM     12  C   UNL     1       1.852   8.348  19.031  0.00  0.00    +0.000 A 
ATOM     13  C   UNL     1       2.656   7.534  18.245  0.00  0.00    +0.000 A 
ATOM     14  C   UNL     1       2.769   6.265  18.874  0.00  0.00    +0.000 A 
ATOM     15  C   UNL     1       3.406   5.055  18.539  0.00  0.00    +0.000 A 
ATOM     16  C   UNL     1       3.283   3.957  19.401  0.00  0.00    +0.000 A 
ATOM     17  C   UNL     1       2.527   4.054  20.568  0.00  0.00    +0.000 A 
ATOM     18 CL   UNL     1       2.383   2.685  21.603  0.00  0.00    +0.000 Cl
ATOM     19  C   UNL     1       1.892   5.246  20.926  0.00  0.00    +0.000 A 
ATOM     20  C   UNL     1       2.051   6.338  20.064  0.00  0.00    +0.000 A 
ATOM     21  N   UNL     1       1.606   7.632  20.182  0.00  0.00    +0.000 N 
ATOM     22  H   UNL     1       1.114   7.985  20.989  0.00  0.00    +0.000 HD
ENDBRANCH   2  12
BRANCH  10  23
ATOM     23  C   UNL     1      -3.091  12.684  21.894  0.00  0.00    +0.000 A 
ATOM     24  C   UNL     1      -3.555  13.509  22.931  0.00  0.00    +0.000 A 
ATOM     25  C   UNL     1      -4.720  14.256  22.753  0.00  0.00    +0.000 A 
ATOM     26  C   UNL     1      -5.425  14.160  21.559  0.00  0.00    +0.000 A 
ATOM     27  F   UNL     1      -6.547  14.871  21.399  0.00  0.00    +0.000 F 
ATOM     28  C   UNL     1      -4.988  13.332  20.532  0.00  0.00    +0.000 A 
ATOM     29  C   UNL     1      -3.814  12.593  20.696  0.00  0.00    +0.000 A 
ENDBRANCH  10  23
TORSDOF 2
ENDMDL
MODEL 6
REMARK VINA RESULT:      -7.1      7.281     10.205
REMARK  Name = 
REMARK  2 active torsions:
REMARK  status: ('A' for Active; 'I' for Inactive)
REMARK    1  A    between atoms: C_2  and  C_3
REMARK    2  A    between atoms: N_20  and  C_21
REMARK                            x       y       z     vdW  Elec       q    Type
REMARK                         _______ _______ _______ _____ _____    ______ ____
ROOT
ATOM      1  O   UNL     1       8.838   6.419  19.174  0.00  0.00    +0.000 OA
ATOM      2  C   UNL     1       8.128   7.179  18.517  0.00  0.00    +0.000 C 
ATOM      3  N   UNL     1       7.035   6.687  17.798  0.00  0.00    +0.000 N 
ATOM      4  C   UNL     1       6.773   5.232  17.847  0.00  0.00    +0.000 C 
ATOM      5  C   UNL     1       5.590   4.895  18.790  0.00  0.00    +0.000 C 
ATOM      6  C   UNL     1       4.470   5.834  18.496  0.00  0.00    +0.000 A 
ATOM      7  C   UNL     1       4.627   6.994  17.768  0.00  0.00    +0.000 A 
ATOM      8  N   UNL     1       3.428   7.590  17.517  0.00  0.00    +0.000 NA
ATOM      9  C   UNL     1       2.546   6.815  18.113  0.00  0.00    +0.000 A 
ATOM     10  N   UNL     1       3.123   5.738  18.765  0.00  0.00    +0.000 N 
ATOM     11  C   UNL     1       5.929   7.514  17.267  0.00  0.00    +0.000 C 
ENDROOT
BRANCH   2  12
ATOM     12  C   UNL     1       8.410   8.602  18.485  0.00  0.00    +0.000 A 
ATOM     13  C   UNL     1       7.887   9.544  17.609  0.00  0.00    +0.000 A 
ATOM     14  C   UNL     1       8.473  10.806  17.897  0.00  0.00    +0.000 A 
ATOM     15  C   UNL     1       8.366  12.091  17.334  0.00  0.00    +0.000 A 
ATOM     16  C   UNL     1       9.136  13.135  17.864  0.00  0.00    +0.000 A 
ATOM     17  C   UNL     1      10.010  12.903  18.925  0.00  0.00    +0.000 A 
ATOM     18 CL   UNL     1      10.954  14.202  19.548  0.00  0.00    +0.000 Cl
ATOM     19  C   UNL     1      10.129  11.638  19.506  0.00  0.00    +0.000 A 
ATOM     20  C   UNL     1       9.330  10.616  18.979  0.00  0.00    +0.000 A 
ATOM     21  N   UNL     1       9.186   9.310  19.376  0.00  0.00    +0.000 N 
ATOM     22  H   UNL     1       9.640   8.916  20.188  0.00  0.00    +0.000 HD
ENDBRANCH   2  12
BRANCH  10  23
ATOM     23  C   UNL     1       2.435   4.780  19.547  0.00  0.00    +0.000 A 
ATOM     24  C   UNL     1       2.736   4.650  20.912  0.00  0.00    +0.000 A 
ATOM     25  C   UNL     1       2.062   3.702  21.682  0.00  0.00    +0.000 A 
ATOM     26  C   UNL     1       1.115   2.877  21.088  0.00  0.00    +0.000 A 
ATOM     27  F   UNL     1       0.479   1.963  21.830  0.00  0.00    +0.000 F 
ATOM     28  C   UNL     1       0.822   2.982  19.733  0.00  0.00    +0.000 A 
ATOM     29  C   UNL     1       1.480   3.939  18.958  0.00  0.00    +0.000 A 
ENDBRANCH  10  23
TORSDOF 2
ENDMDL
MODEL 7
REMARK VINA RESULT:      -7.0      5.063      6.776
REMARK  Name = 
REMARK  2 active torsions:
REMARK  status: ('A' for Active; 'I' for Inactive)
REMARK    1  A    between atoms: C_2  and  C_3
REMARK    2  A    between atoms: N_20  and  C_21
REMARK                            x       y       z     vdW  Elec       q    Type
REMARK                         _______ _______ _______ _____ _____    ______ ____
ROOT
ATOM      1  O   UNL     1       1.008  11.412  20.759  0.00  0.00    +0.000 OA
ATOM      2  C   UNL     1       0.436  12.322  20.158  0.00  0.00    +0.000 C 
ATOM      3  N   UNL     1       0.865  13.644  20.297  0.00  0.00    +0.000 N 
ATOM      4  C   UNL     1       2.013  13.909  21.191  0.00  0.00    +0.000 C 
ATOM      5  C   UNL     1       3.316  14.160  20.389  0.00  0.00    +0.000 C 
ATOM      6  C   UNL     1       3.012  15.111  19.281  0.00  0.00    +0.000 A 
ATOM      7  C   UNL     1       1.730  15.404  18.867  0.00  0.00    +0.000 A 
ATOM      8  N   UNL     1       1.723  16.409  17.947  0.00  0.00    +0.000 NA
ATOM      9  C   UNL     1       2.994  16.707  17.777  0.00  0.00    +0.000 A 
ATOM     10  N   UNL     1       3.842  15.922  18.540  0.00  0.00    +0.000 N 
ATOM     11  C   UNL     1       0.498  14.753  19.390  0.00  0.00    +0.000 C 
ENDROOT
BRANCH   2  12
ATOM     12  C   UNL     1      -0.691  12.033  19.291  0.00  0.00    +0.000 A 
ATOM     13  C   UNL     1      -2.040  12.148  19.597  0.00  0.00    +0.000 A 
ATOM     14  C   UNL     1      -2.797  11.712  18.477  0.00  0.00    +0.000 A 
ATOM     15  C   UNL     1      -4.173  11.568  18.217  0.00  0.00    +0.000 A 
ATOM     16  C   UNL     1      -4.585  11.063  16.976  0.00  0.00    +0.000 A 
ATOM     17  C   UNL     1      -3.645  10.693  16.016  0.00  0.00    +0.000 A 
ATOM     18 CL   UNL     1      -4.178  10.063  14.503  0.00  0.00    +0.000 Cl
ATOM     19  C   UNL     1      -2.274  10.833  16.247  0.00  0.00    +0.000 A 
ATOM     20  C   UNL     1      -1.887  11.365  17.483  0.00  0.00    +0.000 A 
ATOM     21  N   UNL     1      -0.637  11.672  17.962  0.00  0.00    +0.000 N 
ATOM     22  H   UNL     1       0.210  11.588  17.419  0.00  0.00    +0.000 HD
ENDBRANCH   2  12
BRANCH  10  23
ATOM     23  C   UNL     1       5.256  15.966  18.513  0.00  0.00    +0.000 A 
ATOM     24  C   UNL     1       5.929  17.063  19.072  0.00  0.00    +0.000 A 
ATOM     25  C   UNL     1       7.323  17.110  19.042  0.00  0.00    +0.000 A 
ATOM     26  C   UNL     1       8.034  16.081  18.436  0.00  0.00    +0.000 A 
ATOM     27  F   UNL     1       9.371  16.137  18.401  0.00  0.00    +0.000 F 
ATOM     28  C   UNL     1       7.380  14.998  17.861  0.00  0.00    +0.000 A 
ATOM     29  C   UNL     1       5.985  14.936  17.902  0.00  0.00    +0.000 A 
ENDBRANCH  10  23
TORSDOF 2
ENDMDL
MODEL 8
REMARK VINA RESULT:      -6.9      5.176      6.936
REMARK  Name = 
REMARK  2 active torsions:
REMARK  status: ('A' for Active; 'I' for Inactive)
REMARK    1  A    between atoms: C_2  and  C_3
REMARK    2  A    between atoms: N_20  and  C_21
REMARK                            x       y       z     vdW  Elec       q    Type
REMARK                         _______ _______ _______ _____ _____    ______ ____
ROOT
ATOM      1  O   UNL     1       1.073  11.591  21.192  0.00  0.00    +0.000 OA
ATOM      2  C   UNL     1       0.475  12.477  20.583  0.00  0.00    +0.000 C 
ATOM      3  N   UNL     1       0.929  13.798  20.625  0.00  0.00    +0.000 N 
ATOM      4  C   UNL     1       2.137  14.091  21.427  0.00  0.00    +0.000 C 
ATOM      5  C   UNL     1       3.387  14.279  20.530  0.00  0.00    +0.000 C 
ATOM      6  C   UNL     1       3.022  15.177  19.396  0.00  0.00    +0.000 A 
ATOM      7  C   UNL     1       1.720  15.469  19.051  0.00  0.00    +0.000 A 
ATOM      8  N   UNL     1       1.666  16.425  18.082  0.00  0.00    +0.000 NA
ATOM      9  C   UNL     1       2.926  16.693  17.815  0.00  0.00    +0.000 A 
ATOM     10  N   UNL     1       3.812  15.934  18.560  0.00  0.00    +0.000 N 
ATOM     11  C   UNL     1       0.517  14.865  19.686  0.00  0.00    +0.000 C 
ENDROOT
BRANCH   2  12
ATOM     12  C   UNL     1      -0.710  12.163  19.807  0.00  0.00    +0.000 A 
ATOM     13  C   UNL     1      -0.760  11.638  18.523  0.00  0.00    +0.000 A 
ATOM     14  C   UNL     1      -2.120  11.539  18.126  0.00  0.00    +0.000 A 
ATOM     15  C   UNL     1      -2.774  11.126  16.950  0.00  0.00    +0.000 A 
ATOM     16  C   UNL     1      -4.172  11.189  16.887  0.00  0.00    +0.000 A 
ATOM     17  C   UNL     1      -4.908  11.669  17.969  0.00  0.00    +0.000 A 
ATOM     18 CL   UNL     1      -6.626  11.748  17.859  0.00  0.00    +0.000 Cl
ATOM     19  C   UNL     1      -4.284  12.079  19.150  0.00  0.00    +0.000 A 
ATOM     20  C   UNL     1      -2.888  11.981  19.200  0.00  0.00    +0.000 A 
ATOM     21  N   UNL     1      -2.019  12.243  20.230  0.00  0.00    +0.000 N 
ATOM     22  H   UNL     1      -2.311  12.514  21.158  0.00  0.00    +0.000 HD
ENDBRANCH   2  12
BRANCH  10  23
ATOM     23  C   UNL     1       5.222  15.954  18.439  0.00  0.00    +0.000 A 
ATOM     24  C   UNL     1       5.888  14.853  17.877  0.00  0.00    +0.000 A 
ATOM     25  C   UNL     1       7.278  14.869  17.762  0.00  0.00    +0.000 A 
ATOM     26  C   UNL     1       7.996  15.965  18.227  0.00  0.00    +0.000 A 
ATOM     27  F   UNL     1       9.330  15.969  18.124  0.00  0.00    +0.000 F 
ATOM     28  C   UNL     1       7.351  17.052  18.804  0.00  0.00    +0.000 A 
ATOM     29  C   UNL     1       5.959  17.051  18.908  0.00  0.00    +0.000 A 
ENDBRANCH  10  23
TORSDOF 2
ENDMDL
MODEL 9
REMARK VINA RESULT:      -6.9      5.680      8.367
REMARK  Name = 
REMARK  2 active torsions:
REMARK  status: ('A' for Active; 'I' for Inactive)
REMARK    1  A    between atoms: C_2  and  C_3
REMARK    2  A    between atoms: N_20  and  C_21
REMARK                            x       y       z     vdW  Elec       q    Type
REMARK                         _______ _______ _______ _____ _____    ______ ____
ROOT
ATOM      1  O   UNL     1       2.734  17.146  17.562  0.00  0.00    +0.000 OA
ATOM      2  C   UNL     1       3.204  16.412  18.431  0.00  0.00    +0.000 C 
ATOM      3  N   UNL     1       2.400  15.940  19.472  0.00  0.00    +0.000 N 
ATOM      4  C   UNL     1       0.981  16.359  19.497  0.00  0.00    +0.000 C 
ATOM      5  C   UNL     1       0.042  15.228  19.007  0.00  0.00    +0.000 C 
ATOM      6  C   UNL     1       0.445  13.957  19.677  0.00  0.00    +0.000 A 
ATOM      7  C   UNL     1       1.651  13.793  20.323  0.00  0.00    +0.000 A 
ATOM      8  N   UNL     1       1.707  12.597  20.974  0.00  0.00    +0.000 NA
ATOM      9  C   UNL     1       0.554  12.023  20.704  0.00  0.00    +0.000 A 
ATOM     10  N   UNL     1      -0.254  12.789  19.880  0.00  0.00    +0.000 N 
ATOM     11  C   UNL     1       2.742  14.806  20.358  0.00  0.00    +0.000 C 
ENDROOT
BRANCH   2  12
ATOM     12  C   UNL     1       4.600  16.019  18.384  0.00  0.00    +0.000 A 
ATOM     13  C   UNL     1       5.133  14.877  17.803  0.00  0.00    +0.000 A 
ATOM     14  C   UNL     1       6.534  14.862  18.036  0.00  0.00    +0.000 A 
ATOM     15  C   UNL     1       7.573  13.963  17.728  0.00  0.00    +0.000 A 
ATOM     16  C   UNL     1       8.877  14.255  18.149  0.00  0.00    +0.000 A 
ATOM     17  C   UNL     1       9.142  15.413  18.878  0.00  0.00    +0.000 A 
ATOM     18 CL   UNL     1      10.753  15.741  19.395  0.00  0.00    +0.000 Cl
ATOM     19  C   UNL     1       8.130  16.325  19.190  0.00  0.00    +0.000 A 
ATOM     20  C   UNL     1       6.841  16.026  18.735  0.00  0.00    +0.000 A 
ATOM     21  N   UNL     1       5.678  16.750  18.832  0.00  0.00    +0.000 N 
ATOM     22  H   UNL     1       5.623  17.675  19.233  0.00  0.00    +0.000 HD
ENDBRANCH   2  12
BRANCH  10  23
ATOM     23  C   UNL     1      -1.514  12.401  19.366  0.00  0.00    +0.000 A 
ATOM     24  C   UNL     1      -2.683  12.720  20.074  0.00  0.00    +0.000 A 
ATOM     25  C   UNL     1      -3.926  12.334  19.571  0.00  0.00    +0.000 A 
ATOM     26  C   UNL     1      -3.995  11.613  18.385  0.00  0.00    +0.000 A 
ATOM     27  F   UNL     1      -5.189  11.236  17.913  0.00  0.00    +0.000 F 
ATOM     28  C   UNL     1      -2.845  11.273  17.684  0.00  0.00    +0.000 A 
ATOM     29  C   UNL     1      -1.598  11.670  18.172  0.00  0.00    +0.000 A 
ENDBRANCH  10  23
TORSDOF 2
ENDMDL
