MODEL 1
REMARK VINA RESULT:      -8.5      0.000      0.000
REMARK  Name = 
REMARK  7 active torsions:
REMARK  status: ('A' for Active; 'I' for Inactive)
REMARK    1  A    between atoms: C_1  and  C_2
REMARK    2  A    between atoms: C_5  and  C_6
REMARK    3  A    between atoms: C_9  and  S_10
REMARK    4  A    between atoms: S_10  and  C_11
REMARK    5  A    between atoms: C_11  and  C_12
REMARK    6  A    between atoms: N_14  and  C_15
REMARK    7  A    between atoms: N_25  and  C_26
REMARK                            x       y       z     vdW  Elec       q    Type
REMARK                         _______ _______ _______ _____ _____    ______ ____
ROOT
ATOM      1  C   UNL     1       2.092   3.859  21.564  0.00  0.00    +0.000 C 
ENDROOT
BRANCH   1   2
ATOM      2  C   UNL     1       1.723   4.858  20.481  0.00  0.00    +0.000 C 
ATOM      3  O   UNL     1       1.015   4.511  19.537  0.00  0.00    +0.000 OA
ATOM      4  N   UNL     1       2.293   6.115  20.649  0.00  0.00    +0.000 N 
ATOM      5  H   UNL     1       3.049   6.178  21.323  0.00  0.00    +0.000 HD
BRANCH   4   6
ATOM      6  C   UNL     1       2.071   7.246  19.812  0.00  0.00    +0.000 A 
ATOM      7  C   UNL     1       2.592   7.278  18.511  0.00  0.00    +0.000 A 
ATOM      8  C   UNL     1       2.425   8.394  17.701  0.00  0.00    +0.000 A 
ATOM      9  C   UNL     1       1.723   9.492  18.180  0.00  0.00    +0.000 A 
ATOM     10  C   UNL     1       1.157   9.497  19.445  0.00  0.00    +0.000 A 
ATOM     11  N   UNL     1       0.492  10.608  19.804  0.00  0.00    +0.000 NA
ATOM     12  C   UNL     1      -0.067  10.650  21.028  0.00  0.00    +0.000 A 
ATOM     13  C   UNL     1       0.002   9.609  21.931  0.00  0.00    +0.000 A 
ATOM     14  C   UNL     1       0.696   8.460  21.556  0.00  0.00    +0.000 A 
ATOM     15  C   UNL     1       1.311   8.362  20.283  0.00  0.00    +0.000 A 
ENDBRANCH   4   6
ENDBRANCH   1   2
BRANCH   1  16
ATOM     16  S   UNL     1       3.126   2.539  20.869  0.00  0.00    +0.000 S 
BRANCH  16  20
ATOM     17  C   UNL     1       5.247   4.167  18.064  0.00  0.00    +0.000 A 
ATOM     18  N   UNL     1       5.613   4.889  19.113  0.00  0.00    +0.000 NA
ATOM     19  N   UNL     1       4.907   4.467  20.214  0.00  0.00    +0.000 NA
ATOM     20  C   UNL     1       4.168   3.453  19.839  0.00  0.00    +0.000 A 
ATOM     21  N   UNL     1       4.326   3.227  18.500  0.00  0.00    +0.000 N 
ATOM     22  C   UNL     1       3.686   2.211  17.703  0.00  0.00    +0.000 C 
BRANCH  17  27
ATOM     23  C   UNL     1       7.235   4.825  12.652  0.00  0.00    +0.000 C 
ATOM     24  C   UNL     1       6.698   4.663  14.046  0.00  0.00    +0.000 A 
ATOM     25  C   UNL     1       5.367   4.295  14.286  0.00  0.00    +0.000 A 
ATOM     26  C   UNL     1       4.899   4.150  15.598  0.00  0.00    +0.000 A 
ATOM     27  C   UNL     1       5.748   4.350  16.695  0.00  0.00    +0.000 A 
ATOM     28  C   UNL     1       7.084   4.679  16.439  0.00  0.00    +0.000 A 
ATOM     29  C   UNL     1       7.547   4.858  15.135  0.00  0.00    +0.000 A 
ENDBRANCH  17  27
ENDBRANCH  16  20
ENDBRANCH   1  16
TORSDOF 5
ENDMDL
MODEL 2
REMARK VINA RESULT:      -8.1      1.035      1.458
REMARK  Name = 
REMARK  7 active torsions:
REMARK  status: ('A' for Active; 'I' for Inactive)
REMARK    1  A    between atoms: C_1  and  C_2
REMARK    2  A    between atoms: C_5  and  C_6
REMARK    3  A    between atoms: C_9  and  S_10
REMARK    4  A    between atoms: S_10  and  C_11
REMARK    5  A    between atoms: C_11  and  C_12
REMARK    6  A    between atoms: N_14  and  C_15
REMARK    7  A    between atoms: N_25  and  C_26
REMARK                            x       y       z     vdW  Elec       q    Type
REMARK                         _______ _______ _______ _____ _____    ______ ____
ROOT
ATOM      1  C   UNL     1       2.624   4.269  21.382  0.00  0.00    +0.000 C 
ENDROOT
BRANCH   1   2
ATOM      2  C   UNL     1       1.829   5.342  20.658  0.00  0.00    +0.000 C 
ATOM      3  O   UNL     1       0.641   5.159  20.396  0.00  0.00    +0.000 OA
ATOM      4  N   UNL     1       2.575   6.461  20.304  0.00  0.00    +0.000 N 
ATOM      5  H   UNL     1       3.584   6.361  20.357  0.00  0.00    +0.000 HD
BRANCH   4   6
ATOM      6  C   UNL     1       2.068   7.630  19.667  0.00  0.00    +0.000 A 
ATOM      7  C   UNL     1       2.267   7.832  18.294  0.00  0.00    +0.000 A 
ATOM      8  C   UNL     1       1.821   8.990  17.670  0.00  0.00    +0.000 A 
ATOM      9  C   UNL     1       1.157   9.958  18.412  0.00  0.00    +0.000 A 
ATOM     10  C   UNL     1       0.903   9.790  19.763  0.00  0.00    +0.000 A 
ATOM     11  N   UNL     1       0.246  10.786  20.382  0.00  0.00    +0.000 NA
ATOM     12  C   UNL     1      -0.015  10.660  21.696  0.00  0.00    +0.000 A 
ATOM     13  C   UNL     1       0.352   9.557  22.440  0.00  0.00    +0.000 A 
ATOM     14  C   UNL     1       1.036   8.528  21.796  0.00  0.00    +0.000 A 
ATOM     15  C   UNL     1       1.344   8.610  20.416  0.00  0.00    +0.000 A 
ENDBRANCH   4   6
ENDBRANCH   1   2
BRANCH   1  16
ATOM     16  S   UNL     1       2.355   2.656  20.594  0.00  0.00    +0.000 S 
BRANCH  16  20
ATOM     17  C   UNL     1       3.817   3.654  17.147  0.00  0.00    +0.000 A 
ATOM     18  N   UNL     1       2.568   3.360  16.819  0.00  0.00    +0.000 NA
ATOM     19  N   UNL     1       1.900   2.933  17.942  0.00  0.00    +0.000 NA
ATOM     20  C   UNL     1       2.729   3.032  18.951  0.00  0.00    +0.000 A 
ATOM     21  N   UNL     1       3.950   3.464  18.514  0.00  0.00    +0.000 N 
ATOM     22  C   UNL     1       5.132   3.697  19.307  0.00  0.00    +0.000 C 
BRANCH  17  27
ATOM     23  C   UNL     1       7.944   5.374  13.447  0.00  0.00    +0.000 C 
ATOM     24  C   UNL     1       6.858   4.930  14.386  0.00  0.00    +0.000 A 
ATOM     25  C   UNL     1       5.787   4.138  13.954  0.00  0.00    +0.000 A 
ATOM     26  C   UNL     1       4.793   3.738  14.857  0.00  0.00    +0.000 A 
ATOM     27  C   UNL     1       4.855   4.105  16.208  0.00  0.00    +0.000 A 
ATOM     28  C   UNL     1       5.950   4.864  16.633  0.00  0.00    +0.000 A 
ATOM     29  C   UNL     1       6.926   5.292  15.732  0.00  0.00    +0.000 A 
ENDBRANCH  17  27
ENDBRANCH  16  20
ENDBRANCH   1  16
TORSDOF 5
ENDMDL
MODEL 3
REMARK VINA RESULT:      -7.9      6.730      8.097
REMARK  Name = 
REMARK  7 active torsions:
REMARK  status: ('A' for Active; 'I' for Inactive)
REMARK    1  A    between atoms: C_1  and  C_2
REMARK    2  A    between atoms: C_5  and  C_6
REMARK    3  A    between atoms: C_9  and  S_10
REMARK    4  A    between atoms: S_10  and  C_11
REMARK    5  A    between atoms: C_11  and  C_12
REMARK    6  A    between atoms: N_14  and  C_15
REMARK    7  A    between atoms: N_25  and  C_26
REMARK                            x       y       z     vdW  Elec       q    Type
REMARK                         _______ _______ _______ _____ _____    ______ ____
ROOT
ATOM      1  C   UNL     1       7.923   9.282  17.631  0.00  0.00    +0.000 C 
ENDROOT
BRANCH   1   2
ATOM      2  C   UNL     1       8.877  10.124  18.461  0.00  0.00    +0.000 C 
ATOM      3  O   UNL     1       9.342   9.677  19.508  0.00  0.00    +0.000 OA
ATOM      4  N   UNL     1       9.101  11.398  17.953  0.00  0.00    +0.000 N 
ATOM      5  H   UNL     1       8.459  11.712  17.232  0.00  0.00    +0.000 HD
BRANCH   4   6
ATOM      6  C   UNL     1       9.988  12.368  18.502  0.00  0.00    +0.000 A 
ATOM      7  C   UNL     1      11.266  11.993  18.940  0.00  0.00    +0.000 A 
ATOM      8  C   UNL     1      12.123  12.918  19.522  0.00  0.00    +0.000 A 
ATOM      9  C   UNL     1      11.715  14.238  19.663  0.00  0.00    +0.000 A 
ATOM     10  C   UNL     1      10.477  14.668  19.213  0.00  0.00    +0.000 A 
ATOM     11  N   UNL     1      10.189  15.968  19.392  0.00  0.00    +0.000 NA
ATOM     12  C   UNL     1       8.993  16.421  18.971  0.00  0.00    +0.000 A 
ATOM     13  C   UNL     1       8.050  15.620  18.360  0.00  0.00    +0.000 A 
ATOM     14  C   UNL     1       8.352  14.272  18.179  0.00  0.00    +0.000 A 
ATOM     15  C   UNL     1       9.592  13.738  18.609  0.00  0.00    +0.000 A 
ENDBRANCH   4   6
ENDBRANCH   1   2
BRANCH   1  16
ATOM     16  S   UNL     1       8.162   7.522  18.000  0.00  0.00    +0.000 S 
BRANCH  16  20
ATOM     17  C   UNL     1       4.792   5.699  17.422  0.00  0.00    +0.000 A 
ATOM     18  N   UNL     1       4.870   6.443  16.330  0.00  0.00    +0.000 NA
ATOM     19  N   UNL     1       6.010   7.207  16.390  0.00  0.00    +0.000 NA
ATOM     20  C   UNL     1       6.646   6.875  17.486  0.00  0.00    +0.000 A 
ATOM     21  N   UNL     1       5.924   5.945  18.182  0.00  0.00    +0.000 N 
ATOM     22  C   UNL     1       6.273   5.328  19.438  0.00  0.00    +0.000 C 
BRANCH  17  27
ATOM     23  C   UNL     1       0.469   2.061  18.749  0.00  0.00    +0.000 C 
ATOM     24  C   UNL     1       1.572   3.022  18.404  0.00  0.00    +0.000 A 
ATOM     25  C   UNL     1       1.561   4.349  18.854  0.00  0.00    +0.000 A 
ATOM     26  C   UNL     1       2.607   5.219  18.518  0.00  0.00    +0.000 A 
ATOM     27  C   UNL     1       3.690   4.780  17.743  0.00  0.00    +0.000 A 
ATOM     28  C   UNL     1       3.706   3.443  17.334  0.00  0.00    +0.000 A 
ATOM     29  C   UNL     1       2.650   2.581  17.639  0.00  0.00    +0.000 A 
ENDBRANCH  17  27
ENDBRANCH  16  20
ENDBRANCH   1  16
TORSDOF 5
ENDMDL
MODEL 4
REMARK VINA RESULT:      -7.8      1.923      6.525
REMARK  Name = 
REMARK  7 active torsions:
REMARK  status: ('A' for Active; 'I' for Inactive)
REMARK    1  A    between atoms: C_1  and  C_2
REMARK    2  A    between atoms: C_5  and  C_6
REMARK    3  A    between atoms: C_9  and  S_10
REMARK    4  A    between atoms: S_10  and  C_11
REMARK    5  A    between atoms: C_11  and  C_12
REMARK    6  A    between atoms: N_14  and  C_15
REMARK    7  A    between atoms: N_25  and  C_26
REMARK                            x       y       z     vdW  Elec       q    Type
REMARK                         _______ _______ _______ _____ _____    ______ ____
ROOT
ATOM      1  C   UNL     1       2.898   1.392  18.605  0.00  0.00    +0.000 C 
ENDROOT
BRANCH   1   2
ATOM      2  C   UNL     1       4.092   2.313  18.787  0.00  0.00    +0.000 C 
ATOM      3  O   UNL     1       4.789   2.227  19.797  0.00  0.00    +0.000 OA
ATOM      4  N   UNL     1       4.256   3.240  17.764  0.00  0.00    +0.000 N 
ATOM      5  H   UNL     1       3.467   3.359  17.136  0.00  0.00    +0.000 HD
BRANCH   4   6
ATOM      6  C   UNL     1       5.319   4.182  17.659  0.00  0.00    +0.000 A 
ATOM      7  C   UNL     1       5.742   4.902  18.785  0.00  0.00    +0.000 A 
ATOM      8  C   UNL     1       6.744   5.859  18.688  0.00  0.00    +0.000 A 
ATOM      9  C   UNL     1       7.347   6.100  17.460  0.00  0.00    +0.000 A 
ATOM     10  C   UNL     1       6.991   5.390  16.324  0.00  0.00    +0.000 A 
ATOM     11  N   UNL     1       7.644   5.698  15.191  0.00  0.00    +0.000 NA
ATOM     12  C   UNL     1       7.322   5.032  14.067  0.00  0.00    +0.000 A 
ATOM     13  C   UNL     1       6.360   4.044  14.019  0.00  0.00    +0.000 A 
ATOM     14  C   UNL     1       5.682   3.729  15.196  0.00  0.00    +0.000 A 
ATOM     15  C   UNL     1       5.975   4.403  16.407  0.00  0.00    +0.000 A 
ENDBRANCH   4   6
ENDBRANCH   1   2
BRANCH   1  16
ATOM     16  S   UNL     1       1.645   1.737  19.872  0.00  0.00    +0.000 S 
BRANCH  16  20
ATOM     17  C   UNL     1       2.114   5.582  19.948  0.00  0.00    +0.000 A 
ATOM     18  N   UNL     1       2.573   5.245  21.144  0.00  0.00    +0.000 NA
ATOM     19  N   UNL     1       2.437   3.888  21.308  0.00  0.00    +0.000 NA
ATOM     20  C   UNL     1       1.958   3.405  20.190  0.00  0.00    +0.000 A 
ATOM     21  N   UNL     1       1.720   4.420  19.305  0.00  0.00    +0.000 N 
ATOM     22  C   UNL     1       1.189   4.309  17.969  0.00  0.00    +0.000 C 
BRANCH  17  27
ATOM     23  C   UNL     1       1.921  11.007  17.897  0.00  0.00    +0.000 C 
ATOM     24  C   UNL     1       1.970   9.594  18.404  0.00  0.00    +0.000 A 
ATOM     25  C   UNL     1       2.618   8.576  17.692  0.00  0.00    +0.000 A 
ATOM     26  C   UNL     1       2.649   7.269  18.195  0.00  0.00    +0.000 A 
ATOM     27  C   UNL     1       2.050   6.954  19.423  0.00  0.00    +0.000 A 
ATOM     28  C   UNL     1       1.440   7.988  20.141  0.00  0.00    +0.000 A 
ATOM     29  C   UNL     1       1.378   9.285  19.628  0.00  0.00    +0.000 A 
ENDBRANCH  17  27
ENDBRANCH  16  20
ENDBRANCH   1  16
TORSDOF 5
ENDMDL
MODEL 5
REMARK VINA RESULT:      -7.7      3.854     10.397
REMARK  Name = 
REMARK  7 active torsions:
REMARK  status: ('A' for Active; 'I' for Inactive)
REMARK    1  A    between atoms: C_1  and  C_2
REMARK    2  A    between atoms: C_5  and  C_6
REMARK    3  A    between atoms: C_9  and  S_10
REMARK    4  A    between atoms: S_10  and  C_11
REMARK    5  A    between atoms: C_11  and  C_12
REMARK    6  A    between atoms: N_14  and  C_15
REMARK    7  A    between atoms: N_25  and  C_26
REMARK                            x       y       z     vdW  Elec       q    Type
REMARK                         _______ _______ _______ _____ _____    ______ ____
ROOT
ATOM      1  C   UNL     1       1.465   9.208  20.010  0.00  0.00    +0.000 C 
ENDROOT
BRANCH   1   2
ATOM      2  C   UNL     1       1.867   8.222  18.927  0.00  0.00    +0.000 C 
ATOM      3  O   UNL     1       1.627   8.471  17.746  0.00  0.00    +0.000 OA
ATOM      4  N   UNL     1       2.452   7.056  19.408  0.00  0.00    +0.000 N 
ATOM      5  H   UNL     1       2.352   6.882  20.403  0.00  0.00    +0.000 HD
BRANCH   4   6
ATOM      6  C   UNL     1       2.966   5.994  18.610  0.00  0.00    +0.000 A 
ATOM      7  C   UNL     1       4.030   6.223  17.726  0.00  0.00    +0.000 A 
ATOM      8  C   UNL     1       4.509   5.209  16.907  0.00  0.00    +0.000 A 
ATOM      9  C   UNL     1       3.938   3.945  16.971  0.00  0.00    +0.000 A 
ATOM     10  C   UNL     1       2.909   3.657  17.854  0.00  0.00    +0.000 A 
ATOM     11  N   UNL     1       2.436   2.400  17.840  0.00  0.00    +0.000 NA
ATOM     12  C   UNL     1       1.434   2.085  18.681  0.00  0.00    +0.000 A 
ATOM     13  C   UNL     1       0.871   2.985  19.563  0.00  0.00    +0.000 A 
ATOM     14  C   UNL     1       1.363   4.289  19.573  0.00  0.00    +0.000 A 
ATOM     15  C   UNL     1       2.412   4.679  18.704  0.00  0.00    +0.000 A 
ENDBRANCH   4   6
ENDBRANCH   1   2
BRANCH   1  16
ATOM     16  S   UNL     1      -0.147   9.944  19.616  0.00  0.00    +0.000 S 
BRANCH  16  20
ATOM     17  C   UNL     1      -1.320  12.112  22.605  0.00  0.00    +0.000 A 
ATOM     18  N   UNL     1      -0.674  11.141  23.232  0.00  0.00    +0.000 NA
ATOM     19  N   UNL     1      -0.218  10.236  22.304  0.00  0.00    +0.000 NA
ATOM     20  C   UNL     1      -0.535  10.696  21.120  0.00  0.00    +0.000 A 
ATOM     21  N   UNL     1      -1.241  11.861  21.244  0.00  0.00    +0.000 N 
ATOM     22  C   UNL     1      -1.776  12.677  20.183  0.00  0.00    +0.000 C 
BRANCH  17  27
ATOM     23  C   UNL     1      -3.980  16.605  25.137  0.00  0.00    +0.000 C 
ATOM     24  C   UNL     1      -3.308  15.426  24.492  0.00  0.00    +0.000 A 
ATOM     25  C   UNL     1      -4.035  14.309  24.059  0.00  0.00    +0.000 A 
ATOM     26  C   UNL     1      -3.378  13.228  23.458  0.00  0.00    +0.000 A 
ATOM     27  C   UNL     1      -1.990  13.244  23.262  0.00  0.00    +0.000 A 
ATOM     28  C   UNL     1      -1.283  14.382  23.664  0.00  0.00    +0.000 A 
ATOM     29  C   UNL     1      -1.928  15.449  24.293  0.00  0.00    +0.000 A 
ENDBRANCH  17  27
ENDBRANCH  16  20
ENDBRANCH   1  16
TORSDOF 5
ENDMDL
MODEL 6
REMARK VINA RESULT:      -7.7      3.792      8.987
REMARK  Name = 
REMARK  7 active torsions:
REMARK  status: ('A' for Active; 'I' for Inactive)
REMARK    1  A    between atoms: C_1  and  C_2
REMARK    2  A    between atoms: C_5  and  C_6
REMARK    3  A    between atoms: C_9  and  S_10
REMARK    4  A    between atoms: S_10  and  C_11
REMARK    5  A    between atoms: C_11  and  C_12
REMARK    6  A    between atoms: N_14  and  C_15
REMARK    7  A    between atoms: N_25  and  C_26
REMARK                            x       y       z     vdW  Elec       q    Type
REMARK                         _______ _______ _______ _____ _____    ______ ____
ROOT
ATOM      1  C   UNL     1       1.302   8.794  21.473  0.00  0.00    +0.000 C 
ENDROOT
BRANCH   1   2
ATOM      2  C   UNL     1       1.734   8.109  20.187  0.00  0.00    +0.000 C 
ATOM      3  O   UNL     1       1.617   8.691  19.109  0.00  0.00    +0.000 OA
ATOM      4  N   UNL     1       2.195   6.810  20.363  0.00  0.00    +0.000 N 
ATOM      5  H   UNL     1       1.995   6.381  21.261  0.00  0.00    +0.000 HD
BRANCH   4   6
ATOM      6  C   UNL     1       2.708   5.964  19.337  0.00  0.00    +0.000 A 
ATOM      7  C   UNL     1       3.718   6.423  18.480  0.00  0.00    +0.000 A 
ATOM      8  C   UNL     1       4.193   5.627  17.445  0.00  0.00    +0.000 A 
ATOM      9  C   UNL     1       3.671   4.354  17.262  0.00  0.00    +0.000 A 
ATOM     10  C   UNL     1       2.698   3.840  18.104  0.00  0.00    +0.000 A 
ATOM     11  N   UNL     1       2.270   2.594  17.841  0.00  0.00    +0.000 NA
ATOM     12  C   UNL     1       1.321   2.063  18.635  0.00  0.00    +0.000 A 
ATOM     13  C   UNL     1       0.771   2.730  19.710  0.00  0.00    +0.000 A 
ATOM     14  C   UNL     1       1.215   4.024  19.978  0.00  0.00    +0.000 A 
ATOM     15  C   UNL     1       2.206   4.635  19.171  0.00  0.00    +0.000 A 
ENDBRANCH   4   6
ENDBRANCH   1   2
BRANCH   1  16
ATOM     16  S   UNL     1      -0.378   9.456  21.292  0.00  0.00    +0.000 S 
BRANCH  16  20
ATOM     17  C   UNL     1       0.316  13.216  20.660  0.00  0.00    +0.000 A 
ATOM     18  N   UNL     1       0.359  13.167  21.983  0.00  0.00    +0.000 NA
ATOM     19  N   UNL     1       0.083  11.884  22.392  0.00  0.00    +0.000 NA
ATOM     20  C   UNL     1      -0.061  11.153  21.315  0.00  0.00    +0.000 A 
ATOM     21  N   UNL     1       0.058  11.934  20.199  0.00  0.00    +0.000 N 
ATOM     22  C   UNL     1      -0.041  11.515  18.823  0.00  0.00    +0.000 C 
BRANCH  17  27
ATOM     23  C   UNL     1       1.082  17.964  17.413  0.00  0.00    +0.000 C 
ATOM     24  C   UNL     1       0.865  16.746  18.266  0.00  0.00    +0.000 A 
ATOM     25  C   UNL     1      -0.406  16.392  18.737  0.00  0.00    +0.000 A 
ATOM     26  C   UNL     1      -0.574  15.248  19.528  0.00  0.00    +0.000 A 
ATOM     27  C   UNL     1       0.515  14.427  19.851  0.00  0.00    +0.000 A 
ATOM     28  C   UNL     1       1.771  14.772  19.342  0.00  0.00    +0.000 A 
ATOM     29  C   UNL     1       1.950  15.928  18.580  0.00  0.00    +0.000 A 
ENDBRANCH  17  27
ENDBRANCH  16  20
ENDBRANCH   1  16
TORSDOF 5
ENDMDL
MODEL 7
REMARK VINA RESULT:      -7.6      3.677     10.389
REMARK  Name = 
REMARK  7 active torsions:
REMARK  status: ('A' for Active; 'I' for Inactive)
REMARK    1  A    between atoms: C_1  and  C_2
REMARK    2  A    between atoms: C_5  and  C_6
REMARK    3  A    between atoms: C_9  and  S_10
REMARK    4  A    between atoms: S_10  and  C_11
REMARK    5  A    between atoms: C_11  and  C_12
REMARK    6  A    between atoms: N_14  and  C_15
REMARK    7  A    between atoms: N_25  and  C_26
REMARK                            x       y       z     vdW  Elec       q    Type
REMARK                         _______ _______ _______ _____ _____    ______ ____
ROOT
ATOM      1  C   UNL     1       1.359   8.295  20.804  0.00  0.00    +0.000 C 
ENDROOT
BRANCH   1   2
ATOM      2  C   UNL     1       2.125   7.504  19.758  0.00  0.00    +0.000 C 
ATOM      3  O   UNL     1       2.112   7.864  18.581  0.00  0.00    +0.000 OA
ATOM      4  N   UNL     1       2.754   6.367  20.251  0.00  0.00    +0.000 N 
ATOM      5  H   UNL     1       2.468   6.062  21.177  0.00  0.00    +0.000 HD
BRANCH   4   6
ATOM      6  C   UNL     1       3.578   5.480  19.500  0.00  0.00    +0.000 A 
ATOM      7  C   UNL     1       4.914   5.807  19.235  0.00  0.00    +0.000 A 
ATOM      8  C   UNL     1       5.715   4.976  18.463  0.00  0.00    +0.000 A 
ATOM      9  C   UNL     1       5.190   3.795  17.954  0.00  0.00    +0.000 A 
ATOM     10  C   UNL     1       3.885   3.408  18.217  0.00  0.00    +0.000 A 
ATOM     11  N   UNL     1       3.482   2.243  17.682  0.00  0.00    +0.000 NA
ATOM     12  C   UNL     1       2.220   1.837  17.912  0.00  0.00    +0.000 A 
ATOM     13  C   UNL     1       1.320   2.552  18.676  0.00  0.00    +0.000 A 
ATOM     14  C   UNL     1       1.741   3.761  19.226  0.00  0.00    +0.000 A 
ATOM     15  C   UNL     1       3.055   4.242  19.011  0.00  0.00    +0.000 A 
ENDBRANCH   4   6
ENDBRANCH   1   2
BRANCH   1  16
ATOM     16  S   UNL     1       0.718   9.830  20.081  0.00  0.00    +0.000 S 
BRANCH  16  20
ATOM     17  C   UNL     1      -1.116  11.958  22.750  0.00  0.00    +0.000 A 
ATOM     18  N   UNL     1      -0.612  10.988  23.498  0.00  0.00    +0.000 NA
ATOM     19  N   UNL     1       0.049  10.097  22.688  0.00  0.00    +0.000 NA
ATOM     20  C   UNL     1      -0.004  10.564  21.466  0.00  0.00    +0.000 A 
ATOM     21  N   UNL     1      -0.734  11.721  21.439  0.00  0.00    +0.000 N 
ATOM     22  C   UNL     1      -1.032  12.540  20.290  0.00  0.00    +0.000 C 
BRANCH  17  27
ATOM     23  C   UNL     1      -4.314  16.353  24.782  0.00  0.00    +0.000 C 
ATOM     24  C   UNL     1      -3.469  15.232  24.247  0.00  0.00    +0.000 A 
ATOM     25  C   UNL     1      -2.071  15.314  24.211  0.00  0.00    +0.000 A 
ATOM     26  C   UNL     1      -1.313  14.248  23.709  0.00  0.00    +0.000 A 
ATOM     27  C   UNL     1      -1.929  13.077  23.249  0.00  0.00    +0.000 A 
ATOM     28  C   UNL     1      -3.323  12.994  23.326  0.00  0.00    +0.000 A 
ATOM     29  C   UNL     1      -4.086  14.065  23.795  0.00  0.00    +0.000 A 
ENDBRANCH  17  27
ENDBRANCH  16  20
ENDBRANCH   1  16
TORSDOF 5
ENDMDL
MODEL 8
REMARK VINA RESULT:      -7.6      3.859     10.415
REMARK  Name = 
REMARK  7 active torsions:
REMARK  status: ('A' for Active; 'I' for Inactive)
REMARK    1  A    between atoms: C_1  and  C_2
REMARK    2  A    between atoms: C_5  and  C_6
REMARK    3  A    between atoms: C_9  and  S_10
REMARK    4  A    between atoms: S_10  and  C_11
REMARK    5  A    between atoms: C_11  and  C_12
REMARK    6  A    between atoms: N_14  and  C_15
REMARK    7  A    between atoms: N_25  and  C_26
REMARK                            x       y       z     vdW  Elec       q    Type
REMARK                         _______ _______ _______ _____ _____    ______ ____
ROOT
ATOM      1  C   UNL     1       1.147   9.367  19.542  0.00  0.00    +0.000 C 
ENDROOT
BRANCH   1   2
ATOM      2  C   UNL     1       1.930   8.567  18.515  0.00  0.00    +0.000 C 
ATOM      3  O   UNL     1       2.111   9.023  17.386  0.00  0.00    +0.000 OA
ATOM      4  N   UNL     1       2.342   7.317  18.960  0.00  0.00    +0.000 N 
ATOM      5  H   UNL     1       1.905   6.978  19.812  0.00  0.00    +0.000 HD
BRANCH   4   6
ATOM      6  C   UNL     1       3.132   6.390  18.222  0.00  0.00    +0.000 A 
ATOM      7  C   UNL     1       4.265   6.825  17.522  0.00  0.00    +0.000 A 
ATOM      8  C   UNL     1       5.017   5.941  16.758  0.00  0.00    +0.000 A 
ATOM      9  C   UNL     1       4.651   4.603  16.695  0.00  0.00    +0.000 A 
ATOM     10  C   UNL     1       3.561   4.115  17.398  0.00  0.00    +0.000 A 
ATOM     11  N   UNL     1       3.300   2.803  17.272  0.00  0.00    +0.000 NA
ATOM     12  C   UNL     1       2.246   2.294  17.936  0.00  0.00    +0.000 A 
ATOM     13  C   UNL     1       1.423   3.050  18.746  0.00  0.00    +0.000 A 
ATOM     14  C   UNL     1       1.694   4.411  18.871  0.00  0.00    +0.000 A 
ATOM     15  C   UNL     1       2.785   5.002  18.189  0.00  0.00    +0.000 A 
ENDBRANCH   4   6
ENDBRANCH   1   2
BRANCH   1  16
ATOM     16  S   UNL     1       0.919  11.071  18.964  0.00  0.00    +0.000 S 
BRANCH  16  20
ATOM     17  C   UNL     1      -1.319  12.696  21.678  0.00  0.00    +0.000 A 
ATOM     18  N   UNL     1      -0.158  12.628  22.311  0.00  0.00    +0.000 NA
ATOM     19  N   UNL     1       0.763  12.022  21.491  0.00  0.00    +0.000 NA
ATOM     20  C   UNL     1       0.172  11.785  20.347  0.00  0.00    +0.000 A 
ATOM     21  N   UNL     1      -1.138  12.171  20.408  0.00  0.00    +0.000 N 
ATOM     22  C   UNL     1      -2.128  12.075  19.364  0.00  0.00    +0.000 C 
BRANCH  17  27
ATOM     23  C   UNL     1      -6.258  14.815  23.866  0.00  0.00    +0.000 C 
ATOM     24  C   UNL     1      -4.977  14.252  23.321  0.00  0.00    +0.000 A 
ATOM     25  C   UNL     1      -4.593  12.926  23.560  0.00  0.00    +0.000 A 
ATOM     26  C   UNL     1      -3.393  12.431  23.033  0.00  0.00    +0.000 A 
ATOM     27  C   UNL     1      -2.562  13.240  22.245  0.00  0.00    +0.000 A 
ATOM     28  C   UNL     1      -2.977  14.549  21.983  0.00  0.00    +0.000 A 
ATOM     29  C   UNL     1      -4.156  15.058  22.532  0.00  0.00    +0.000 A 
ENDBRANCH  17  27
ENDBRANCH  16  20
ENDBRANCH   1  16
TORSDOF 5
ENDMDL
MODEL 9
REMARK VINA RESULT:      -7.6      3.990      6.058
REMARK  Name = 
REMARK  7 active torsions:
REMARK  status: ('A' for Active; 'I' for Inactive)
REMARK    1  A    between atoms: C_1  and  C_2
REMARK    2  A    between atoms: C_5  and  C_6
REMARK    3  A    between atoms: C_9  and  S_10
REMARK    4  A    between atoms: S_10  and  C_11
REMARK    5  A    between atoms: C_11  and  C_12
REMARK    6  A    between atoms: N_14  and  C_15
REMARK    7  A    between atoms: N_25  and  C_26
REMARK                            x       y       z     vdW  Elec       q    Type
REMARK                         _______ _______ _______ _____ _____    ______ ____
ROOT
ATOM      1  C   UNL     1       0.772  11.294  20.857  0.00  0.00    +0.000 C 
ENDROOT
BRANCH   1   2
ATOM      2  C   UNL     1      -0.428  12.000  20.249  0.00  0.00    +0.000 C 
ATOM      3  O   UNL     1      -0.449  13.228  20.177  0.00  0.00    +0.000 OA
ATOM      4  N   UNL     1      -1.455  11.147  19.863  0.00  0.00    +0.000 N 
ATOM      5  H   UNL     1      -1.404  10.196  20.215  0.00  0.00    +0.000 HD
BRANCH   4   6
ATOM      6  C   UNL     1      -2.665  11.539  19.222  0.00  0.00    +0.000 A 
ATOM      7  C   UNL     1      -3.600  12.334  19.899  0.00  0.00    +0.000 A 
ATOM      8  C   UNL     1      -4.806  12.684  19.304  0.00  0.00    +0.000 A 
ATOM      9  C   UNL     1      -5.086  12.251  18.014  0.00  0.00    +0.000 A 
ATOM     10  C   UNL     1      -4.180  11.495  17.288  0.00  0.00    +0.000 A 
ATOM     11  N   UNL     1      -4.550  11.138  16.047  0.00  0.00    +0.000 NA
ATOM     12  C   UNL     1      -3.697  10.398  15.314  0.00  0.00    +0.000 A 
ATOM     13  C   UNL     1      -2.459   9.994  15.769  0.00  0.00    +0.000 A 
ATOM     14  C   UNL     1      -2.080  10.364  17.058  0.00  0.00    +0.000 A 
ATOM     15  C   UNL     1      -2.940  11.135  17.878  0.00  0.00    +0.000 A 
ENDBRANCH   4   6
ENDBRANCH   1   2
BRANCH   1  16
ATOM     16  S   UNL     1       0.475   9.505  20.922  0.00  0.00    +0.000 S 
BRANCH  16  20
ATOM     17  C   UNL     1       2.577   7.799  18.150  0.00  0.00    +0.000 A 
ATOM     18  N   UNL     1       2.178   8.897  17.528  0.00  0.00    +0.000 NA
ATOM     19  N   UNL     1       1.365   9.617  18.370  0.00  0.00    +0.000 NA
ATOM     20  C   UNL     1       1.329   8.983  19.515  0.00  0.00    +0.000 A 
ATOM     21  N   UNL     1       2.057   7.828  19.435  0.00  0.00    +0.000 N 
ATOM     22  C   UNL     1       2.263   6.850  20.473  0.00  0.00    +0.000 C 
BRANCH  17  27
ATOM     23  C   UNL     1       5.892   3.678  15.762  0.00  0.00    +0.000 C 
ATOM     24  C   UNL     1       5.055   4.759  16.384  0.00  0.00    +0.000 A 
ATOM     25  C   UNL     1       5.366   6.116  16.226  0.00  0.00    +0.000 A 
ATOM     26  C   UNL     1       4.561   7.100  16.817  0.00  0.00    +0.000 A 
ATOM     27  C   UNL     1       3.425   6.753  17.560  0.00  0.00    +0.000 A 
ATOM     28  C   UNL     1       3.105   5.396  17.677  0.00  0.00    +0.000 A 
ATOM     29  C   UNL     1       3.922   4.410  17.118  0.00  0.00    +0.000 A 
ENDBRANCH  17  27
ENDBRANCH  16  20
ENDBRANCH   1  16
TORSDOF 5
ENDMDL
