MODEL 1
REMARK VINA RESULT:      -8.8      0.000      0.000
REMARK  Name = 
REMARK  5 active torsions:
REMARK  status: ('A' for Active; 'I' for Inactive)
REMARK    1  A    between atoms: C_2  and  C_3
REMARK    2  A    between atoms: C_3  and  C_4
REMARK    3  A    between atoms: N_13  and  C_14
REMARK    4  A    between atoms: C_19  and  N_20
REMARK    5  A    between atoms: C_21  and  C_23
REMARK                            x       y       z     vdW  Elec       q    Type
REMARK                         _______ _______ _______ _____ _____    ______ ____
ROOT
ATOM      1  C   UNL     1       8.997  10.209  18.458  0.00  0.00    +0.000 A 
ATOM      2  C   UNL     1      10.039  10.903  17.839  0.00  0.00    +0.000 A 
ATOM      3  C   UNL     1      10.922  11.673  18.589  0.00  0.00    +0.000 A 
ATOM      4  C   UNL     1      10.747  11.797  19.960  0.00  0.00    +0.000 A 
ATOM      5  F   UNL     1      11.728  12.415  20.627  0.00  0.00    +0.000 F 
ATOM      6  C   UNL     1       9.648  11.216  20.605  0.00  0.00    +0.000 A 
ATOM      7  C   UNL     1       8.783  10.402  19.839  0.00  0.00    +0.000 A 
ENDROOT
BRANCH   1  10
ATOM      8  O   UNL     1       8.551   7.352  18.912  0.00  0.00    +0.000 OA
ATOM      9  C   UNL     1       8.018   7.964  17.988  0.00  0.00    +0.000 C 
ATOM     10  N   UNL     1       8.155   9.328  17.734  0.00  0.00    +0.000 N 
ATOM     11  H   UNL     1       7.469   9.739  17.111  0.00  0.00    +0.000 HD
BRANCH   9  12
ATOM     12  C   UNL     1       7.160   7.212  16.986  0.00  0.00    +0.000 C 
BRANCH  12  13
ATOM     13  C   UNL     1       6.465   6.019  17.556  0.00  0.00    +0.000 A 
ATOM     14  C   UNL     1       7.071   4.844  17.957  0.00  0.00    +0.000 A 
ATOM     15  N   UNL     1       6.113   4.021  18.482  0.00  0.00    +0.000 N 
ATOM     16  C   UNL     1       4.882   4.629  18.432  0.00  0.00    +0.000 A 
ATOM     17  C   UNL     1       3.631   4.163  18.857  0.00  0.00    +0.000 A 
ATOM     18  C   UNL     1       2.535   5.016  18.706  0.00  0.00    +0.000 A 
ATOM     19  C   UNL     1       2.689   6.287  18.156  0.00  0.00    +0.000 A 
ATOM     20  C   UNL     1       3.947   6.737  17.736  0.00  0.00    +0.000 A 
ATOM     21  C   UNL     1       5.069   5.891  17.867  0.00  0.00    +0.000 A 
ATOM     22  H   UNL     1       6.280   3.106  18.880  0.00  0.00    +0.000 HD
ENDBRANCH  12  13
ENDBRANCH   9  12
ENDBRANCH   1  10
BRANCH   6  23
ATOM     23  N   UNL     1       9.346  11.397  21.987  0.00  0.00    +0.000 N 
ATOM     24  C   UNL     1       8.703  12.494  22.551  0.00  0.00    +0.000 C 
ATOM     25  O   UNL     1       8.275  13.470  21.947  0.00  0.00    +0.000 OA
ATOM     26  H   UNL     1       9.488  10.595  22.583  0.00  0.00    +0.000 HD
BRANCH  24  27
ATOM     27  C   UNL     1       8.463  12.359  24.066  0.00  0.00    +0.000 C 
ATOM     28  C   UNL     1       7.171  11.566  24.312  0.00  0.00    +0.000 C 
ATOM     29  C   UNL     1       6.788  11.511  25.787  0.00  0.00    +0.000 C 
ATOM     30  C   UNL     1       6.685  12.905  26.395  0.00  0.00    +0.000 C 
ATOM     31  C   UNL     1       7.979  13.685  26.202  0.00  0.00    +0.000 C 
ATOM     32  C   UNL     1       8.374  13.751  24.728  0.00  0.00    +0.000 C 
ENDBRANCH  24  27
ENDBRANCH   6  23
TORSDOF 5
ENDMDL
MODEL 2
REMARK VINA RESULT:      -8.5      6.344      7.907
REMARK  Name = 
REMARK  5 active torsions:
REMARK  status: ('A' for Active; 'I' for Inactive)
REMARK    1  A    between atoms: C_2  and  C_3
REMARK    2  A    between atoms: C_3  and  C_4
REMARK    3  A    between atoms: N_13  and  C_14
REMARK    4  A    between atoms: C_19  and  N_20
REMARK    5  A    between atoms: C_21  and  C_23
REMARK                            x       y       z     vdW  Elec       q    Type
REMARK                         _______ _______ _______ _____ _____    ______ ____
ROOT
ATOM      1  C   UNL     1       2.550   6.145  18.670  0.00  0.00    +0.000 A 
ATOM      2  C   UNL     1       2.204   5.636  19.923  0.00  0.00    +0.000 A 
ATOM      3  C   UNL     1       1.612   6.454  20.881  0.00  0.00    +0.000 A 
ATOM      4  C   UNL     1       1.403   7.800  20.616  0.00  0.00    +0.000 A 
ATOM      5  F   UNL     1       0.683   8.475  21.518  0.00  0.00    +0.000 F 
ATOM      6  C   UNL     1       1.842   8.378  19.418  0.00  0.00    +0.000 A 
ATOM      7  C   UNL     1       2.403   7.528  18.437  0.00  0.00    +0.000 A 
ENDROOT
BRANCH   1  10
ATOM      8  O   UNL     1       4.754   4.223  18.802  0.00  0.00    +0.000 OA
ATOM      9  C   UNL     1       4.127   4.438  17.766  0.00  0.00    +0.000 C 
ATOM     10  N   UNL     1       3.047   5.309  17.638  0.00  0.00    +0.000 N 
ATOM     11  H   UNL     1       2.475   5.195  16.808  0.00  0.00    +0.000 HD
BRANCH   9  12
ATOM     12  C   UNL     1       4.551   3.754  16.477  0.00  0.00    +0.000 C 
BRANCH  12  13
ATOM     13  C   UNL     1       5.661   4.448  15.758  0.00  0.00    +0.000 A 
ATOM     14  C   UNL     1       6.549   5.348  16.316  0.00  0.00    +0.000 A 
ATOM     15  N   UNL     1       7.455   5.712  15.357  0.00  0.00    +0.000 N 
ATOM     16  C   UNL     1       7.180   5.071  14.174  0.00  0.00    +0.000 A 
ATOM     17  C   UNL     1       7.842   5.138  12.940  0.00  0.00    +0.000 A 
ATOM     18  C   UNL     1       7.353   4.346  11.899  0.00  0.00    +0.000 A 
ATOM     19  C   UNL     1       6.251   3.516  12.087  0.00  0.00    +0.000 A 
ATOM     20  C   UNL     1       5.602   3.461  13.327  0.00  0.00    +0.000 A 
ATOM     21  C   UNL     1       6.067   4.259  14.393  0.00  0.00    +0.000 A 
ATOM     22  H   UNL     1       8.236   6.339  15.498  0.00  0.00    +0.000 HD
ENDBRANCH  12  13
ENDBRANCH   9  12
ENDBRANCH   1  10
BRANCH   6  23
ATOM     23  N   UNL     1       1.763   9.772  19.128  0.00  0.00    +0.000 N 
ATOM     24  C   UNL     1       0.638  10.456  18.682  0.00  0.00    +0.000 C 
ATOM     25  O   UNL     1      -0.471   9.973  18.487  0.00  0.00    +0.000 OA
ATOM     26  H   UNL     1       2.557  10.330  19.405  0.00  0.00    +0.000 HD
BRANCH  24  27
ATOM     27  C   UNL     1       0.857  11.972  18.525  0.00  0.00    +0.000 C 
ATOM     28  C   UNL     1       1.814  12.468  19.618  0.00  0.00    +0.000 C 
ATOM     29  C   UNL     1       1.971  13.985  19.618  0.00  0.00    +0.000 C 
ATOM     30  C   UNL     1       0.624  14.690  19.725  0.00  0.00    +0.000 C 
ATOM     31  C   UNL     1      -0.319  14.244  18.616  0.00  0.00    +0.000 C 
ATOM     32  C   UNL     1      -0.488  12.727  18.605  0.00  0.00    +0.000 C 
ENDBRANCH  24  27
ENDBRANCH   6  23
TORSDOF 5
ENDMDL
MODEL 3
REMARK VINA RESULT:      -8.4      3.663      9.241
REMARK  Name = 
REMARK  5 active torsions:
REMARK  status: ('A' for Active; 'I' for Inactive)
REMARK    1  A    between atoms: C_2  and  C_3
REMARK    2  A    between atoms: C_3  and  C_4
REMARK    3  A    between atoms: N_13  and  C_14
REMARK    4  A    between atoms: C_19  and  N_20
REMARK    5  A    between atoms: C_21  and  C_23
REMARK                            x       y       z     vdW  Elec       q    Type
REMARK                         _______ _______ _______ _____ _____    ______ ____
ROOT
ATOM      1  C   UNL     1       7.483   6.851  17.837  0.00  0.00    +0.000 A 
ATOM      2  C   UNL     1       7.793   6.494  16.524  0.00  0.00    +0.000 A 
ATOM      3  C   UNL     1       6.893   5.760  15.758  0.00  0.00    +0.000 A 
ATOM      4  C   UNL     1       5.694   5.334  16.309  0.00  0.00    +0.000 A 
ATOM      5  F   UNL     1       4.817   4.781  15.464  0.00  0.00    +0.000 F 
ATOM      6  C   UNL     1       5.394   5.567  17.658  0.00  0.00    +0.000 A 
ATOM      7  C   UNL     1       6.298   6.349  18.413  0.00  0.00    +0.000 A 
ENDROOT
BRANCH   1  10
ATOM      8  O   UNL     1       7.770   9.759  17.668  0.00  0.00    +0.000 OA
ATOM      9  C   UNL     1       8.439   9.074  18.440  0.00  0.00    +0.000 C 
ATOM     10  N   UNL     1       8.330   7.694  18.600  0.00  0.00    +0.000 N 
ATOM     11  H   UNL     1       8.750   7.306  19.438  0.00  0.00    +0.000 HD
BRANCH   9  12
ATOM     12  C   UNL     1       9.517   9.731  19.285  0.00  0.00    +0.000 C 
BRANCH  12  13
ATOM     13  C   UNL     1       9.417  11.220  19.345  0.00  0.00    +0.000 A 
ATOM     14  C   UNL     1       8.733  11.948  20.301  0.00  0.00    +0.000 A 
ATOM     15  N   UNL     1       8.931  13.279  20.055  0.00  0.00    +0.000 N 
ATOM     16  C   UNL     1       9.731  13.445  18.950  0.00  0.00    +0.000 A 
ATOM     17  C   UNL     1      10.192  14.621  18.344  0.00  0.00    +0.000 A 
ATOM     18  C   UNL     1      11.026  14.493  17.231  0.00  0.00    +0.000 A 
ATOM     19  C   UNL     1      11.389  13.237  16.750  0.00  0.00    +0.000 A 
ATOM     20  C   UNL     1      10.918  12.071  17.369  0.00  0.00    +0.000 A 
ATOM     21  C   UNL     1      10.065  12.172  18.487  0.00  0.00    +0.000 A 
ATOM     22  H   UNL     1       8.569  14.038  20.616  0.00  0.00    +0.000 HD
ENDBRANCH  12  13
ENDBRANCH   9  12
ENDBRANCH   1  10
BRANCH   6  23
ATOM     23  N   UNL     1       4.236   5.060  18.317  0.00  0.00    +0.000 N 
ATOM     24  C   UNL     1       3.062   5.760  18.570  0.00  0.00    +0.000 C 
ATOM     25  O   UNL     1       2.826   6.918  18.247  0.00  0.00    +0.000 OA
ATOM     26  H   UNL     1       4.221   4.065  18.490  0.00  0.00    +0.000 HD
BRANCH  24  27
ATOM     27  C   UNL     1       1.967   4.910  19.242  0.00  0.00    +0.000 C 
ATOM     28  C   UNL     1       2.446   4.460  20.630  0.00  0.00    +0.000 C 
ATOM     29  C   UNL     1       1.476   3.495  21.302  0.00  0.00    +0.000 C 
ATOM     30  C   UNL     1       1.180   2.288  20.421  0.00  0.00    +0.000 C 
ATOM     31  C   UNL     1       0.655   2.719  19.058  0.00  0.00    +0.000 C 
ATOM     32  C   UNL     1       1.619   3.684  18.371  0.00  0.00    +0.000 C 
ENDBRANCH  24  27
ENDBRANCH   6  23
TORSDOF 5
ENDMDL
MODEL 4
REMARK VINA RESULT:      -8.3      6.633      9.444
REMARK  Name = 
REMARK  5 active torsions:
REMARK  status: ('A' for Active; 'I' for Inactive)
REMARK    1  A    between atoms: C_2  and  C_3
REMARK    2  A    between atoms: C_3  and  C_4
REMARK    3  A    between atoms: N_13  and  C_14
REMARK    4  A    between atoms: C_19  and  N_20
REMARK    5  A    between atoms: C_21  and  C_23
REMARK                            x       y       z     vdW  Elec       q    Type
REMARK                         _______ _______ _______ _____ _____    ______ ____
ROOT
ATOM      1  C   UNL     1       1.379   9.256  17.954  0.00  0.00    +0.000 A 
ATOM      2  C   UNL     1       2.307  10.293  18.055  0.00  0.00    +0.000 A 
ATOM      3  C   UNL     1       1.916  11.554  18.494  0.00  0.00    +0.000 A 
ATOM      4  C   UNL     1       0.584  11.806  18.792  0.00  0.00    +0.000 A 
ATOM      5  F   UNL     1       0.319  12.986  19.363  0.00  0.00    +0.000 F 
ATOM      6  C   UNL     1      -0.399  10.829  18.593  0.00  0.00    +0.000 A 
ATOM      7  C   UNL     1       0.018   9.541  18.186  0.00  0.00    +0.000 A 
ENDROOT
BRANCH   1  10
ATOM      8  O   UNL     1       2.168   7.091  19.761  0.00  0.00    +0.000 OA
ATOM      9  C   UNL     1       2.168   6.963  18.538  0.00  0.00    +0.000 C 
ATOM     10  N   UNL     1       1.772   7.935  17.620  0.00  0.00    +0.000 N 
ATOM     11  H   UNL     1       1.581   7.610  16.679  0.00  0.00    +0.000 HD
BRANCH   9  12
ATOM     12  C   UNL     1       2.673   5.671  17.919  0.00  0.00    +0.000 C 
BRANCH  12  13
ATOM     13  C   UNL     1       4.027   5.258  18.394  0.00  0.00    +0.000 A 
ATOM     14  C   UNL     1       4.322   4.105  19.097  0.00  0.00    +0.000 A 
ATOM     15  N   UNL     1       5.675   4.051  19.292  0.00  0.00    +0.000 N 
ATOM     16  C   UNL     1       6.281   5.151  18.734  0.00  0.00    +0.000 A 
ATOM     17  C   UNL     1       7.636   5.506  18.690  0.00  0.00    +0.000 A 
ATOM     18  C   UNL     1       7.976   6.685  18.024  0.00  0.00    +0.000 A 
ATOM     19  C   UNL     1       6.999   7.473  17.421  0.00  0.00    +0.000 A 
ATOM     20  C   UNL     1       5.649   7.104  17.474  0.00  0.00    +0.000 A 
ATOM     21  C   UNL     1       5.276   5.924  18.150  0.00  0.00    +0.000 A 
ATOM     22  H   UNL     1       6.171   3.301  19.753  0.00  0.00    +0.000 HD
ENDBRANCH  12  13
ENDBRANCH   9  12
ENDBRANCH   1  10
BRANCH   6  23
ATOM     23  N   UNL     1      -1.796  11.054  18.770  0.00  0.00    +0.000 N 
ATOM     24  C   UNL     1      -2.729  11.262  17.761  0.00  0.00    +0.000 C 
ATOM     25  O   UNL     1      -2.504  11.263  16.557  0.00  0.00    +0.000 OA
ATOM     26  H   UNL     1      -2.156  10.912  19.702  0.00  0.00    +0.000 HD
BRANCH  24  27
ATOM     27  C   UNL     1      -4.174  11.409  18.274  0.00  0.00    +0.000 C 
ATOM     28  C   UNL     1      -5.075  11.910  17.136  0.00  0.00    +0.000 C 
ATOM     29  C   UNL     1      -6.494  12.217  17.602  0.00  0.00    +0.000 C 
ATOM     30  C   UNL     1      -6.505  13.200  18.766  0.00  0.00    +0.000 C 
ATOM     31  C   UNL     1      -5.655  12.690  19.923  0.00  0.00    +0.000 C 
ATOM     32  C   UNL     1      -4.229  12.382  19.472  0.00  0.00    +0.000 C 
ENDBRANCH  24  27
ENDBRANCH   6  23
TORSDOF 5
ENDMDL
MODEL 5
REMARK VINA RESULT:      -8.3      6.631      9.461
REMARK  Name = 
REMARK  5 active torsions:
REMARK  status: ('A' for Active; 'I' for Inactive)
REMARK    1  A    between atoms: C_2  and  C_3
REMARK    2  A    between atoms: C_3  and  C_4
REMARK    3  A    between atoms: N_13  and  C_14
REMARK    4  A    between atoms: C_19  and  N_20
REMARK    5  A    between atoms: C_21  and  C_23
REMARK                            x       y       z     vdW  Elec       q    Type
REMARK                         _______ _______ _______ _____ _____    ______ ____
ROOT
ATOM      1  C   UNL     1       1.233   9.644  18.039  0.00  0.00    +0.000 A 
ATOM      2  C   UNL     1       2.206  10.636  18.171  0.00  0.00    +0.000 A 
ATOM      3  C   UNL     1       1.859  11.919  18.582  0.00  0.00    +0.000 A 
ATOM      4  C   UNL     1       0.530  12.238  18.821  0.00  0.00    +0.000 A 
ATOM      5  F   UNL     1       0.298  13.436  19.369  0.00  0.00    +0.000 F 
ATOM      6  C   UNL     1      -0.491  11.308  18.587  0.00  0.00    +0.000 A 
ATOM      7  C   UNL     1      -0.121   9.997  18.210  0.00  0.00    +0.000 A 
ENDROOT
BRANCH   1  10
ATOM      8  O   UNL     1       2.209   7.566  19.856  0.00  0.00    +0.000 OA
ATOM      9  C   UNL     1       2.067   7.374  18.650  0.00  0.00    +0.000 C 
ATOM     10  N   UNL     1       1.575   8.302  17.734  0.00  0.00    +0.000 N 
ATOM     11  H   UNL     1       1.273   7.931  16.839  0.00  0.00    +0.000 HD
BRANCH   9  12
ATOM     12  C   UNL     1       2.487   6.044  18.047  0.00  0.00    +0.000 C 
BRANCH  12  13
ATOM     13  C   UNL     1       3.804   5.542  18.541  0.00  0.00    +0.000 A 
ATOM     14  C   UNL     1       3.997   4.445  19.359  0.00  0.00    +0.000 A 
ATOM     15  N   UNL     1       5.343   4.269  19.535  0.00  0.00    +0.000 N 
ATOM     16  C   UNL     1       6.043   5.233  18.852  0.00  0.00    +0.000 A 
ATOM     17  C   UNL     1       7.425   5.436  18.748  0.00  0.00    +0.000 A 
ATOM     18  C   UNL     1       7.867   6.496  17.953  0.00  0.00    +0.000 A 
ATOM     19  C   UNL     1       6.961   7.315  17.285  0.00  0.00    +0.000 A 
ATOM     20  C   UNL     1       5.582   7.099  17.401  0.00  0.00    +0.000 A 
ATOM     21  C   UNL     1       5.107   6.043  18.206  0.00  0.00    +0.000 A 
ATOM     22  H   UNL     1       5.771   3.522  20.066  0.00  0.00    +0.000 HD
ENDBRANCH  12  13
ENDBRANCH   9  12
ENDBRANCH   1  10
BRANCH   6  23
ATOM     23  N   UNL     1      -1.882  11.603  18.701  0.00  0.00    +0.000 N 
ATOM     24  C   UNL     1      -2.821  11.545  17.678  0.00  0.00    +0.000 C 
ATOM     25  O   UNL     1      -2.608  11.210  16.519  0.00  0.00    +0.000 OA
ATOM     26  H   UNL     1      -2.235  11.731  19.638  0.00  0.00    +0.000 HD
BRANCH  24  27
ATOM     27  C   UNL     1      -4.257  11.858  18.138  0.00  0.00    +0.000 C 
ATOM     28  C   UNL     1      -4.249  12.232  19.628  0.00  0.00    +0.000 C 
ATOM     29  C   UNL     1      -5.653  12.417  20.194  0.00  0.00    +0.000 C 
ATOM     30  C   UNL     1      -6.524  11.191  19.954  0.00  0.00    +0.000 C 
ATOM     31  C   UNL     1      -6.582  10.840  18.473  0.00  0.00    +0.000 C 
ATOM     32  C   UNL     1      -5.183  10.647  17.893  0.00  0.00    +0.000 C 
ENDBRANCH  24  27
ENDBRANCH   6  23
TORSDOF 5
ENDMDL
MODEL 6
REMARK VINA RESULT:      -8.3      6.532     10.268
REMARK  Name = 
REMARK  5 active torsions:
REMARK  status: ('A' for Active; 'I' for Inactive)
REMARK    1  A    between atoms: C_2  and  C_3
REMARK    2  A    between atoms: C_3  and  C_4
REMARK    3  A    between atoms: N_13  and  C_14
REMARK    4  A    between atoms: C_19  and  N_20
REMARK    5  A    between atoms: C_21  and  C_23
REMARK                            x       y       z     vdW  Elec       q    Type
REMARK                         _______ _______ _______ _____ _____    ______ ____
ROOT
ATOM      1  C   UNL     1       1.727   7.851  19.831  0.00  0.00    +0.000 A 
ATOM      2  C   UNL     1       1.136   7.019  20.783  0.00  0.00    +0.000 A 
ATOM      3  C   UNL     1       1.557   5.702  20.932  0.00  0.00    +0.000 A 
ATOM      4  C   UNL     1       2.541   5.187  20.100  0.00  0.00    +0.000 A 
ATOM      5  F   UNL     1       3.004   3.972  20.414  0.00  0.00    +0.000 F 
ATOM      6  C   UNL     1       3.077   5.949  19.055  0.00  0.00    +0.000 A 
ATOM      7  C   UNL     1       2.670   7.298  18.941  0.00  0.00    +0.000 A 
ENDROOT
BRANCH   1  10
ATOM      8  O   UNL     1      -0.333   9.324  21.301  0.00  0.00    +0.000 OA
ATOM      9  C   UNL     1       0.375   9.855  20.447  0.00  0.00    +0.000 C 
ATOM     10  N   UNL     1       1.397   9.227  19.736  0.00  0.00    +0.000 N 
ATOM     11  H   UNL     1       2.054   9.838  19.264  0.00  0.00    +0.000 HD
BRANCH   9  12
ATOM     12  C   UNL     1       0.133  11.306  20.067  0.00  0.00    +0.000 C 
BRANCH  12  13
ATOM     13  C   UNL     1      -1.254  11.584  19.588  0.00  0.00    +0.000 A 
ATOM     14  C   UNL     1      -2.139  12.485  20.149  0.00  0.00    +0.000 A 
ATOM     15  N   UNL     1      -3.278  12.503  19.391  0.00  0.00    +0.000 N 
ATOM     16  C   UNL     1      -3.163  11.625  18.340  0.00  0.00    +0.000 A 
ATOM     17  C   UNL     1      -4.074  11.323  17.319  0.00  0.00    +0.000 A 
ATOM     18  C   UNL     1      -3.679  10.397  16.351  0.00  0.00    +0.000 A 
ATOM     19  C   UNL     1      -2.420   9.804  16.401  0.00  0.00    +0.000 A 
ATOM     20  C   UNL     1      -1.521  10.117  17.429  0.00  0.00    +0.000 A 
ATOM     21  C   UNL     1      -1.899  11.041  18.426  0.00  0.00    +0.000 A 
ATOM     22  H   UNL     1      -4.082  13.093  19.555  0.00  0.00    +0.000 HD
ENDBRANCH  12  13
ENDBRANCH   9  12
ENDBRANCH   1  10
BRANCH   6  23
ATOM     23  N   UNL     1       4.005   5.447  18.095  0.00  0.00    +0.000 N 
ATOM     24  C   UNL     1       5.351   5.178  18.315  0.00  0.00    +0.000 C 
ATOM     25  O   UNL     1       5.950   5.309  19.376  0.00  0.00    +0.000 OA
ATOM     26  H   UNL     1       3.613   5.131  17.219  0.00  0.00    +0.000 HD
BRANCH  24  27
ATOM     27  C   UNL     1       6.070   4.579  17.092  0.00  0.00    +0.000 C 
ATOM     28  C   UNL     1       6.966   5.648  16.449  0.00  0.00    +0.000 C 
ATOM     29  C   UNL     1       7.604   5.175  15.148  0.00  0.00    +0.000 C 
ATOM     30  C   UNL     1       6.559   4.683  14.154  0.00  0.00    +0.000 C 
ATOM     31  C   UNL     1       5.695   3.586  14.762  0.00  0.00    +0.000 C 
ATOM     32  C   UNL     1       5.047   4.047  16.066  0.00  0.00    +0.000 C 
ENDBRANCH  24  27
ENDBRANCH   6  23
TORSDOF 5
ENDMDL
MODEL 7
REMARK VINA RESULT:      -8.3      7.504     10.051
REMARK  Name = 
REMARK  5 active torsions:
REMARK  status: ('A' for Active; 'I' for Inactive)
REMARK    1  A    between atoms: C_2  and  C_3
REMARK    2  A    between atoms: C_3  and  C_4
REMARK    3  A    between atoms: N_13  and  C_14
REMARK    4  A    between atoms: C_19  and  N_20
REMARK    5  A    between atoms: C_21  and  C_23
REMARK                            x       y       z     vdW  Elec       q    Type
REMARK                         _______ _______ _______ _____ _____    ______ ____
ROOT
ATOM      1  C   UNL     1       0.801  10.709  19.342  0.00  0.00    +0.000 A 
ATOM      2  C   UNL     1       1.572  11.764  18.849  0.00  0.00    +0.000 A 
ATOM      3  C   UNL     1       0.978  12.972  18.499  0.00  0.00    +0.000 A 
ATOM      4  C   UNL     1      -0.398  13.125  18.593  0.00  0.00    +0.000 A 
ATOM      5  F   UNL     1      -0.869  14.362  18.398  0.00  0.00    +0.000 F 
ATOM      6  C   UNL     1      -1.221  12.057  18.970  0.00  0.00    +0.000 A 
ATOM      7  C   UNL     1      -0.602  10.848  19.362  0.00  0.00    +0.000 A 
ENDROOT
BRANCH   1  10
ATOM      8  O   UNL     1       1.774   8.434  17.777  0.00  0.00    +0.000 OA
ATOM      9  C   UNL     1       1.804   8.451  19.007  0.00  0.00    +0.000 C 
ATOM     10  N   UNL     1       1.394   9.510  19.814  0.00  0.00    +0.000 N 
ATOM     11  H   UNL     1       1.711   9.489  20.777  0.00  0.00    +0.000 HD
BRANCH   9  12
ATOM     12  C   UNL     1       2.282   7.222  19.762  0.00  0.00    +0.000 C 
BRANCH  12  13
ATOM     13  C   UNL     1       2.595   6.054  18.885  0.00  0.00    +0.000 A 
ATOM     14  C   UNL     1       3.522   6.037  17.860  0.00  0.00    +0.000 A 
ATOM     15  N   UNL     1       3.566   4.772  17.339  0.00  0.00    +0.000 N 
ATOM     16  C   UNL     1       2.681   3.954  17.999  0.00  0.00    +0.000 A 
ATOM     17  C   UNL     1       2.398   2.595  17.805  0.00  0.00    +0.000 A 
ATOM     18  C   UNL     1       1.458   2.002  18.650  0.00  0.00    +0.000 A 
ATOM     19  C   UNL     1       0.832   2.739  19.653  0.00  0.00    +0.000 A 
ATOM     20  C   UNL     1       1.126   4.097  19.832  0.00  0.00    +0.000 A 
ATOM     21  C   UNL     1       2.064   4.724  18.985  0.00  0.00    +0.000 A 
ATOM     22  H   UNL     1       4.179   4.467  16.595  0.00  0.00    +0.000 HD
ENDBRANCH  12  13
ENDBRANCH   9  12
ENDBRANCH   1  10
BRANCH   6  23
ATOM     23  N   UNL     1      -2.646  12.111  18.977  0.00  0.00    +0.000 N 
ATOM     24  C   UNL     1      -3.493  11.598  18.002  0.00  0.00    +0.000 C 
ATOM     25  O   UNL     1      -3.151  10.997  16.991  0.00  0.00    +0.000 OA
ATOM     26  H   UNL     1      -3.075  12.428  19.834  0.00  0.00    +0.000 HD
BRANCH  24  27
ATOM     27  C   UNL     1      -4.988  11.757  18.335  0.00  0.00    +0.000 C 
ATOM     28  C   UNL     1      -5.711  12.412  17.149  0.00  0.00    +0.000 C 
ATOM     29  C   UNL     1      -7.170  12.734  17.456  0.00  0.00    +0.000 C 
ATOM     30  C   UNL     1      -7.307  13.592  18.707  0.00  0.00    +0.000 C 
ATOM     31  C   UNL     1      -6.637  12.930  19.903  0.00  0.00    +0.000 C 
ATOM     32  C   UNL     1      -5.174  12.604  19.612  0.00  0.00    +0.000 C 
ENDBRANCH  24  27
ENDBRANCH   6  23
TORSDOF 5
ENDMDL
MODEL 8
REMARK VINA RESULT:      -8.2      6.929      9.500
REMARK  Name = 
REMARK  5 active torsions:
REMARK  status: ('A' for Active; 'I' for Inactive)
REMARK    1  A    between atoms: C_2  and  C_3
REMARK    2  A    between atoms: C_3  and  C_4
REMARK    3  A    between atoms: N_13  and  C_14
REMARK    4  A    between atoms: C_19  and  N_20
REMARK    5  A    between atoms: C_21  and  C_23
REMARK                            x       y       z     vdW  Elec       q    Type
REMARK                         _______ _______ _______ _____ _____    ______ ____
ROOT
ATOM      1  C   UNL     1       1.412  10.184  18.111  0.00  0.00    +0.000 A 
ATOM      2  C   UNL     1       2.173  11.301  18.461  0.00  0.00    +0.000 A 
ATOM      3  C   UNL     1       1.588  12.378  19.120  0.00  0.00    +0.000 A 
ATOM      4  C   UNL     1       0.228  12.371  19.395  0.00  0.00    +0.000 A 
ATOM      5  F   UNL     1      -0.222  13.361  20.174  0.00  0.00    +0.000 F 
ATOM      6  C   UNL     1      -0.594  11.325  18.958  0.00  0.00    +0.000 A 
ATOM      7  C   UNL     1       0.019  10.219  18.326  0.00  0.00    +0.000 A 
ENDROOT
BRANCH   1  10
ATOM      8  O   UNL     1       2.306   7.753  19.475  0.00  0.00    +0.000 OA
ATOM      9  C   UNL     1       2.438   7.916  18.264  0.00  0.00    +0.000 C 
ATOM     10  N   UNL     1       2.005   9.027  17.543  0.00  0.00    +0.000 N 
ATOM     11  H   UNL     1       1.947   8.915  16.537  0.00  0.00    +0.000 HD
BRANCH   9  12
ATOM     12  C   UNL     1       3.164   6.865  17.440  0.00  0.00    +0.000 C 
BRANCH  12  13
ATOM     13  C   UNL     1       3.569   5.656  18.218  0.00  0.00    +0.000 A 
ATOM     14  C   UNL     1       4.769   5.485  18.880  0.00  0.00    +0.000 A 
ATOM     15  N   UNL     1       4.738   4.279  19.527  0.00  0.00    +0.000 N 
ATOM     16  C   UNL     1       3.539   3.648  19.300  0.00  0.00    +0.000 A 
ATOM     17  C   UNL     1       3.073   2.410  19.761  0.00  0.00    +0.000 A 
ATOM     18  C   UNL     1       1.784   2.022  19.390  0.00  0.00    +0.000 A 
ATOM     19  C   UNL     1       0.991   2.845  18.594  0.00  0.00    +0.000 A 
ATOM     20  C   UNL     1       1.472   4.080  18.141  0.00  0.00    +0.000 A 
ATOM     21  C   UNL     1       2.775   4.491  18.491  0.00  0.00    +0.000 A 
ATOM     22  H   UNL     1       5.474   3.910  20.113  0.00  0.00    +0.000 HD
ENDBRANCH  12  13
ENDBRANCH   9  12
ENDBRANCH   1  10
BRANCH   6  23
ATOM     23  N   UNL     1      -2.012  11.309  19.105  0.00  0.00    +0.000 N 
ATOM     24  C   UNL     1      -2.946  11.501  18.094  0.00  0.00    +0.000 C 
ATOM     25  O   UNL     1      -2.700  11.693  16.910  0.00  0.00    +0.000 OA
ATOM     26  H   UNL     1      -2.364  10.993  19.998  0.00  0.00    +0.000 HD
BRANCH  24  27
ATOM     27  C   UNL     1      -4.406  11.356  18.564  0.00  0.00    +0.000 C 
ATOM     28  C   UNL     1      -5.354  11.712  17.409  0.00  0.00    +0.000 C 
ATOM     29  C   UNL     1      -6.818  11.731  17.836  0.00  0.00    +0.000 C 
ATOM     30  C   UNL     1      -7.047  12.659  19.023  0.00  0.00    +0.000 C 
ATOM     31  C   UNL     1      -6.148  12.285  20.194  0.00  0.00    +0.000 C 
ATOM     32  C   UNL     1      -4.677  12.265  19.782  0.00  0.00    +0.000 C 
ENDBRANCH  24  27
ENDBRANCH   6  23
TORSDOF 5
ENDMDL
MODEL 9
REMARK VINA RESULT:      -8.2      6.446     10.530
REMARK  Name = 
REMARK  5 active torsions:
REMARK  status: ('A' for Active; 'I' for Inactive)
REMARK    1  A    between atoms: C_2  and  C_3
REMARK    2  A    between atoms: C_3  and  C_4
REMARK    3  A    between atoms: N_13  and  C_14
REMARK    4  A    between atoms: C_19  and  N_20
REMARK    5  A    between atoms: C_21  and  C_23
REMARK                            x       y       z     vdW  Elec       q    Type
REMARK                         _______ _______ _______ _____ _____    ______ ____
ROOT
ATOM      1  C   UNL     1       1.834   5.462  20.403  0.00  0.00    +0.000 A 
ATOM      2  C   UNL     1       0.874   4.458  20.541  0.00  0.00    +0.000 A 
ATOM      3  C   UNL     1       0.964   3.285  19.798  0.00  0.00    +0.000 A 
ATOM      4  C   UNL     1       1.986   3.122  18.874  0.00  0.00    +0.000 A 
ATOM      5  F   UNL     1       2.098   1.908  18.325  0.00  0.00    +0.000 F 
ATOM      6  C   UNL     1       2.901   4.151  18.618  0.00  0.00    +0.000 A 
ATOM      7  C   UNL     1       2.824   5.320  19.409  0.00  0.00    +0.000 A 
ENDROOT
BRANCH   1  10
ATOM      8  O   UNL     1       1.420   8.252  19.616  0.00  0.00    +0.000 OA
ATOM      9  C   UNL     1       1.659   7.922  20.777  0.00  0.00    +0.000 C 
ATOM     10  N   UNL     1       1.830   6.615  21.229  0.00  0.00    +0.000 N 
ATOM     11  H   UNL     1       1.764   6.475  22.232  0.00  0.00    +0.000 HD
BRANCH   9  12
ATOM     12  C   UNL     1       1.833   8.992  21.841  0.00  0.00    +0.000 C 
BRANCH  12  13
ATOM     13  C   UNL     1       0.584   9.755  22.145  0.00  0.00    +0.000 A 
ATOM     14  C   UNL     1      -0.211   9.592  23.262  0.00  0.00    +0.000 A 
ATOM     15  N   UNL     1      -1.221  10.514  23.212  0.00  0.00    +0.000 N 
ATOM     16  C   UNL     1      -1.110  11.281  22.078  0.00  0.00    +0.000 A 
ATOM     17  C   UNL     1      -1.913  12.336  21.624  0.00  0.00    +0.000 A 
ATOM     18  C   UNL     1      -1.546  12.964  20.432  0.00  0.00    +0.000 A 
ATOM     19  C   UNL     1      -0.416  12.555  19.727  0.00  0.00    +0.000 A 
ATOM     20  C   UNL     1       0.376  11.499  20.195  0.00  0.00    +0.000 A 
ATOM     21  C   UNL     1       0.021  10.839  21.391  0.00  0.00    +0.000 A 
ATOM     22  H   UNL     1      -1.935  10.640  23.918  0.00  0.00    +0.000 HD
ENDBRANCH  12  13
ENDBRANCH   9  12
ENDBRANCH   1  10
BRANCH   6  23
ATOM     23  N   UNL     1       3.904   4.094  17.605  0.00  0.00    +0.000 N 
ATOM     24  C   UNL     1       5.278   4.134  17.806  0.00  0.00    +0.000 C 
ATOM     25  O   UNL     1       5.849   4.202  18.888  0.00  0.00    +0.000 OA
ATOM     26  H   UNL     1       3.584   3.866  16.675  0.00  0.00    +0.000 HD
BRANCH  24  27
ATOM     27  C   UNL     1       6.098   3.984  16.511  0.00  0.00    +0.000 C 
ATOM     28  C   UNL     1       7.024   5.198  16.346  0.00  0.00    +0.000 C 
ATOM     29  C   UNL     1       7.767   5.193  15.014  0.00  0.00    +0.000 C 
ATOM     30  C   UNL     1       6.808   5.088  13.835  0.00  0.00    +0.000 C 
ATOM     31  C   UNL     1       5.917   3.859  13.960  0.00  0.00    +0.000 C 
ATOM     32  C   UNL     1       5.164   3.851  15.289  0.00  0.00    +0.000 C 
ENDBRANCH  24  27
ENDBRANCH   6  23
TORSDOF 5
ENDMDL
