MODEL 1
REMARK VINA RESULT:      -9.4      0.000      0.000
REMARK  Name = 
REMARK  7 active torsions:
REMARK  status: ('A' for Active; 'I' for Inactive)
REMARK    1  A    between atoms: C_1  and  C_2
REMARK    2  A    between atoms: C_2  and  C_3
REMARK    3  A    between atoms: C_6  and  S_7
REMARK    4  A    between atoms: S_7  and  C_8
REMARK    5  A    between atoms: C_12  and  C_13
REMARK    6  A    between atoms: N_15  and  C_16
REMARK    7  A    between atoms: C_19  and  C_20
REMARK                            x       y       z     vdW  Elec       q    Type
REMARK                         _______ _______ _______ _____ _____    ______ ____
ROOT
ATOM      1  C   UNL     1       2.387   7.276  18.491  0.00  0.00    +0.000 C 
ATOM      2  O   UNL     1       1.831   7.927  17.607  0.00  0.00    +0.000 OA
ATOM      3  N   UNL     1       2.255   7.520  19.859  0.00  0.00    +0.000 N 
ATOM      4  H   UNL     1       2.880   7.034  20.489  0.00  0.00    +0.000 HD
ENDROOT
BRANCH   1  10
ATOM      5  C   UNL     1       2.819   4.799  17.950  0.00  0.00    +0.000 A 
ATOM      6  C   UNL     1       3.727   3.771  17.621  0.00  0.00    +0.000 A 
ATOM      7  C   UNL     1       5.077   4.035  17.420  0.00  0.00    +0.000 A 
ATOM      8  C   UNL     1       5.533   5.341  17.561  0.00  0.00    +0.000 A 
ATOM      9  C   UNL     1       4.654   6.394  17.860  0.00  0.00    +0.000 A 
ATOM     10  C   UNL     1       3.284   6.142  18.059  0.00  0.00    +0.000 A 
BRANCH   8  11
ATOM     11  S   UNL     1       7.265   5.671  17.330  0.00  0.00    +0.000 S 
ATOM     12  C   UNL     1       7.838   6.053  18.967  0.00  0.00    +0.000 C 
ATOM     13  O   UNL     1       7.895   4.433  16.909  0.00  0.00    +0.000 OA
ATOM     14  O   UNL     1       7.360   6.868  16.519  0.00  0.00    +0.000 OA
ENDBRANCH   8  11
BRANCH   5  16
ATOM     15  C   UNL     1       1.179   3.802  19.593  0.00  0.00    +0.000 C 
ATOM     16  C   UNL     1       1.387   4.359  18.189  0.00  0.00    +0.000 C 
ENDBRANCH   5  16
ENDBRANCH   1  10
BRANCH   3  17
ATOM     17  C   UNL     1       1.451   8.550  20.442  0.00  0.00    +0.000 A 
ATOM     18  C   UNL     1       1.131   9.745  19.790  0.00  0.00    +0.000 A 
ATOM     19  C   UNL     1       0.408  10.771  20.430  0.00  0.00    +0.000 A 
ATOM     20  C   UNL     1      -0.037  10.637  21.748  0.00  0.00    +0.000 A 
ATOM     21  C   UNL     1       0.242   9.413  22.386  0.00  0.00    +0.000 A 
ATOM     22  C   UNL     1       0.960   8.381  21.741  0.00  0.00    +0.000 A 
BRANCH  20  23
ATOM     23  C   UNL     1      -0.748  11.748  22.424  0.00  0.00    +0.000 A 
ATOM     24  N   UNL     1      -0.258  12.915  22.826  0.00  0.00    +0.000 NA
ATOM     25  C   UNL     1      -1.287  13.575  23.478  0.00  0.00    +0.000 A 
ATOM     26  C   UNL     1      -1.346  14.834  24.114  0.00  0.00    +0.000 A 
ATOM     27  C   UNL     1      -2.537  15.218  24.752  0.00  0.00    +0.000 A 
ATOM     28  C   UNL     1      -3.655  14.379  24.758  0.00  0.00    +0.000 A 
ATOM     29  C   UNL     1      -3.630  13.148  24.099  0.00  0.00    +0.000 A 
ATOM     30  C   UNL     1      -2.435  12.793  23.478  0.00  0.00    +0.000 A 
ATOM     31  N   UNL     1      -2.081  11.682  22.755  0.00  0.00    +0.000 N 
ATOM     32  H   UNL     1      -2.703  10.926  22.540  0.00  0.00    +0.000 HD
ENDBRANCH  20  23
ENDBRANCH   3  17
TORSDOF 5
ENDMDL
MODEL 2
REMARK VINA RESULT:      -9.3      1.407      1.840
REMARK  Name = 
REMARK  7 active torsions:
REMARK  status: ('A' for Active; 'I' for Inactive)
REMARK    1  A    between atoms: C_1  and  C_2
REMARK    2  A    between atoms: C_2  and  C_3
REMARK    3  A    between atoms: C_6  and  S_7
REMARK    4  A    between atoms: S_7  and  C_8
REMARK    5  A    between atoms: C_12  and  C_13
REMARK    6  A    between atoms: N_15  and  C_16
REMARK    7  A    between atoms: C_19  and  C_20
REMARK                            x       y       z     vdW  Elec       q    Type
REMARK                         _______ _______ _______ _____ _____    ______ ____
ROOT
ATOM      1  C   UNL     1       2.456   6.392  19.500  0.00  0.00    +0.000 C 
ATOM      2  O   UNL     1       1.923   5.840  20.463  0.00  0.00    +0.000 OA
ATOM      3  N   UNL     1       2.274   7.732  19.153  0.00  0.00    +0.000 N 
ATOM      4  H   UNL     1       2.624   8.040  18.255  0.00  0.00    +0.000 HD
ENDROOT
BRANCH   1  10
ATOM      5  C   UNL     1       2.870   4.470  17.843  0.00  0.00    +0.000 A 
ATOM      6  C   UNL     1       3.777   3.672  17.115  0.00  0.00    +0.000 A 
ATOM      7  C   UNL     1       5.147   3.906  17.163  0.00  0.00    +0.000 A 
ATOM      8  C   UNL     1       5.623   4.943  17.959  0.00  0.00    +0.000 A 
ATOM      9  C   UNL     1       4.747   5.775  18.676  0.00  0.00    +0.000 A 
ATOM     10  C   UNL     1       3.359   5.553  18.630  0.00  0.00    +0.000 A 
BRANCH   8  11
ATOM     11  S   UNL     1       7.377   5.222  18.041  0.00  0.00    +0.000 S 
ATOM     12  C   UNL     1       7.544   6.941  17.629  0.00  0.00    +0.000 C 
ATOM     13  O   UNL     1       7.785   5.047  19.422  0.00  0.00    +0.000 OA
ATOM     14  O   UNL     1       7.977   4.434  16.983  0.00  0.00    +0.000 OA
ENDBRANCH   8  11
BRANCH   5  16
ATOM     15  C   UNL     1       1.052   2.926  18.679  0.00  0.00    +0.000 C 
ATOM     16  C   UNL     1       1.411   4.070  17.736  0.00  0.00    +0.000 C 
ENDBRANCH   5  16
ENDBRANCH   1  10
BRANCH   3  17
ATOM     17  C   UNL     1       1.455   8.667  19.861  0.00  0.00    +0.000 A 
ATOM     18  C   UNL     1       1.226   8.606  21.240  0.00  0.00    +0.000 A 
ATOM     19  C   UNL     1       0.344   9.496  21.887  0.00  0.00    +0.000 A 
ATOM     20  C   UNL     1      -0.334  10.492  21.181  0.00  0.00    +0.000 A 
ATOM     21  C   UNL     1      -0.064  10.584  19.802  0.00  0.00    +0.000 A 
ATOM     22  C   UNL     1       0.826   9.697  19.155  0.00  0.00    +0.000 A 
BRANCH  20  23
ATOM     23  C   UNL     1      -1.300  11.382  21.868  0.00  0.00    +0.000 A 
ATOM     24  N   UNL     1      -1.838  11.240  23.074  0.00  0.00    +0.000 NA
ATOM     25  C   UNL     1      -2.742  12.279  23.232  0.00  0.00    +0.000 A 
ATOM     26  C   UNL     1      -3.603  12.626  24.294  0.00  0.00    +0.000 A 
ATOM     27  C   UNL     1      -4.465  13.724  24.140  0.00  0.00    +0.000 A 
ATOM     28  C   UNL     1      -4.475  14.474  22.961  0.00  0.00    +0.000 A 
ATOM     29  C   UNL     1      -3.601  14.172  21.914  0.00  0.00    +0.000 A 
ATOM     30  C   UNL     1      -2.761  13.075  22.094  0.00  0.00    +0.000 A 
ATOM     31  N   UNL     1      -1.801  12.524  21.285  0.00  0.00    +0.000 N 
ATOM     32  H   UNL     1      -1.539  12.887  20.388  0.00  0.00    +0.000 HD
ENDBRANCH  20  23
ENDBRANCH   3  17
TORSDOF 5
ENDMDL
MODEL 3
REMARK VINA RESULT:      -9.2      0.316      1.073
REMARK  Name = 
REMARK  7 active torsions:
REMARK  status: ('A' for Active; 'I' for Inactive)
REMARK    1  A    between atoms: C_1  and  C_2
REMARK    2  A    between atoms: C_2  and  C_3
REMARK    3  A    between atoms: C_6  and  S_7
REMARK    4  A    between atoms: S_7  and  C_8
REMARK    5  A    between atoms: C_12  and  C_13
REMARK    6  A    between atoms: N_15  and  C_16
REMARK    7  A    between atoms: C_19  and  C_20
REMARK                            x       y       z     vdW  Elec       q    Type
REMARK                         _______ _______ _______ _____ _____    ______ ____
ROOT
ATOM      1  C   UNL     1       2.368   7.231  18.508  0.00  0.00    +0.000 C 
ATOM      2  O   UNL     1       1.821   7.885  17.620  0.00  0.00    +0.000 OA
ATOM      3  N   UNL     1       2.209   7.463  19.876  0.00  0.00    +0.000 N 
ATOM      4  H   UNL     1       2.828   6.978  20.513  0.00  0.00    +0.000 HD
ENDROOT
BRANCH   1  10
ATOM      5  C   UNL     1       2.835   4.762  17.963  0.00  0.00    +0.000 A 
ATOM      6  C   UNL     1       3.759   3.746  17.642  0.00  0.00    +0.000 A 
ATOM      7  C   UNL     1       5.108   4.026  17.457  0.00  0.00    +0.000 A 
ATOM      8  C   UNL     1       5.547   5.338  17.608  0.00  0.00    +0.000 A 
ATOM      9  C   UNL     1       4.652   6.379  17.901  0.00  0.00    +0.000 A 
ATOM     10  C   UNL     1       3.283   6.110  18.083  0.00  0.00    +0.000 A 
BRANCH   8  11
ATOM     11  S   UNL     1       7.278   5.688  17.399  0.00  0.00    +0.000 S 
ATOM     12  C   UNL     1       7.857   5.931  19.059  0.00  0.00    +0.000 C 
ATOM     13  O   UNL     1       7.907   4.492  16.872  0.00  0.00    +0.000 OA
ATOM     14  O   UNL     1       7.368   6.949  16.691  0.00  0.00    +0.000 OA
ENDBRANCH   8  11
BRANCH   5  16
ATOM     15  C   UNL     1       1.159   3.847  19.618  0.00  0.00    +0.000 C 
ATOM     16  C   UNL     1       1.406   4.305  18.184  0.00  0.00    +0.000 C 
ENDBRANCH   5  16
ENDBRANCH   1  10
BRANCH   3  17
ATOM     17  C   UNL     1       1.386   8.480  20.453  0.00  0.00    +0.000 A 
ATOM     18  C   UNL     1       1.356   9.802  19.999  0.00  0.00    +0.000 A 
ATOM     19  C   UNL     1       0.595  10.795  20.649  0.00  0.00    +0.000 A 
ATOM     20  C   UNL     1      -0.180  10.500  21.773  0.00  0.00    +0.000 A 
ATOM     21  C   UNL     1      -0.188   9.158  22.199  0.00  0.00    +0.000 A 
ATOM     22  C   UNL     1       0.569   8.162  21.542  0.00  0.00    +0.000 A 
BRANCH  20  23
ATOM     23  C   UNL     1      -0.929  11.567  22.477  0.00  0.00    +0.000 A 
ATOM     24  N   UNL     1      -2.078  11.470  23.137  0.00  0.00    +0.000 NA
ATOM     25  C   UNL     1      -2.414  12.751  23.543  0.00  0.00    +0.000 A 
ATOM     26  C   UNL     1      -3.520  13.253  24.262  0.00  0.00    +0.000 A 
ATOM     27  C   UNL     1      -3.619  14.637  24.479  0.00  0.00    +0.000 A 
ATOM     28  C   UNL     1      -2.642  15.514  24.000  0.00  0.00    +0.000 A 
ATOM     29  C   UNL     1      -1.520  15.034  23.322  0.00  0.00    +0.000 A 
ATOM     30  C   UNL     1      -1.450  13.657  23.119  0.00  0.00    +0.000 A 
ATOM     31  N   UNL     1      -0.502  12.875  22.510  0.00  0.00    +0.000 N 
ATOM     32  H   UNL     1       0.352  13.223  22.119  0.00  0.00    +0.000 HD
ENDBRANCH  20  23
ENDBRANCH   3  17
TORSDOF 5
ENDMDL
MODEL 4
REMARK VINA RESULT:      -9.2      0.930      1.460
REMARK  Name = 
REMARK  7 active torsions:
REMARK  status: ('A' for Active; 'I' for Inactive)
REMARK    1  A    between atoms: C_1  and  C_2
REMARK    2  A    between atoms: C_2  and  C_3
REMARK    3  A    between atoms: C_6  and  S_7
REMARK    4  A    between atoms: S_7  and  C_8
REMARK    5  A    between atoms: C_12  and  C_13
REMARK    6  A    between atoms: N_15  and  C_16
REMARK    7  A    between atoms: C_19  and  C_20
REMARK                            x       y       z     vdW  Elec       q    Type
REMARK                         _______ _______ _______ _____ _____    ______ ____
ROOT
ATOM      1  C   UNL     1       2.431   7.188  18.439  0.00  0.00    +0.000 C 
ATOM      2  O   UNL     1       1.904   7.897  17.582  0.00  0.00    +0.000 OA
ATOM      3  N   UNL     1       2.256   7.343  19.816  0.00  0.00    +0.000 N 
ATOM      4  H   UNL     1       2.861   6.815  20.432  0.00  0.00    +0.000 HD
ENDROOT
BRANCH   1  10
ATOM      5  C   UNL     1       2.868   4.758  17.720  0.00  0.00    +0.000 A 
ATOM      6  C   UNL     1       3.783   3.748  17.356  0.00  0.00    +0.000 A 
ATOM      7  C   UNL     1       5.143   4.009  17.246  0.00  0.00    +0.000 A 
ATOM      8  C   UNL     1       5.604   5.294  17.516  0.00  0.00    +0.000 A 
ATOM      9  C   UNL     1       4.719   6.331  17.855  0.00  0.00    +0.000 A 
ATOM     10  C   UNL     1       3.339   6.081  17.962  0.00  0.00    +0.000 A 
BRANCH   8  11
ATOM     11  S   UNL     1       7.348   5.619  17.402  0.00  0.00    +0.000 S 
ATOM     12  C   UNL     1       7.844   5.832  19.093  0.00  0.00    +0.000 C 
ATOM     13  O   UNL     1       7.985   4.418  16.893  0.00  0.00    +0.000 OA
ATOM     14  O   UNL     1       7.495   6.886  16.716  0.00  0.00    +0.000 OA
ENDBRANCH   8  11
BRANCH   5  16
ATOM     15  C   UNL     1       1.123   3.699  19.211  0.00  0.00    +0.000 C 
ATOM     16  C   UNL     1       1.422   4.319  17.849  0.00  0.00    +0.000 C 
ENDBRANCH   5  16
ENDBRANCH   1  10
BRANCH   3  17
ATOM     17  C   UNL     1       1.437   8.336  20.439  0.00  0.00    +0.000 A 
ATOM     18  C   UNL     1       0.657   8.095  21.575  0.00  0.00    +0.000 A 
ATOM     19  C   UNL     1      -0.203   9.077  22.108  0.00  0.00    +0.000 A 
ATOM     20  C   UNL     1      -0.307  10.345  21.533  0.00  0.00    +0.000 A 
ATOM     21  C   UNL     1       0.515  10.602  20.420  0.00  0.00    +0.000 A 
ATOM     22  C   UNL     1       1.383   9.621  19.890  0.00  0.00    +0.000 A 
BRANCH  20  23
ATOM     23  C   UNL     1      -1.258  11.346  22.073  0.00  0.00    +0.000 A 
ATOM     24  N   UNL     1      -1.877  11.344  23.248  0.00  0.00    +0.000 NA
ATOM     25  C   UNL     1      -2.724  12.440  23.254  0.00  0.00    +0.000 A 
ATOM     26  C   UNL     1      -3.627  12.929  24.222  0.00  0.00    +0.000 A 
ATOM     27  C   UNL     1      -4.409  14.055  23.915  0.00  0.00    +0.000 A 
ATOM     28  C   UNL     1      -4.301  14.693  22.677  0.00  0.00    +0.000 A 
ATOM     29  C   UNL     1      -3.384  14.250  21.721  0.00  0.00    +0.000 A 
ATOM     30  C   UNL     1      -2.625  13.130  22.052  0.00  0.00    +0.000 A 
ATOM     31  N   UNL     1      -1.652  12.455  21.360  0.00  0.00    +0.000 N 
ATOM     32  H   UNL     1      -1.314  12.720  20.455  0.00  0.00    +0.000 HD
ENDBRANCH  20  23
ENDBRANCH   3  17
TORSDOF 5
ENDMDL
MODEL 5
REMARK VINA RESULT:      -9.2      1.039      1.353
REMARK  Name = 
REMARK  7 active torsions:
REMARK  status: ('A' for Active; 'I' for Inactive)
REMARK    1  A    between atoms: C_1  and  C_2
REMARK    2  A    between atoms: C_2  and  C_3
REMARK    3  A    between atoms: C_6  and  S_7
REMARK    4  A    between atoms: S_7  and  C_8
REMARK    5  A    between atoms: C_12  and  C_13
REMARK    6  A    between atoms: N_15  and  C_16
REMARK    7  A    between atoms: C_19  and  C_20
REMARK                            x       y       z     vdW  Elec       q    Type
REMARK                         _______ _______ _______ _____ _____    ______ ____
ROOT
ATOM      1  C   UNL     1       2.527   6.432  19.310  0.00  0.00    +0.000 C 
ATOM      2  O   UNL     1       2.213   5.949  20.397  0.00  0.00    +0.000 OA
ATOM      3  N   UNL     1       2.267   7.748  18.921  0.00  0.00    +0.000 N 
ATOM      4  H   UNL     1       2.418   7.993  17.951  0.00  0.00    +0.000 HD
ENDROOT
BRANCH   1  10
ATOM      5  C   UNL     1       2.660   4.310  17.864  0.00  0.00    +0.000 A 
ATOM      6  C   UNL     1       3.405   3.471  17.009  0.00  0.00    +0.000 A 
ATOM      7  C   UNL     1       4.698   3.800  16.619  0.00  0.00    +0.000 A 
ATOM      8  C   UNL     1       5.264   4.977  17.098  0.00  0.00    +0.000 A 
ATOM      9  C   UNL     1       4.543   5.849  17.930  0.00  0.00    +0.000 A 
ATOM     10  C   UNL     1       3.231   5.531  18.326  0.00  0.00    +0.000 A 
BRANCH   8  11
ATOM     11  S   UNL     1       6.928   5.381  16.620  0.00  0.00    +0.000 S 
ATOM     12  C   UNL     1       7.232   6.929  17.436  0.00  0.00    +0.000 C 
ATOM     13  O   UNL     1       7.807   4.384  17.203  0.00  0.00    +0.000 OA
ATOM     14  O   UNL     1       6.910   5.611  15.189  0.00  0.00    +0.000 OA
ENDBRANCH   8  11
BRANCH   5  16
ATOM     15  C   UNL     1       1.337   2.443  18.937  0.00  0.00    +0.000 C 
ATOM     16  C   UNL     1       1.283   3.802  18.246  0.00  0.00    +0.000 C 
ENDBRANCH   5  16
ENDBRANCH   1  10
BRANCH   3  17
ATOM     17  C   UNL     1       1.610   8.733  19.723  0.00  0.00    +0.000 A 
ATOM     18  C   UNL     1       1.426   8.610  21.104  0.00  0.00    +0.000 A 
ATOM     19  C   UNL     1       0.698   9.563  21.846  0.00  0.00    +0.000 A 
ATOM     20  C   UNL     1       0.135  10.687  21.235  0.00  0.00    +0.000 A 
ATOM     21  C   UNL     1       0.364  10.835  19.854  0.00  0.00    +0.000 A 
ATOM     22  C   UNL     1       1.101   9.884  19.112  0.00  0.00    +0.000 A 
BRANCH  20  23
ATOM     23  C   UNL     1      -0.674  11.649  22.020  0.00  0.00    +0.000 A 
ATOM     24  N   UNL     1      -0.309  12.831  22.503  0.00  0.00    +0.000 NA
ATOM     25  C   UNL     1      -1.384  13.311  23.235  0.00  0.00    +0.000 A 
ATOM     26  C   UNL     1      -1.565  14.500  23.974  0.00  0.00    +0.000 A 
ATOM     27  C   UNL     1      -2.769  14.688  24.673  0.00  0.00    +0.000 A 
ATOM     28  C   UNL     1      -3.781  13.725  24.640  0.00  0.00    +0.000 A 
ATOM     29  C   UNL     1      -3.637  12.561  23.881  0.00  0.00    +0.000 A 
ATOM     30  C   UNL     1      -2.432  12.400  23.202  0.00  0.00    +0.000 A 
ATOM     31  N   UNL     1      -1.978  11.400  22.380  0.00  0.00    +0.000 N 
ATOM     32  H   UNL     1      -2.515  10.595  22.120  0.00  0.00    +0.000 HD
ENDBRANCH  20  23
ENDBRANCH   3  17
TORSDOF 5
ENDMDL
MODEL 6
REMARK VINA RESULT:      -9.1      1.056      1.552
REMARK  Name = 
REMARK  7 active torsions:
REMARK  status: ('A' for Active; 'I' for Inactive)
REMARK    1  A    between atoms: C_1  and  C_2
REMARK    2  A    between atoms: C_2  and  C_3
REMARK    3  A    between atoms: C_6  and  S_7
REMARK    4  A    between atoms: S_7  and  C_8
REMARK    5  A    between atoms: C_12  and  C_13
REMARK    6  A    between atoms: N_15  and  C_16
REMARK    7  A    between atoms: C_19  and  C_20
REMARK                            x       y       z     vdW  Elec       q    Type
REMARK                         _______ _______ _______ _____ _____    ______ ____
ROOT
ATOM      1  C   UNL     1       2.503   6.495  19.520  0.00  0.00    +0.000 C 
ATOM      2  O   UNL     1       2.075   5.957  20.541  0.00  0.00    +0.000 OA
ATOM      3  N   UNL     1       2.220   7.807  19.135  0.00  0.00    +0.000 N 
ATOM      4  H   UNL     1       2.485   8.094  18.202  0.00  0.00    +0.000 HD
ENDROOT
BRANCH   1  10
ATOM      5  C   UNL     1       2.874   4.617  17.802  0.00  0.00    +0.000 A 
ATOM      6  C   UNL     1       3.763   3.827  17.043  0.00  0.00    +0.000 A 
ATOM      7  C   UNL     1       5.136   4.039  17.086  0.00  0.00    +0.000 A 
ATOM      8  C   UNL     1       5.634   5.045  17.908  0.00  0.00    +0.000 A 
ATOM      9  C   UNL     1       4.778   5.868  18.657  0.00  0.00    +0.000 A 
ATOM     10  C   UNL     1       3.386   5.669  18.617  0.00  0.00    +0.000 A 
BRANCH   8  11
ATOM     11  S   UNL     1       7.393   5.295  17.982  0.00  0.00    +0.000 S 
ATOM     12  C   UNL     1       7.603   6.952  17.378  0.00  0.00    +0.000 C 
ATOM     13  O   UNL     1       7.781   5.272  19.380  0.00  0.00    +0.000 OA
ATOM     14  O   UNL     1       7.988   4.380  17.029  0.00  0.00    +0.000 OA
ENDBRANCH   8  11
BRANCH   5  16
ATOM     15  C   UNL     1       1.072   2.984  18.490  0.00  0.00    +0.000 C 
ATOM     16  C   UNL     1       1.408   4.242  17.696  0.00  0.00    +0.000 C 
ENDBRANCH   5  16
ENDBRANCH   1  10
BRANCH   3  17
ATOM     17  C   UNL     1       1.403   8.725  19.867  0.00  0.00    +0.000 A 
ATOM     18  C   UNL     1       0.784   9.839  19.291  0.00  0.00    +0.000 A 
ATOM     19  C   UNL     1       0.058  10.769  20.063  0.00  0.00    +0.000 A 
ATOM     20  C   UNL     1      -0.090  10.612  21.444  0.00  0.00    +0.000 A 
ATOM     21  C   UNL     1       0.492   9.464  22.014  0.00  0.00    +0.000 A 
ATOM     22  C   UNL     1       1.213   8.528  21.238  0.00  0.00    +0.000 A 
BRANCH  20  23
ATOM     23  C   UNL     1      -0.809  11.628  22.248  0.00  0.00    +0.000 A 
ATOM     24  N   UNL     1      -1.948  11.494  22.917  0.00  0.00    +0.000 NA
ATOM     25  C   UNL     1      -2.255  12.742  23.436  0.00  0.00    +0.000 A 
ATOM     26  C   UNL     1      -3.340  13.198  24.214  0.00  0.00    +0.000 A 
ATOM     27  C   UNL     1      -3.411  14.561  24.548  0.00  0.00    +0.000 A 
ATOM     28  C   UNL     1      -2.427  15.459  24.128  0.00  0.00    +0.000 A 
ATOM     29  C   UNL     1      -1.324  15.020  23.392  0.00  0.00    +0.000 A 
ATOM     30  C   UNL     1      -1.282  13.664  23.073  0.00  0.00    +0.000 A 
ATOM     31  N   UNL     1      -0.358  12.921  22.384  0.00  0.00    +0.000 N 
ATOM     32  H   UNL     1       0.495  13.287  22.008  0.00  0.00    +0.000 HD
ENDBRANCH  20  23
ENDBRANCH   3  17
TORSDOF 5
ENDMDL
MODEL 7
REMARK VINA RESULT:      -9.1      0.672      1.072
REMARK  Name = 
REMARK  7 active torsions:
REMARK  status: ('A' for Active; 'I' for Inactive)
REMARK    1  A    between atoms: C_1  and  C_2
REMARK    2  A    between atoms: C_2  and  C_3
REMARK    3  A    between atoms: C_6  and  S_7
REMARK    4  A    between atoms: S_7  and  C_8
REMARK    5  A    between atoms: C_12  and  C_13
REMARK    6  A    between atoms: N_15  and  C_16
REMARK    7  A    between atoms: C_19  and  C_20
REMARK                            x       y       z     vdW  Elec       q    Type
REMARK                         _______ _______ _______ _____ _____    ______ ____
ROOT
ATOM      1  C   UNL     1       2.306   7.160  18.373  0.00  0.00    +0.000 C 
ATOM      2  O   UNL     1       1.799   7.842  17.482  0.00  0.00    +0.000 OA
ATOM      3  N   UNL     1       2.160   7.404  19.740  0.00  0.00    +0.000 N 
ATOM      4  H   UNL     1       2.749   6.886  20.379  0.00  0.00    +0.000 HD
ENDROOT
BRANCH   1  10
ATOM      5  C   UNL     1       2.733   4.637  18.122  0.00  0.00    +0.000 A 
ATOM      6  C   UNL     1       3.608   3.583  17.784  0.00  0.00    +0.000 A 
ATOM      7  C   UNL     1       4.888   3.833  17.304  0.00  0.00    +0.000 A 
ATOM      8  C   UNL     1       5.310   5.152  17.171  0.00  0.00    +0.000 A 
ATOM      9  C   UNL     1       4.457   6.226  17.472  0.00  0.00    +0.000 A 
ATOM     10  C   UNL     1       3.156   5.987  17.951  0.00  0.00    +0.000 A 
BRANCH   8  11
ATOM     11  S   UNL     1       6.959   5.466  16.583  0.00  0.00    +0.000 S 
ATOM     12  C   UNL     1       6.906   4.934  14.890  0.00  0.00    +0.000 C 
ATOM     13  O   UNL     1       7.163   6.903  16.599  0.00  0.00    +0.000 OA
ATOM     14  O   UNL     1       7.842   4.582  17.316  0.00  0.00    +0.000 OA
ENDBRANCH   8  11
BRANCH   5  16
ATOM     15  C   UNL     1       1.438   3.940  20.177  0.00  0.00    +0.000 C 
ATOM     16  C   UNL     1       1.385   4.219  18.679  0.00  0.00    +0.000 C 
ENDBRANCH   5  16
ENDBRANCH   1  10
BRANCH   3  17
ATOM     17  C   UNL     1       1.396   8.468  20.314  0.00  0.00    +0.000 A 
ATOM     18  C   UNL     1       1.369   9.768  19.798  0.00  0.00    +0.000 A 
ATOM     19  C   UNL     1       0.670  10.809  20.442  0.00  0.00    +0.000 A 
ATOM     20  C   UNL     1      -0.043  10.588  21.623  0.00  0.00    +0.000 A 
ATOM     21  C   UNL     1      -0.056   9.268  22.113  0.00  0.00    +0.000 A 
ATOM     22  C   UNL     1       0.638   8.223  21.463  0.00  0.00    +0.000 A 
BRANCH  20  23
ATOM     23  C   UNL     1      -0.725  11.706  22.316  0.00  0.00    +0.000 A 
ATOM     24  N   UNL     1      -0.206  12.855  22.735  0.00  0.00    +0.000 NA
ATOM     25  C   UNL     1      -1.218  13.531  23.398  0.00  0.00    +0.000 A 
ATOM     26  C   UNL     1      -1.245  14.781  24.053  0.00  0.00    +0.000 A 
ATOM     27  C   UNL     1      -2.426  15.184  24.697  0.00  0.00    +0.000 A 
ATOM     28  C   UNL     1      -3.565  14.374  24.693  0.00  0.00    +0.000 A 
ATOM     29  C   UNL     1      -3.570  13.152  24.015  0.00  0.00    +0.000 A 
ATOM     30  C   UNL     1      -2.384  12.777  23.388  0.00  0.00    +0.000 A 
ATOM     31  N   UNL     1      -2.059  11.669  22.648  0.00  0.00    +0.000 N 
ATOM     32  H   UNL     1      -2.699  10.931  22.423  0.00  0.00    +0.000 HD
ENDBRANCH  20  23
ENDBRANCH   3  17
TORSDOF 5
ENDMDL
MODEL 8
REMARK VINA RESULT:      -9.0      1.353      1.728
REMARK  Name = 
REMARK  7 active torsions:
REMARK  status: ('A' for Active; 'I' for Inactive)
REMARK    1  A    between atoms: C_1  and  C_2
REMARK    2  A    between atoms: C_2  and  C_3
REMARK    3  A    between atoms: C_6  and  S_7
REMARK    4  A    between atoms: S_7  and  C_8
REMARK    5  A    between atoms: C_12  and  C_13
REMARK    6  A    between atoms: N_15  and  C_16
REMARK    7  A    between atoms: C_19  and  C_20
REMARK                            x       y       z     vdW  Elec       q    Type
REMARK                         _______ _______ _______ _____ _____    ______ ____
ROOT
ATOM      1  C   UNL     1       2.500   6.671  19.076  0.00  0.00    +0.000 C 
ATOM      2  O   UNL     1       2.107   6.264  20.169  0.00  0.00    +0.000 OA
ATOM      3  N   UNL     1       2.185   7.917  18.532  0.00  0.00    +0.000 N 
ATOM      4  H   UNL     1       2.422   8.084  17.562  0.00  0.00    +0.000 HD
ENDROOT
BRANCH   1  10
ATOM      5  C   UNL     1       2.876   4.555  17.663  0.00  0.00    +0.000 A 
ATOM      6  C   UNL     1       3.764   3.692  16.987  0.00  0.00    +0.000 A 
ATOM      7  C   UNL     1       5.124   3.966  16.911  0.00  0.00    +0.000 A 
ATOM      8  C   UNL     1       5.613   5.113  17.530  0.00  0.00    +0.000 A 
ATOM      9  C   UNL     1       4.755   6.010  18.188  0.00  0.00    +0.000 A 
ATOM     10  C   UNL     1       3.375   5.747  18.265  0.00  0.00    +0.000 A 
BRANCH   8  11
ATOM     11  S   UNL     1       7.357   5.447  17.455  0.00  0.00    +0.000 S 
ATOM     12  C   UNL     1       7.775   5.855  19.131  0.00  0.00    +0.000 C 
ATOM     13  O   UNL     1       8.027   4.206  17.112  0.00  0.00    +0.000 OA
ATOM     14  O   UNL     1       7.523   6.632  16.638  0.00  0.00    +0.000 OA
ENDBRANCH   8  11
BRANCH   5  16
ATOM     15  C   UNL     1       1.195   3.006  18.737  0.00  0.00    +0.000 C 
ATOM     16  C   UNL     1       1.429   4.106  17.708  0.00  0.00    +0.000 C 
ENDBRANCH   5  16
ENDBRANCH   1  10
BRANCH   3  17
ATOM     17  C   UNL     1       1.370   8.912  19.159  0.00  0.00    +0.000 A 
ATOM     18  C   UNL     1       1.155   8.979  20.539  0.00  0.00    +0.000 A 
ATOM     19  C   UNL     1       0.277   9.922  21.111  0.00  0.00    +0.000 A 
ATOM     20  C   UNL     1      -0.412  10.848  20.323  0.00  0.00    +0.000 A 
ATOM     21  C   UNL     1      -0.156  10.811  18.939  0.00  0.00    +0.000 A 
ATOM     22  C   UNL     1       0.730   9.871  18.367  0.00  0.00    +0.000 A 
BRANCH  20  23
ATOM     23  C   UNL     1      -1.373  11.795  20.934  0.00  0.00    +0.000 A 
ATOM     24  N   UNL     1      -1.960  12.848  20.377  0.00  0.00    +0.000 NA
ATOM     25  C   UNL     1      -2.702  13.464  21.372  0.00  0.00    +0.000 A 
ATOM     26  C   UNL     1      -3.514  14.618  21.365  0.00  0.00    +0.000 A 
ATOM     27  C   UNL     1      -4.107  15.039  22.566  0.00  0.00    +0.000 A 
ATOM     28  C   UNL     1      -3.910  14.332  23.755  0.00  0.00    +0.000 A 
ATOM     29  C   UNL     1      -3.144  13.164  23.774  0.00  0.00    +0.000 A 
ATOM     30  C   UNL     1      -2.565  12.773  22.569  0.00  0.00    +0.000 A 
ATOM     31  N   UNL     1      -1.778  11.698  22.246  0.00  0.00    +0.000 N 
ATOM     32  H   UNL     1      -1.514  10.976  22.888  0.00  0.00    +0.000 HD
ENDBRANCH  20  23
ENDBRANCH   3  17
TORSDOF 5
ENDMDL
MODEL 9
REMARK VINA RESULT:      -9.0      0.796      1.763
REMARK  Name = 
REMARK  7 active torsions:
REMARK  status: ('A' for Active; 'I' for Inactive)
REMARK    1  A    between atoms: C_1  and  C_2
REMARK    2  A    between atoms: C_2  and  C_3
REMARK    3  A    between atoms: C_6  and  S_7
REMARK    4  A    between atoms: S_7  and  C_8
REMARK    5  A    between atoms: C_12  and  C_13
REMARK    6  A    between atoms: N_15  and  C_16
REMARK    7  A    between atoms: C_19  and  C_20
REMARK                            x       y       z     vdW  Elec       q    Type
REMARK                         _______ _______ _______ _____ _____    ______ ____
ROOT
ATOM      1  C   UNL     1       2.641   7.315  18.329  0.00  0.00    +0.000 C 
ATOM      2  O   UNL     1       2.428   8.259  17.568  0.00  0.00    +0.000 OA
ATOM      3  N   UNL     1       2.270   7.281  19.675  0.00  0.00    +0.000 N 
ATOM      4  H   UNL     1       2.637   6.532  20.248  0.00  0.00    +0.000 HD
ENDROOT
BRANCH   1  10
ATOM      5  C   UNL     1       2.783   4.817  17.735  0.00  0.00    +0.000 A 
ATOM      6  C   UNL     1       3.543   3.723  17.271  0.00  0.00    +0.000 A 
ATOM      7  C   UNL     1       4.861   3.881  16.859  0.00  0.00    +0.000 A 
ATOM      8  C   UNL     1       5.437   5.145  16.922  0.00  0.00    +0.000 A 
ATOM      9  C   UNL     1       4.703   6.262  17.353  0.00  0.00    +0.000 A 
ATOM     10  C   UNL     1       3.365   6.118  17.766  0.00  0.00    +0.000 A 
BRANCH   8  11
ATOM     11  S   UNL     1       7.132   5.338  16.421  0.00  0.00    +0.000 S 
ATOM     12  C   UNL     1       7.105   4.923  14.695  0.00  0.00    +0.000 C 
ATOM     13  O   UNL     1       7.467   6.745  16.542  0.00  0.00    +0.000 OA
ATOM     14  O   UNL     1       7.896   4.329  17.125  0.00  0.00    +0.000 OA
ENDBRANCH   8  11
BRANCH   5  16
ATOM     15  C   UNL     1       1.363   3.696  19.499  0.00  0.00    +0.000 C 
ATOM     16  C   UNL     1       1.376   4.491  18.198  0.00  0.00    +0.000 C 
ENDBRANCH   5  16
ENDBRANCH   1  10
BRANCH   3  17
ATOM     17  C   UNL     1       1.582   8.325  20.370  0.00  0.00    +0.000 A 
ATOM     18  C   UNL     1       1.379   8.331  21.754  0.00  0.00    +0.000 A 
ATOM     19  C   UNL     1       0.622   9.335  22.391  0.00  0.00    +0.000 A 
ATOM     20  C   UNL     1       0.048  10.383  21.668  0.00  0.00    +0.000 A 
ATOM     21  C   UNL     1       0.295  10.404  20.282  0.00  0.00    +0.000 A 
ATOM     22  C   UNL     1       1.061   9.401  19.645  0.00  0.00    +0.000 A 
BRANCH  20  23
ATOM     23  C   UNL     1      -0.792  11.400  22.345  0.00  0.00    +0.000 A 
ATOM     24  N   UNL     1      -1.901  11.214  23.052  0.00  0.00    +0.000 NA
ATOM     25  C   UNL     1      -2.363  12.471  23.406  0.00  0.00    +0.000 A 
ATOM     26  C   UNL     1      -3.494  12.888  24.140  0.00  0.00    +0.000 A 
ATOM     27  C   UNL     1      -3.738  14.263  24.290  0.00  0.00    +0.000 A 
ATOM     28  C   UNL     1      -2.880  15.213  23.732  0.00  0.00    +0.000 A 
ATOM     29  C   UNL     1      -1.733  14.822  23.037  0.00  0.00    +0.000 A 
ATOM     30  C   UNL     1      -1.519  13.452  22.901  0.00  0.00    +0.000 A 
ATOM     31  N   UNL     1      -0.511  12.746  22.297  0.00  0.00    +0.000 N 
ATOM     32  H   UNL     1       0.287  13.162  21.856  0.00  0.00    +0.000 HD
ENDBRANCH  20  23
ENDBRANCH   3  17
TORSDOF 5
ENDMDL
