MODEL 1
REMARK VINA RESULT:      -9.5      0.000      0.000
REMARK  Name = 
REMARK  5 active torsions:
REMARK  status: ('A' for Active; 'I' for Inactive)
REMARK    1  A    between atoms: C_2  and  C_24
REMARK    2  A    between atoms: N_3  and  C_4
REMARK    3  A    between atoms: C_4  and  C_5
REMARK    4  A    between atoms: C_5  and  C_6
REMARK    5  A    between atoms: N_8  and  C_9
REMARK                            x       y       z     vdW  Elec       q    Type
REMARK                         _______ _______ _______ _____ _____    ______ ____
ROOT
ATOM      1  C   UNL     1       7.627   5.924  17.636  0.00  0.00    +0.000 C 
ATOM      2  C   UNL     1       6.873   5.256  18.822  0.00  0.00    +0.000 C 
ATOM      3  N   UNL     1       5.556   4.855  18.309  0.00  0.00    +0.000 N 
ATOM      4  C   UNL     1       5.761   4.640  16.928  0.00  0.00    +0.000 A 
ATOM      5  C   UNL     1       4.973   3.926  16.039  0.00  0.00    +0.000 A 
ATOM      6  C   UNL     1       5.334   3.886  14.690  0.00  0.00    +0.000 A 
ATOM      7  C   UNL     1       6.497   4.529  14.247  0.00  0.00    +0.000 A 
ATOM      8  C   UNL     1       7.320   5.208  15.147  0.00  0.00    +0.000 A 
ATOM      9  C   UNL     1       6.941   5.247  16.479  0.00  0.00    +0.000 A 
ENDROOT
BRANCH   3  10
ATOM     10  C   UNL     1       4.618   4.298  19.167  0.00  0.00    +0.000 A 
ATOM     11  N   UNL     1       4.768   3.018  19.618  0.00  0.00    +0.000 NA
ATOM     12  C   UNL     1       3.809   2.482  20.403  0.00  0.00    +0.000 A 
ATOM     13  N   UNL     1       2.685   3.062  20.857  0.00  0.00    +0.000 NA
ATOM     14  C   UNL     1       2.608   4.336  20.448  0.00  0.00    +0.000 A 
ATOM     15  N   UNL     1       1.616   5.228  20.741  0.00  0.00    +0.000 N 
ATOM     16  N   UNL     1       1.823   6.459  20.228  0.00  0.00    +0.000 NA
ATOM     17  C   UNL     1       2.987   6.323  19.579  0.00  0.00    +0.000 A 
ATOM     18  C   UNL     1       3.505   5.010  19.647  0.00  0.00    +0.000 A 
ATOM     19  H   UNL     1       0.784   5.057  21.289  0.00  0.00    +0.000 HD
ENDBRANCH   3  10
BRANCH   1  20
ATOM     20  C   UNL     1       7.461   7.449  17.542  0.00  0.00    +0.000 C 
BRANCH  20  21
ATOM     21  C   UNL     1       8.323   8.214  18.545  0.00  0.00    +0.000 C 
BRANCH  21  24
ATOM     22  O   UNL     1       9.351  10.347  20.070  0.00  0.00    +0.000 OA
ATOM     23  C   UNL     1       9.148  10.535  18.867  0.00  0.00    +0.000 C 
ATOM     24  N   UNL     1       8.651   9.536  18.058  0.00  0.00    +0.000 N 
ATOM     25  H   UNL     1       8.367   9.801  17.117  0.00  0.00    +0.000 HD
BRANCH  23  26
ATOM     26  C   UNL     1       9.456  11.874  18.160  0.00  0.00    +0.000 C 
ATOM     27  C   UNL     1       9.934  13.159  18.930  0.00  0.00    +0.000 C 
ATOM     28  C   UNL     1      10.477  13.606  17.533  0.00  0.00    +0.000 C 
ATOM     29  C   UNL     1      10.851  12.095  17.481  0.00  0.00    +0.000 C 
ATOM     30  C   UNL     1      11.855  11.987  18.611  0.00  0.00    +0.000 C 
ATOM     31  N   UNL     1      11.158  12.746  19.662  0.00  0.00    +0.000 NA
ATOM     32  H   UNL     1      11.747  13.530  19.950  0.00  0.00    +0.000 HD
ENDBRANCH  23  26
ENDBRANCH  21  24
ENDBRANCH  20  21
ENDBRANCH   1  20
TORSDOF 5
ENDMDL
MODEL 2
REMARK VINA RESULT:      -9.3      0.650      1.710
REMARK  Name = 
REMARK  5 active torsions:
REMARK  status: ('A' for Active; 'I' for Inactive)
REMARK    1  A    between atoms: C_2  and  C_24
REMARK    2  A    between atoms: N_3  and  C_4
REMARK    3  A    between atoms: C_4  and  C_5
REMARK    4  A    between atoms: C_5  and  C_6
REMARK    5  A    between atoms: N_8  and  C_9
REMARK                            x       y       z     vdW  Elec       q    Type
REMARK                         _______ _______ _______ _____ _____    ______ ____
ROOT
ATOM      1  C   UNL     1       7.517   6.131  17.831  0.00  0.00    +0.000 C 
ATOM      2  C   UNL     1       6.501   5.821  18.967  0.00  0.00    +0.000 C 
ATOM      3  N   UNL     1       5.206   5.580  18.317  0.00  0.00    +0.000 N 
ATOM      4  C   UNL     1       5.537   5.098  17.031  0.00  0.00    +0.000 A 
ATOM      5  C   UNL     1       4.741   4.395  16.141  0.00  0.00    +0.000 A 
ATOM      6  C   UNL     1       5.254   4.062  14.885  0.00  0.00    +0.000 A 
ATOM      7  C   UNL     1       6.569   4.402  14.542  0.00  0.00    +0.000 A 
ATOM      8  C   UNL     1       7.391   5.067  15.454  0.00  0.00    +0.000 A 
ATOM      9  C   UNL     1       6.862   5.400  16.690  0.00  0.00    +0.000 A 
ENDROOT
BRANCH   3  10
ATOM     10  C   UNL     1       4.074   5.354  19.088  0.00  0.00    +0.000 A 
ATOM     11  N   UNL     1       3.125   6.325  19.224  0.00  0.00    +0.000 NA
ATOM     12  C   UNL     1       2.064   6.099  20.028  0.00  0.00    +0.000 A 
ATOM     13  N   UNL     1       1.772   4.989  20.727  0.00  0.00    +0.000 NA
ATOM     14  C   UNL     1       2.692   4.037  20.516  0.00  0.00    +0.000 A 
ATOM     15  N   UNL     1       2.699   2.778  21.045  0.00  0.00    +0.000 N 
ATOM     16  N   UNL     1       3.730   2.016  20.621  0.00  0.00    +0.000 NA
ATOM     17  C   UNL     1       4.396   2.841  19.803  0.00  0.00    +0.000 A 
ATOM     18  C   UNL     1       3.820   4.129  19.729  0.00  0.00    +0.000 A 
ATOM     19  H   UNL     1       2.027   2.383  21.690  0.00  0.00    +0.000 HD
ENDBRANCH   3  10
BRANCH   1  20
ATOM     20  C   UNL     1       7.675   7.622  17.494  0.00  0.00    +0.000 C 
BRANCH  20  21
ATOM     21  C   UNL     1       8.454   8.402  18.552  0.00  0.00    +0.000 C 
BRANCH  21  24
ATOM     22  O   UNL     1       9.334  10.544  20.156  0.00  0.00    +0.000 OA
ATOM     23  C   UNL     1       9.181  10.745  18.948  0.00  0.00    +0.000 C 
ATOM     24  N   UNL     1       8.758   9.743  18.101  0.00  0.00    +0.000 N 
ATOM     25  H   UNL     1       8.509  10.014  17.152  0.00  0.00    +0.000 HD
BRANCH  23  26
ATOM     26  C   UNL     1       9.474  12.106  18.277  0.00  0.00    +0.000 C 
ATOM     27  C   UNL     1      10.119  13.318  19.044  0.00  0.00    +0.000 C 
ATOM     28  C   UNL     1      10.506  13.818  17.613  0.00  0.00    +0.000 C 
ATOM     29  C   UNL     1      10.782  12.295  17.436  0.00  0.00    +0.000 C 
ATOM     30  C   UNL     1      11.913  12.070  18.419  0.00  0.00    +0.000 C 
ATOM     31  N   UNL     1      11.399  12.801  19.589  0.00  0.00    +0.000 NA
ATOM     32  H   UNL     1      12.065  13.536  19.838  0.00  0.00    +0.000 HD
ENDBRANCH  23  26
ENDBRANCH  21  24
ENDBRANCH  20  21
ENDBRANCH   1  20
TORSDOF 5
ENDMDL
MODEL 3
REMARK VINA RESULT:      -9.1      4.718      8.069
REMARK  Name = 
REMARK  5 active torsions:
REMARK  status: ('A' for Active; 'I' for Inactive)
REMARK    1  A    between atoms: C_2  and  C_24
REMARK    2  A    between atoms: N_3  and  C_4
REMARK    3  A    between atoms: C_4  and  C_5
REMARK    4  A    between atoms: C_5  and  C_6
REMARK    5  A    between atoms: N_8  and  C_9
REMARK                            x       y       z     vdW  Elec       q    Type
REMARK                         _______ _______ _______ _____ _____    ______ ____
ROOT
ATOM      1  C   UNL     1       1.992   6.289  18.957  0.00  0.00    +0.000 C 
ATOM      2  C   UNL     1       3.241   6.147  18.041  0.00  0.00    +0.000 C 
ATOM      3  N   UNL     1       4.160   5.227  18.724  0.00  0.00    +0.000 N 
ATOM      4  C   UNL     1       3.322   4.403  19.510  0.00  0.00    +0.000 A 
ATOM      5  C   UNL     1       3.604   3.168  20.070  0.00  0.00    +0.000 A 
ATOM      6  C   UNL     1       2.640   2.545  20.867  0.00  0.00    +0.000 A 
ATOM      7  C   UNL     1       1.391   3.145  21.068  0.00  0.00    +0.000 A 
ATOM      8  C   UNL     1       1.084   4.366  20.466  0.00  0.00    +0.000 A 
ATOM      9  C   UNL     1       2.055   4.975  19.688  0.00  0.00    +0.000 A 
ENDROOT
BRANCH   3  10
ATOM     10  C   UNL     1       5.410   4.963  18.181  0.00  0.00    +0.000 A 
ATOM     11  N   UNL     1       6.522   4.967  18.972  0.00  0.00    +0.000 NA
ATOM     12  C   UNL     1       7.731   4.768  18.406  0.00  0.00    +0.000 A 
ATOM     13  N   UNL     1       8.015   4.520  17.115  0.00  0.00    +0.000 NA
ATOM     14  C   UNL     1       6.893   4.459  16.384  0.00  0.00    +0.000 A 
ATOM     15  N   UNL     1       6.805   4.203  15.046  0.00  0.00    +0.000 N 
ATOM     16  N   UNL     1       5.537   4.159  14.583  0.00  0.00    +0.000 NA
ATOM     17  C   UNL     1       4.809   4.409  15.678  0.00  0.00    +0.000 A 
ATOM     18  C   UNL     1       5.600   4.645  16.825  0.00  0.00    +0.000 A 
ATOM     19  H   UNL     1       7.569   4.045  14.403  0.00  0.00    +0.000 HD
ENDBRANCH   3  10
BRANCH   1  20
ATOM     20  C   UNL     1       2.050   7.460  19.951  0.00  0.00    +0.000 C 
BRANCH  20  21
ATOM     21  C   UNL     1       1.873   8.825  19.288  0.00  0.00    +0.000 C 
BRANCH  21  24
ATOM     22  O   UNL     1       0.881  11.329  18.462  0.00  0.00    +0.000 OA
ATOM     23  C   UNL     1       0.081  10.506  18.917  0.00  0.00    +0.000 C 
ATOM     24  N   UNL     1       0.493   9.260  19.335  0.00  0.00    +0.000 N 
ATOM     25  H   UNL     1      -0.187   8.691  19.836  0.00  0.00    +0.000 HD
BRANCH  23  26
ATOM     26  C   UNL     1      -1.436  10.779  19.028  0.00  0.00    +0.000 C 
ATOM     27  C   UNL     1      -2.119  12.070  18.444  0.00  0.00    +0.000 C 
ATOM     28  C   UNL     1      -3.426  11.211  18.492  0.00  0.00    +0.000 C 
ATOM     29  C   UNL     1      -2.423  10.124  18.003  0.00  0.00    +0.000 C 
ATOM     30  C   UNL     1      -2.006  10.673  16.654  0.00  0.00    +0.000 C 
ATOM     31  N   UNL     1      -1.765  12.083  17.002  0.00  0.00    +0.000 NA
ATOM     32  H   UNL     1      -2.378  12.673  16.435  0.00  0.00    +0.000 HD
ENDBRANCH  23  26
ENDBRANCH  21  24
ENDBRANCH  20  21
ENDBRANCH   1  20
TORSDOF 5
ENDMDL
MODEL 4
REMARK VINA RESULT:      -8.8      1.062      1.495
REMARK  Name = 
REMARK  5 active torsions:
REMARK  status: ('A' for Active; 'I' for Inactive)
REMARK    1  A    between atoms: C_2  and  C_24
REMARK    2  A    between atoms: N_3  and  C_4
REMARK    3  A    between atoms: C_4  and  C_5
REMARK    4  A    between atoms: C_5  and  C_6
REMARK    5  A    between atoms: N_8  and  C_9
REMARK                            x       y       z     vdW  Elec       q    Type
REMARK                         _______ _______ _______ _____ _____    ______ ____
ROOT
ATOM      1  C   UNL     1       7.484   6.312  17.842  0.00  0.00    +0.000 C 
ATOM      2  C   UNL     1       6.777   5.548  18.997  0.00  0.00    +0.000 C 
ATOM      3  N   UNL     1       5.571   4.938  18.420  0.00  0.00    +0.000 N 
ATOM      4  C   UNL     1       5.887   4.741  17.057  0.00  0.00    +0.000 A 
ATOM      5  C   UNL     1       5.274   3.902  16.140  0.00  0.00    +0.000 A 
ATOM      6  C   UNL     1       5.714   3.905  14.814  0.00  0.00    +0.000 A 
ATOM      7  C   UNL     1       6.786   4.717  14.424  0.00  0.00    +0.000 A 
ATOM      8  C   UNL     1       7.438   5.528  15.354  0.00  0.00    +0.000 A 
ATOM      9  C   UNL     1       6.981   5.522  16.662  0.00  0.00    +0.000 A 
ENDROOT
BRANCH   3  10
ATOM     10  C   UNL     1       4.683   4.250  19.236  0.00  0.00    +0.000 A 
ATOM     11  N   UNL     1       4.947   2.966  19.616  0.00  0.00    +0.000 NA
ATOM     12  C   UNL     1       4.038   2.300  20.360  0.00  0.00    +0.000 A 
ATOM     13  N   UNL     1       2.863   2.749  20.834  0.00  0.00    +0.000 NA
ATOM     14  C   UNL     1       2.671   4.032  20.496  0.00  0.00    +0.000 A 
ATOM     15  N   UNL     1       1.600   4.811  20.827  0.00  0.00    +0.000 N 
ATOM     16  N   UNL     1       1.696   6.083  20.385  0.00  0.00    +0.000 NA
ATOM     17  C   UNL     1       2.870   6.090  19.743  0.00  0.00    +0.000 A 
ATOM     18  C   UNL     1       3.506   4.829  19.742  0.00  0.00    +0.000 A 
ATOM     19  H   UNL     1       0.784   4.534  21.356  0.00  0.00    +0.000 HD
ENDBRANCH   3  10
BRANCH   1  20
ATOM     20  C   UNL     1       7.087   7.790  17.707  0.00  0.00    +0.000 C 
BRANCH  20  21
ATOM     21  C   UNL     1       8.283   8.723  17.522  0.00  0.00    +0.000 C 
BRANCH  21  24
ATOM     22  O   UNL     1       9.992  10.947  17.778  0.00  0.00    +0.000 OA
ATOM     23  C   UNL     1       9.450  10.508  18.797  0.00  0.00    +0.000 C 
ATOM     24  N   UNL     1       8.598   9.426  18.747  0.00  0.00    +0.000 N 
ATOM     25  H   UNL     1       8.307   9.025  19.636  0.00  0.00    +0.000 HD
BRANCH  23  26
ATOM     26  C   UNL     1       9.647  11.137  20.195  0.00  0.00    +0.000 C 
ATOM     27  C   UNL     1      10.731  12.237  20.493  0.00  0.00    +0.000 C 
ATOM     28  C   UNL     1       9.826  12.573  21.725  0.00  0.00    +0.000 C 
ATOM     29  C   UNL     1       8.721  12.313  20.658  0.00  0.00    +0.000 C 
ATOM     30  C   UNL     1       8.981  13.428  19.665  0.00  0.00    +0.000 C 
ATOM     31  N   UNL     1      10.445  13.339  19.540  0.00  0.00    +0.000 NA
ATOM     32  H   UNL     1      10.856  14.234  19.815  0.00  0.00    +0.000 HD
ENDBRANCH  23  26
ENDBRANCH  21  24
ENDBRANCH  20  21
ENDBRANCH   1  20
TORSDOF 5
ENDMDL
MODEL 5
REMARK VINA RESULT:      -8.8      4.690      7.360
REMARK  Name = 
REMARK  5 active torsions:
REMARK  status: ('A' for Active; 'I' for Inactive)
REMARK    1  A    between atoms: C_2  and  C_24
REMARK    2  A    between atoms: N_3  and  C_4
REMARK    3  A    between atoms: C_4  and  C_5
REMARK    4  A    between atoms: C_5  and  C_6
REMARK    5  A    between atoms: N_8  and  C_9
REMARK                            x       y       z     vdW  Elec       q    Type
REMARK                         _______ _______ _______ _____ _____    ______ ____
ROOT
ATOM      1  C   UNL     1       2.093   6.444  19.375  0.00  0.00    +0.000 C 
ATOM      2  C   UNL     1       3.348   6.376  18.459  0.00  0.00    +0.000 C 
ATOM      3  N   UNL     1       4.181   5.280  18.970  0.00  0.00    +0.000 N 
ATOM      4  C   UNL     1       3.268   4.393  19.584  0.00  0.00    +0.000 A 
ATOM      5  C   UNL     1       3.447   3.059  19.911  0.00  0.00    +0.000 A 
ATOM      6  C   UNL     1       2.423   2.376  20.572  0.00  0.00    +0.000 A 
ATOM      7  C   UNL     1       1.216   3.022  20.868  0.00  0.00    +0.000 A 
ATOM      8  C   UNL     1       1.012   4.352  20.498  0.00  0.00    +0.000 A 
ATOM      9  C   UNL     1       2.043   5.017  19.853  0.00  0.00    +0.000 A 
ENDROOT
BRANCH   3  10
ATOM     10  C   UNL     1       5.421   5.026  18.399  0.00  0.00    +0.000 A 
ATOM     11  N   UNL     1       6.554   5.073  19.157  0.00  0.00    +0.000 NA
ATOM     12  C   UNL     1       7.751   4.882  18.563  0.00  0.00    +0.000 A 
ATOM     13  N   UNL     1       8.004   4.604  17.272  0.00  0.00    +0.000 NA
ATOM     14  C   UNL     1       6.863   4.501  16.575  0.00  0.00    +0.000 A 
ATOM     15  N   UNL     1       6.743   4.207  15.247  0.00  0.00    +0.000 N 
ATOM     16  N   UNL     1       5.465   4.125  14.822  0.00  0.00    +0.000 NA
ATOM     17  C   UNL     1       4.762   4.391  15.930  0.00  0.00    +0.000 A 
ATOM     18  C   UNL     1       5.580   4.674  17.047  0.00  0.00    +0.000 A 
ATOM     19  H   UNL     1       7.493   4.045  14.588  0.00  0.00    +0.000 HD
ENDBRANCH   3  10
BRANCH   1  20
ATOM     20  C   UNL     1       2.213   7.407  20.566  0.00  0.00    +0.000 C 
BRANCH  20  21
ATOM     21  C   UNL     1       0.927   8.180  20.852  0.00  0.00    +0.000 C 
BRANCH  21  24
ATOM     22  O   UNL     1       0.511  10.572  22.281  0.00  0.00    +0.000 OA
ATOM     23  C   UNL     1       0.767  10.649  21.076  0.00  0.00    +0.000 C 
ATOM     24  N   UNL     1       0.988   9.522  20.314  0.00  0.00    +0.000 N 
ATOM     25  H   UNL     1       1.043   9.648  19.306  0.00  0.00    +0.000 HD
BRANCH  23  26
ATOM     26  C   UNL     1       0.895  11.995  20.327  0.00  0.00    +0.000 C 
ATOM     27  C   UNL     1       0.993  12.098  18.761  0.00  0.00    +0.000 C 
ATOM     28  C   UNL     1       0.511  13.570  18.982  0.00  0.00    +0.000 C 
ATOM     29  C   UNL     1      -0.387  12.846  20.029  0.00  0.00    +0.000 C 
ATOM     30  C   UNL     1      -1.244  11.964  19.144  0.00  0.00    +0.000 C 
ATOM     31  N   UNL     1      -0.217  11.410  18.245  0.00  0.00    +0.000 NA
ATOM     32  H   UNL     1      -0.452  11.660  17.282  0.00  0.00    +0.000 HD
ENDBRANCH  23  26
ENDBRANCH  21  24
ENDBRANCH  20  21
ENDBRANCH   1  20
TORSDOF 5
ENDMDL
MODEL 6
REMARK VINA RESULT:      -8.8      4.558      7.676
REMARK  Name = 
REMARK  5 active torsions:
REMARK  status: ('A' for Active; 'I' for Inactive)
REMARK    1  A    between atoms: C_2  and  C_24
REMARK    2  A    between atoms: N_3  and  C_4
REMARK    3  A    between atoms: C_4  and  C_5
REMARK    4  A    between atoms: C_5  and  C_6
REMARK    5  A    between atoms: N_8  and  C_9
REMARK                            x       y       z     vdW  Elec       q    Type
REMARK                         _______ _______ _______ _____ _____    ______ ____
ROOT
ATOM      1  C   UNL     1       1.727   6.120  18.922  0.00  0.00    +0.000 C 
ATOM      2  C   UNL     1       2.820   5.944  17.830  0.00  0.00    +0.000 C 
ATOM      3  N   UNL     1       3.872   5.107  18.421  0.00  0.00    +0.000 N 
ATOM      4  C   UNL     1       3.203   4.322  19.387  0.00  0.00    +0.000 A 
ATOM      5  C   UNL     1       3.622   3.142  19.982  0.00  0.00    +0.000 A 
ATOM      6  C   UNL     1       2.822   2.555  20.966  0.00  0.00    +0.000 A 
ATOM      7  C   UNL     1       1.597   3.131  21.321  0.00  0.00    +0.000 A 
ATOM      8  C   UNL     1       1.148   4.293  20.691  0.00  0.00    +0.000 A 
ATOM      9  C   UNL     1       1.959   4.868  19.725  0.00  0.00    +0.000 A 
ENDROOT
BRANCH   3  10
ATOM     10  C   UNL     1       5.031   4.839  17.704  0.00  0.00    +0.000 A 
ATOM     11  N   UNL     1       4.964   4.504  16.383  0.00  0.00    +0.000 NA
ATOM     12  C   UNL     1       6.101   4.190  15.726  0.00  0.00    +0.000 A 
ATOM     13  N   UNL     1       7.360   4.190  16.197  0.00  0.00    +0.000 NA
ATOM     14  C   UNL     1       7.390   4.588  17.477  0.00  0.00    +0.000 A 
ATOM     15  N   UNL     1       8.499   4.729  18.261  0.00  0.00    +0.000 N 
ATOM     16  N   UNL     1       8.233   5.190  19.501  0.00  0.00    +0.000 NA
ATOM     17  C   UNL     1       6.901   5.332  19.490  0.00  0.00    +0.000 A 
ATOM     18  C   UNL     1       6.315   4.933  18.268  0.00  0.00    +0.000 A 
ATOM     19  H   UNL     1       9.457   4.533  18.004  0.00  0.00    +0.000 HD
ENDBRANCH   3  10
BRANCH   1  20
ATOM     20  C   UNL     1       1.892   7.365  19.807  0.00  0.00    +0.000 C 
BRANCH  20  21
ATOM     21  C   UNL     1       1.920   8.671  19.015  0.00  0.00    +0.000 C 
BRANCH  21  24
ATOM     22  O   UNL     1       1.796  11.437  18.493  0.00  0.00    +0.000 OA
ATOM     23  C   UNL     1       0.899  10.931  19.174  0.00  0.00    +0.000 C 
ATOM     24  N   UNL     1       0.892   9.584  19.465  0.00  0.00    +0.000 N 
ATOM     25  H   UNL     1       0.212   9.263  20.151  0.00  0.00    +0.000 HD
BRANCH  23  26
ATOM     26  C   UNL     1      -0.296  11.740  19.727  0.00  0.00    +0.000 C 
ATOM     27  C   UNL     1      -0.754  13.116  19.119  0.00  0.00    +0.000 C 
ATOM     28  C   UNL     1      -2.117  12.793  19.817  0.00  0.00    +0.000 C 
ATOM     29  C   UNL     1      -1.755  11.372  19.292  0.00  0.00    +0.000 C 
ATOM     30  C   UNL     1      -1.778  11.581  17.791  0.00  0.00    +0.000 C 
ATOM     31  N   UNL     1      -1.023  12.840  17.685  0.00  0.00    +0.000 NA
ATOM     32  H   UNL     1      -1.615  13.544  17.238  0.00  0.00    +0.000 HD
ENDBRANCH  23  26
ENDBRANCH  21  24
ENDBRANCH  20  21
ENDBRANCH   1  20
TORSDOF 5
ENDMDL
MODEL 7
REMARK VINA RESULT:      -8.8      4.025      7.696
REMARK  Name = 
REMARK  5 active torsions:
REMARK  status: ('A' for Active; 'I' for Inactive)
REMARK    1  A    between atoms: C_2  and  C_24
REMARK    2  A    between atoms: N_3  and  C_4
REMARK    3  A    between atoms: C_4  and  C_5
REMARK    4  A    between atoms: C_5  and  C_6
REMARK    5  A    between atoms: N_8  and  C_9
REMARK                            x       y       z     vdW  Elec       q    Type
REMARK                         _______ _______ _______ _____ _____    ______ ____
ROOT
ATOM      1  C   UNL     1       1.750   5.881  19.153  0.00  0.00    +0.000 C 
ATOM      2  C   UNL     1       2.646   5.806  17.884  0.00  0.00    +0.000 C 
ATOM      3  N   UNL     1       3.859   5.074  18.270  0.00  0.00    +0.000 N 
ATOM      4  C   UNL     1       3.447   4.232  19.328  0.00  0.00    +0.000 A 
ATOM      5  C   UNL     1       4.073   3.099  19.824  0.00  0.00    +0.000 A 
ATOM      6  C   UNL     1       3.517   2.442  20.924  0.00  0.00    +0.000 A 
ATOM      7  C   UNL     1       2.325   2.900  21.497  0.00  0.00    +0.000 A 
ATOM      8  C   UNL     1       1.665   4.012  20.971  0.00  0.00    +0.000 A 
ATOM      9  C   UNL     1       2.236   4.659  19.886  0.00  0.00    +0.000 A 
ENDROOT
BRANCH   3  10
ATOM     10  C   UNL     1       4.894   4.916  17.358  0.00  0.00    +0.000 A 
ATOM     11  N   UNL     1       4.936   3.821  16.544  0.00  0.00    +0.000 NA
ATOM     12  C   UNL     1       5.985   3.662  15.709  0.00  0.00    +0.000 A 
ATOM     13  N   UNL     1       7.034   4.483  15.528  0.00  0.00    +0.000 NA
ATOM     14  C   UNL     1       6.922   5.577  16.295  0.00  0.00    +0.000 A 
ATOM     15  N   UNL     1       7.792   6.628  16.348  0.00  0.00    +0.000 N 
ATOM     16  N   UNL     1       7.401   7.615  17.181  0.00  0.00    +0.000 NA
ATOM     17  C   UNL     1       6.246   7.152  17.675  0.00  0.00    +0.000 A 
ATOM     18  C   UNL     1       5.915   5.867  17.190  0.00  0.00    +0.000 A 
ATOM     19  H   UNL     1       8.659   6.730  15.836  0.00  0.00    +0.000 HD
ENDBRANCH   3  10
BRANCH   1  20
ATOM     20  C   UNL     1       1.950   7.139  20.012  0.00  0.00    +0.000 C 
BRANCH  20  21
ATOM     21  C   UNL     1       1.972   8.431  19.197  0.00  0.00    +0.000 C 
BRANCH  21  24
ATOM     22  O   UNL     1       1.606  11.083  18.322  0.00  0.00    +0.000 OA
ATOM     23  C   UNL     1       0.803  10.622  19.139  0.00  0.00    +0.000 C 
ATOM     24  N   UNL     1       0.917   9.331  19.608  0.00  0.00    +0.000 N 
ATOM     25  H   UNL     1       0.317   9.068  20.387  0.00  0.00    +0.000 HD
BRANCH  23  26
ATOM     26  C   UNL     1      -0.402  11.425  19.680  0.00  0.00    +0.000 C 
ATOM     27  C   UNL     1      -0.780  12.859  19.157  0.00  0.00    +0.000 C 
ATOM     28  C   UNL     1      -2.194  12.529  19.739  0.00  0.00    +0.000 C 
ATOM     29  C   UNL     1      -1.839  11.142  19.126  0.00  0.00    +0.000 C 
ATOM     30  C   UNL     1      -1.758  11.469  17.648  0.00  0.00    +0.000 C 
ATOM     31  N   UNL     1      -0.963  12.707  17.692  0.00  0.00    +0.000 NA
ATOM     32  H   UNL     1      -1.504  13.463  17.266  0.00  0.00    +0.000 HD
ENDBRANCH  23  26
ENDBRANCH  21  24
ENDBRANCH  20  21
ENDBRANCH   1  20
TORSDOF 5
ENDMDL
MODEL 8
REMARK VINA RESULT:      -8.8      4.265      7.370
REMARK  Name = 
REMARK  5 active torsions:
REMARK  status: ('A' for Active; 'I' for Inactive)
REMARK    1  A    between atoms: C_2  and  C_24
REMARK    2  A    between atoms: N_3  and  C_4
REMARK    3  A    between atoms: C_4  and  C_5
REMARK    4  A    between atoms: C_5  and  C_6
REMARK    5  A    between atoms: N_8  and  C_9
REMARK                            x       y       z     vdW  Elec       q    Type
REMARK                         _______ _______ _______ _____ _____    ______ ____
ROOT
ATOM      1  C   UNL     1       1.718   5.855  19.190  0.00  0.00    +0.000 C 
ATOM      2  C   UNL     1       3.096   6.335  18.654  0.00  0.00    +0.000 C 
ATOM      3  N   UNL     1       4.049   5.248  18.915  0.00  0.00    +0.000 N 
ATOM      4  C   UNL     1       3.262   4.075  18.914  0.00  0.00    +0.000 A 
ATOM      5  C   UNL     1       3.672   2.760  18.760  0.00  0.00    +0.000 A 
ATOM      6  C   UNL     1       2.725   1.737  18.849  0.00  0.00    +0.000 A 
ATOM      7  C   UNL     1       1.373   2.038  19.055  0.00  0.00    +0.000 A 
ATOM      8  C   UNL     1       0.948   3.363  19.162  0.00  0.00    +0.000 A 
ATOM      9  C   UNL     1       1.902   4.364  19.082  0.00  0.00    +0.000 A 
ENDROOT
BRANCH   3  10
ATOM     10  C   UNL     1       5.394   5.418  18.614  0.00  0.00    +0.000 A 
ATOM     11  N   UNL     1       6.330   5.416  19.608  0.00  0.00    +0.000 NA
ATOM     12  C   UNL     1       7.623   5.644  19.294  0.00  0.00    +0.000 A 
ATOM     13  N   UNL     1       8.159   5.850  18.078  0.00  0.00    +0.000 NA
ATOM     14  C   UNL     1       7.220   5.779  17.125  0.00  0.00    +0.000 A 
ATOM     15  N   UNL     1       7.411   5.915  15.780  0.00  0.00    +0.000 N 
ATOM     16  N   UNL     1       6.287   5.751  15.051  0.00  0.00    +0.000 NA
ATOM     17  C   UNL     1       5.357   5.513  15.984  0.00  0.00    +0.000 A 
ATOM     18  C   UNL     1       5.870   5.558  17.299  0.00  0.00    +0.000 A 
ATOM     19  H   UNL     1       8.282   6.113  15.304  0.00  0.00    +0.000 HD
ENDBRANCH   3  10
BRANCH   1  20
ATOM     20  C   UNL     1       1.414   6.255  20.643  0.00  0.00    +0.000 C 
BRANCH  20  21
ATOM     21  C   UNL     1       1.946   7.639  21.012  0.00  0.00    +0.000 C 
BRANCH  21  24
ATOM     22  O   UNL     1       1.438   9.419  18.889  0.00  0.00    +0.000 OA
ATOM     23  C   UNL     1       0.714   9.479  19.887  0.00  0.00    +0.000 C 
ATOM     24  N   UNL     1       0.899   8.637  20.962  0.00  0.00    +0.000 N 
ATOM     25  H   UNL     1       0.368   8.840  21.806  0.00  0.00    +0.000 HD
BRANCH  23  26
ATOM     26  C   UNL     1      -0.469  10.466  20.010  0.00  0.00    +0.000 C 
ATOM     27  C   UNL     1      -0.905  11.115  21.375  0.00  0.00    +0.000 C 
ATOM     28  C   UNL     1      -1.581  12.196  20.468  0.00  0.00    +0.000 C 
ATOM     29  C   UNL     1      -0.260  11.981  19.670  0.00  0.00    +0.000 C 
ATOM     30  C   UNL     1       0.781  12.462  20.661  0.00  0.00    +0.000 C 
ATOM     31  N   UNL     1       0.308  11.801  21.888  0.00  0.00    +0.000 NA
ATOM     32  H   UNL     1       0.107  12.515  22.592  0.00  0.00    +0.000 HD
ENDBRANCH  23  26
ENDBRANCH  21  24
ENDBRANCH  20  21
ENDBRANCH   1  20
TORSDOF 5
ENDMDL
MODEL 9
REMARK VINA RESULT:      -8.7      1.014      2.035
REMARK  Name = 
REMARK  5 active torsions:
REMARK  status: ('A' for Active; 'I' for Inactive)
REMARK    1  A    between atoms: C_2  and  C_24
REMARK    2  A    between atoms: N_3  and  C_4
REMARK    3  A    between atoms: C_4  and  C_5
REMARK    4  A    between atoms: C_5  and  C_6
REMARK    5  A    between atoms: N_8  and  C_9
REMARK                            x       y       z     vdW  Elec       q    Type
REMARK                         _______ _______ _______ _____ _____    ______ ____
ROOT
ATOM      1  C   UNL     1       7.615   6.293  17.749  0.00  0.00    +0.000 C 
ATOM      2  C   UNL     1       6.595   5.964  18.876  0.00  0.00    +0.000 C 
ATOM      3  N   UNL     1       5.301   5.741  18.218  0.00  0.00    +0.000 N 
ATOM      4  C   UNL     1       5.633   5.284  16.922  0.00  0.00    +0.000 A 
ATOM      5  C   UNL     1       4.837   4.603  16.016  0.00  0.00    +0.000 A 
ATOM      6  C   UNL     1       5.352   4.293  14.755  0.00  0.00    +0.000 A 
ATOM      7  C   UNL     1       6.669   4.635  14.423  0.00  0.00    +0.000 A 
ATOM      8  C   UNL     1       7.491   5.278  15.350  0.00  0.00    +0.000 A 
ATOM      9  C   UNL     1       6.960   5.587  16.592  0.00  0.00    +0.000 A 
ENDROOT
BRANCH   3  10
ATOM     10  C   UNL     1       4.166   5.504  18.981  0.00  0.00    +0.000 A 
ATOM     11  N   UNL     1       3.218   6.475  19.131  0.00  0.00    +0.000 NA
ATOM     12  C   UNL     1       2.155   6.237  19.928  0.00  0.00    +0.000 A 
ATOM     13  N   UNL     1       1.858   5.115  20.606  0.00  0.00    +0.000 NA
ATOM     14  C   UNL     1       2.776   4.165  20.379  0.00  0.00    +0.000 A 
ATOM     15  N   UNL     1       2.778   2.896  20.885  0.00  0.00    +0.000 N 
ATOM     16  N   UNL     1       3.807   2.140  20.450  0.00  0.00    +0.000 NA
ATOM     17  C   UNL     1       4.479   2.977  19.650  0.00  0.00    +0.000 A 
ATOM     18  C   UNL     1       3.907   4.268  19.598  0.00  0.00    +0.000 A 
ATOM     19  H   UNL     1       2.103   2.491  21.520  0.00  0.00    +0.000 HD
ENDBRANCH   3  10
BRANCH   1  20
ATOM     20  C   UNL     1       7.780   7.790  17.443  0.00  0.00    +0.000 C 
BRANCH  20  21
ATOM     21  C   UNL     1       8.217   8.611  18.655  0.00  0.00    +0.000 C 
BRANCH  21  24
ATOM     22  O   UNL     1       9.374  10.518  20.376  0.00  0.00    +0.000 OA
ATOM     23  C   UNL     1       9.511  10.672  19.158  0.00  0.00    +0.000 C 
ATOM     24  N   UNL     1       8.977   9.776  18.257  0.00  0.00    +0.000 N 
ATOM     25  H   UNL     1       8.997  10.042  17.274  0.00  0.00    +0.000 HD
BRANCH  23  26
ATOM     26  C   UNL     1      10.306  11.844  18.542  0.00  0.00    +0.000 C 
ATOM     27  C   UNL     1       9.890  12.551  17.200  0.00  0.00    +0.000 C 
ATOM     28  C   UNL     1      10.762  13.735  17.734  0.00  0.00    +0.000 C 
ATOM     29  C   UNL     1      10.075  13.303  19.064  0.00  0.00    +0.000 C 
ATOM     30  C   UNL     1       8.618  13.596  18.768  0.00  0.00    +0.000 C 
ATOM     31  N   UNL     1       8.498  13.018  17.419  0.00  0.00    +0.000 NA
ATOM     32  H   UNL     1       8.206  13.753  16.770  0.00  0.00    +0.000 HD
ENDBRANCH  23  26
ENDBRANCH  21  24
ENDBRANCH  20  21
ENDBRANCH   1  20
TORSDOF 5
ENDMDL
