MODEL 1
REMARK VINA RESULT:      -9.3      0.000      0.000
REMARK  Name = 
REMARK  3 active torsions:
REMARK  status: ('A' for Active; 'I' for Inactive)
REMARK    1  A    between atoms: N_3  and  C_4
REMARK    2  A    between atoms: N_15  and  C_16
REMARK    3  A    between atoms: C_16  and  C_17
REMARK                            x       y       z     vdW  Elec       q    Type
REMARK                         _______ _______ _______ _____ _____    ______ ____
ROOT
ATOM      1  O   UNL     1       2.147   7.420  18.806  0.00  0.00    +0.000 OA
ATOM      2  C   UNL     1       2.205   6.903  19.913  0.00  0.00    +0.000 C 
ATOM      3  N   UNL     1       1.646   7.412  21.071  0.00  0.00    +0.000 N 
ATOM      4  N   UNL     1       2.862   5.718  20.155  0.00  0.00    +0.000 N 
ATOM      5  H   UNL     1       1.491   6.750  21.816  0.00  0.00    +0.000 HD
ATOM      6  H   UNL     1       2.828   5.351  21.091  0.00  0.00    +0.000 HD
ENDROOT
BRANCH   3   7
ATOM      7  C   UNL     1       1.029   8.676  21.209  0.00  0.00    +0.000 A 
ATOM      8  C   UNL     1       0.538   9.416  20.140  0.00  0.00    +0.000 A 
ATOM      9  C   UNL     1      -0.117  10.630  20.369  0.00  0.00    +0.000 A 
ATOM     10  C   UNL     1      -0.246  11.092  21.675  0.00  0.00    +0.000 A 
ATOM     11  N   UNL     1      -0.996  12.286  21.906  0.00  0.00    +0.000 N 
ATOM     12  C   UNL     1      -1.199  12.912  23.119  0.00  0.00    +0.000 A 
ATOM     13  C   UNL     1      -2.048  13.970  22.894  0.00  0.00    +0.000 A 
ATOM     14  C   UNL     1      -2.305  13.925  21.515  0.00  0.00    +0.000 A 
ATOM     15  N   UNL     1      -1.655  12.935  20.903  0.00  0.00    +0.000 NA
ATOM     16  N   UNL     1       0.283  10.428  22.740  0.00  0.00    +0.000 NA
ATOM     17  C   UNL     1       0.897   9.245  22.478  0.00  0.00    +0.000 A 
ENDBRANCH   3   7
BRANCH   4  18
ATOM     18  C   UNL     1       3.452   4.832  19.137  0.00  0.00    +0.000 C 
ATOM     19  C   UNL     1       2.326   4.527  18.113  0.00  0.00    +0.000 C 
ATOM     20  C   UNL     1       2.706   3.216  17.426  0.00  0.00    +0.000 C 
ATOM     21  C   UNL     1       3.721   2.546  18.345  0.00  0.00    +0.000 C 
ATOM     22  C   UNL     1       3.737   3.390  19.618  0.00  0.00    +0.000 C 
BRANCH  18  23
ATOM     23  C   UNL     1       4.707   5.496  18.536  0.00  0.00    +0.000 A 
ATOM     24  C   UNL     1       5.954   5.368  19.185  0.00  0.00    +0.000 A 
ATOM     25  C   UNL     1       7.109   5.971  18.675  0.00  0.00    +0.000 A 
ATOM     26  C   UNL     1       7.040   6.701  17.500  0.00  0.00    +0.000 A 
ATOM     27  F   UNL     1       8.143   7.280  17.008  0.00  0.00    +0.000 F 
ATOM     28  C   UNL     1       5.838   6.834  16.823  0.00  0.00    +0.000 A 
ATOM     29  C   UNL     1       4.681   6.240  17.339  0.00  0.00    +0.000 A 
ENDBRANCH  18  23
ENDBRANCH   4  18
TORSDOF 3
ENDMDL
MODEL 2
REMARK VINA RESULT:      -9.1      0.849      1.101
REMARK  Name = 
REMARK  3 active torsions:
REMARK  status: ('A' for Active; 'I' for Inactive)
REMARK    1  A    between atoms: N_3  and  C_4
REMARK    2  A    between atoms: N_15  and  C_16
REMARK    3  A    between atoms: C_16  and  C_17
REMARK                            x       y       z     vdW  Elec       q    Type
REMARK                         _______ _______ _______ _____ _____    ______ ____
ROOT
ATOM      1  O   UNL     1       1.995   7.453  18.997  0.00  0.00    +0.000 OA
ATOM      2  C   UNL     1       2.117   6.872  20.067  0.00  0.00    +0.000 C 
ATOM      3  N   UNL     1       1.612   7.303  21.280  0.00  0.00    +0.000 N 
ATOM      4  N   UNL     1       2.802   5.686  20.204  0.00  0.00    +0.000 N 
ATOM      5  H   UNL     1       1.504   6.596  21.991  0.00  0.00    +0.000 HD
ATOM      6  H   UNL     1       2.821   5.264  21.117  0.00  0.00    +0.000 HD
ENDROOT
BRANCH   3   7
ATOM      7  C   UNL     1       0.986   8.546  21.525  0.00  0.00    +0.000 A 
ATOM      8  C   UNL     1      -0.192   8.687  22.250  0.00  0.00    +0.000 A 
ATOM      9  C   UNL     1      -0.713   9.960  22.502  0.00  0.00    +0.000 A 
ATOM     10  C   UNL     1      -0.049  11.073  21.996  0.00  0.00    +0.000 A 
ATOM     11  N   UNL     1      -0.538  12.373  22.335  0.00  0.00    +0.000 N 
ATOM     12  C   UNL     1      -0.036  13.583  21.901  0.00  0.00    +0.000 A 
ATOM     13  C   UNL     1      -0.748  14.570  22.541  0.00  0.00    +0.000 A 
ATOM     14  C   UNL     1      -1.671  13.877  23.338  0.00  0.00    +0.000 A 
ATOM     15  N   UNL     1      -1.576  12.554  23.202  0.00  0.00    +0.000 NA
ATOM     16  N   UNL     1       1.068  10.970  21.223  0.00  0.00    +0.000 NA
ATOM     17  C   UNL     1       1.552   9.717  21.015  0.00  0.00    +0.000 A 
ENDBRANCH   3   7
BRANCH   4  18
ATOM     18  C   UNL     1       3.350   4.872  19.107  0.00  0.00    +0.000 C 
ATOM     19  C   UNL     1       2.205   4.695  18.074  0.00  0.00    +0.000 C 
ATOM     20  C   UNL     1       2.532   3.437  17.272  0.00  0.00    +0.000 C 
ATOM     21  C   UNL     1       3.531   2.654  18.117  0.00  0.00    +0.000 C 
ATOM     22  C   UNL     1       3.589   3.385  19.458  0.00  0.00    +0.000 C 
BRANCH  18  23
ATOM     23  C   UNL     1       4.623   5.542  18.548  0.00  0.00    +0.000 A 
ATOM     24  C   UNL     1       5.861   5.360  19.200  0.00  0.00    +0.000 A 
ATOM     25  C   UNL     1       7.032   5.966  18.731  0.00  0.00    +0.000 A 
ATOM     26  C   UNL     1       6.986   6.754  17.592  0.00  0.00    +0.000 A 
ATOM     27  F   UNL     1       8.104   7.336  17.139  0.00  0.00    +0.000 F 
ATOM     28  C   UNL     1       5.793   6.941  16.914  0.00  0.00    +0.000 A 
ATOM     29  C   UNL     1       4.621   6.344  17.390  0.00  0.00    +0.000 A 
ENDBRANCH  18  23
ENDBRANCH   4  18
TORSDOF 3
ENDMDL
MODEL 3
REMARK VINA RESULT:      -8.9      1.919      2.308
REMARK  Name = 
REMARK  3 active torsions:
REMARK  status: ('A' for Active; 'I' for Inactive)
REMARK    1  A    between atoms: N_3  and  C_4
REMARK    2  A    between atoms: N_15  and  C_16
REMARK    3  A    between atoms: C_16  and  C_17
REMARK                            x       y       z     vdW  Elec       q    Type
REMARK                         _______ _______ _______ _____ _____    ______ ____
ROOT
ATOM      1  O   UNL     1       2.094   6.137  18.011  0.00  0.00    +0.000 OA
ATOM      2  C   UNL     1       2.583   6.047  19.129  0.00  0.00    +0.000 C 
ATOM      3  N   UNL     1       2.400   6.946  20.163  0.00  0.00    +0.000 N 
ATOM      4  N   UNL     1       3.411   5.014  19.506  0.00  0.00    +0.000 N 
ATOM      5  H   UNL     1       2.582   6.597  21.092  0.00  0.00    +0.000 HD
ATOM      6  H   UNL     1       3.739   5.006  20.457  0.00  0.00    +0.000 HD
ENDROOT
BRANCH   3   7
ATOM      7  C   UNL     1       1.730   8.187  20.076  0.00  0.00    +0.000 A 
ATOM      8  C   UNL     1       0.948   8.716  21.096  0.00  0.00    +0.000 A 
ATOM      9  C   UNL     1       0.371   9.982  20.954  0.00  0.00    +0.000 A 
ATOM     10  C   UNL     1       0.572  10.687  19.772  0.00  0.00    +0.000 A 
ATOM     11  N   UNL     1       0.055  12.016  19.673  0.00  0.00    +0.000 N 
ATOM     12  C   UNL     1       0.125  12.849  18.575  0.00  0.00    +0.000 A 
ATOM     13  C   UNL     1      -0.416  14.057  18.947  0.00  0.00    +0.000 A 
ATOM     14  C   UNL     1      -0.802  13.872  20.283  0.00  0.00    +0.000 A 
ATOM     15  N   UNL     1      -0.551  12.639  20.724  0.00  0.00    +0.000 NA
ATOM     16  N   UNL     1       1.275  10.173  18.725  0.00  0.00    +0.000 NA
ATOM     17  C   UNL     1       1.833   8.948  18.908  0.00  0.00    +0.000 A 
ENDBRANCH   3   7
BRANCH   4  18
ATOM     18  C   UNL     1       3.713   3.813  18.710  0.00  0.00    +0.000 C 
ATOM     19  C   UNL     1       2.361   3.315  18.133  0.00  0.00    +0.000 C 
ATOM     20  C   UNL     1       2.539   1.829  17.825  0.00  0.00    +0.000 C 
ATOM     21  C   UNL     1       3.748   1.379  18.639  0.00  0.00    +0.000 C 
ATOM     22  C   UNL     1       4.096   2.564  19.538  0.00  0.00    +0.000 C 
BRANCH  18  23
ATOM     23  C   UNL     1       4.781   4.148  17.649  0.00  0.00    +0.000 A 
ATOM     24  C   UNL     1       6.106   4.432  18.045  0.00  0.00    +0.000 A 
ATOM     25  C   UNL     1       7.096   4.756  17.111  0.00  0.00    +0.000 A 
ATOM     26  C   UNL     1       6.781   4.787  15.762  0.00  0.00    +0.000 A 
ATOM     27  F   UNL     1       7.725   5.096  14.863  0.00  0.00    +0.000 F 
ATOM     28  C   UNL     1       5.496   4.496  15.332  0.00  0.00    +0.000 A 
ATOM     29  C   UNL     1       4.504   4.183  16.268  0.00  0.00    +0.000 A 
ENDBRANCH  18  23
ENDBRANCH   4  18
TORSDOF 3
ENDMDL
MODEL 4
REMARK VINA RESULT:      -8.9      2.445      2.975
REMARK  Name = 
REMARK  3 active torsions:
REMARK  status: ('A' for Active; 'I' for Inactive)
REMARK    1  A    between atoms: N_3  and  C_4
REMARK    2  A    between atoms: N_15  and  C_16
REMARK    3  A    between atoms: C_16  and  C_17
REMARK                            x       y       z     vdW  Elec       q    Type
REMARK                         _______ _______ _______ _____ _____    ______ ____
ROOT
ATOM      1  O   UNL     1       2.203   7.847  19.798  0.00  0.00    +0.000 OA
ATOM      2  C   UNL     1       2.046   7.780  18.586  0.00  0.00    +0.000 C 
ATOM      3  N   UNL     1       1.789   8.847  17.747  0.00  0.00    +0.000 N 
ATOM      4  N   UNL     1       2.096   6.595  17.887  0.00  0.00    +0.000 N 
ATOM      5  H   UNL     1       2.001   8.705  16.771  0.00  0.00    +0.000 HD
ATOM      6  H   UNL     1       1.989   6.642  16.888  0.00  0.00    +0.000 HD
ENDROOT
BRANCH   3   7
ATOM      7  C   UNL     1       1.531  10.178  18.149  0.00  0.00    +0.000 A 
ATOM      8  C   UNL     1       2.444  11.216  18.012  0.00  0.00    +0.000 A 
ATOM      9  C   UNL     1       2.086  12.518  18.376  0.00  0.00    +0.000 A 
ATOM     10  C   UNL     1       0.818  12.749  18.899  0.00  0.00    +0.000 A 
ATOM     11  N   UNL     1       0.430  14.095  19.182  0.00  0.00    +0.000 N 
ATOM     12  C   UNL     1      -0.765  14.511  19.734  0.00  0.00    +0.000 A 
ATOM     13  C   UNL     1      -0.749  15.886  19.747  0.00  0.00    +0.000 A 
ATOM     14  C   UNL     1       0.496  16.227  19.197  0.00  0.00    +0.000 A 
ATOM     15  N   UNL     1       1.229  15.159  18.880  0.00  0.00    +0.000 NA
ATOM     16  N   UNL     1      -0.078  11.745  19.112  0.00  0.00    +0.000 NA
ATOM     17  C   UNL     1       0.301  10.498  18.730  0.00  0.00    +0.000 A 
ENDBRANCH   3   7
BRANCH   4  18
ATOM     18  C   UNL     1       2.483   5.284  18.433  0.00  0.00    +0.000 C 
ATOM     19  C   UNL     1       1.583   4.232  17.732  0.00  0.00    +0.000 C 
ATOM     20  C   UNL     1       1.539   3.013  18.652  0.00  0.00    +0.000 C 
ATOM     21  C   UNL     1       1.968   3.515  20.026  0.00  0.00    +0.000 C 
ATOM     22  C   UNL     1       2.047   5.036  19.896  0.00  0.00    +0.000 C 
BRANCH  18  23
ATOM     23  C   UNL     1       3.998   5.067  18.241  0.00  0.00    +0.000 A 
ATOM     24  C   UNL     1       4.488   4.547  17.024  0.00  0.00    +0.000 A 
ATOM     25  C   UNL     1       5.854   4.323  16.821  0.00  0.00    +0.000 A 
ATOM     26  C   UNL     1       6.755   4.628  17.828  0.00  0.00    +0.000 A 
ATOM     27  F   UNL     1       8.064   4.415  17.639  0.00  0.00    +0.000 F 
ATOM     28  C   UNL     1       6.315   5.158  19.030  0.00  0.00    +0.000 A 
ATOM     29  C   UNL     1       4.948   5.372  19.236  0.00  0.00    +0.000 A 
ENDBRANCH  18  23
ENDBRANCH   4  18
TORSDOF 3
ENDMDL
MODEL 5
REMARK VINA RESULT:      -8.9      1.596      1.921
REMARK  Name = 
REMARK  3 active torsions:
REMARK  status: ('A' for Active; 'I' for Inactive)
REMARK    1  A    between atoms: N_3  and  C_4
REMARK    2  A    between atoms: N_15  and  C_16
REMARK    3  A    between atoms: C_16  and  C_17
REMARK                            x       y       z     vdW  Elec       q    Type
REMARK                         _______ _______ _______ _____ _____    ______ ____
ROOT
ATOM      1  O   UNL     1       1.955   6.070  18.229  0.00  0.00    +0.000 OA
ATOM      2  C   UNL     1       2.584   6.012  19.277  0.00  0.00    +0.000 C 
ATOM      3  N   UNL     1       2.473   6.897  20.333  0.00  0.00    +0.000 N 
ATOM      4  N   UNL     1       3.518   5.036  19.539  0.00  0.00    +0.000 N 
ATOM      5  H   UNL     1       2.791   6.561  21.229  0.00  0.00    +0.000 HD
ATOM      6  H   UNL     1       3.961   5.049  20.442  0.00  0.00    +0.000 HD
ENDROOT
BRANCH   3   7
ATOM      7  C   UNL     1       1.718   8.092  20.339  0.00  0.00    +0.000 A 
ATOM      8  C   UNL     1       1.556   8.909  19.227  0.00  0.00    +0.000 A 
ATOM      9  C   UNL     1       0.739  10.041  19.300  0.00  0.00    +0.000 A 
ATOM     10  C   UNL     1       0.116  10.348  20.505  0.00  0.00    +0.000 A 
ATOM     11  N   UNL     1      -0.788  11.454  20.545  0.00  0.00    +0.000 N 
ATOM     12  C   UNL     1      -1.465  11.927  21.651  0.00  0.00    +0.000 A 
ATOM     13  C   UNL     1      -2.288  12.941  21.220  0.00  0.00    +0.000 A 
ATOM     14  C   UNL     1      -2.042  13.030  19.842  0.00  0.00    +0.000 A 
ATOM     15  N   UNL     1      -1.120  12.161  19.427  0.00  0.00    +0.000 NA
ATOM     16  N   UNL     1       0.306   9.610  21.634  0.00  0.00    +0.000 NA
ATOM     17  C   UNL     1       1.093   8.508  21.518  0.00  0.00    +0.000 A 
ENDBRANCH   3   7
BRANCH   4  18
ATOM     18  C   UNL     1       3.797   3.857  18.702  0.00  0.00    +0.000 C 
ATOM     19  C   UNL     1       2.435   3.404  18.113  0.00  0.00    +0.000 C 
ATOM     20  C   UNL     1       2.586   1.926  17.754  0.00  0.00    +0.000 C 
ATOM     21  C   UNL     1       3.787   1.427  18.549  0.00  0.00    +0.000 C 
ATOM     22  C   UNL     1       4.159   2.575  19.487  0.00  0.00    +0.000 C 
BRANCH  18  23
ATOM     23  C   UNL     1       4.869   4.209  17.650  0.00  0.00    +0.000 A 
ATOM     24  C   UNL     1       4.511   4.332  16.291  0.00  0.00    +0.000 A 
ATOM     25  C   UNL     1       5.460   4.634  15.308  0.00  0.00    +0.000 A 
ATOM     26  C   UNL     1       6.783   4.832  15.671  0.00  0.00    +0.000 A 
ATOM     27  F   UNL     1       7.695   5.120  14.734  0.00  0.00    +0.000 F 
ATOM     28  C   UNL     1       7.170   4.737  16.998  0.00  0.00    +0.000 A 
ATOM     29  C   UNL     1       6.222   4.425  17.978  0.00  0.00    +0.000 A 
ENDBRANCH  18  23
ENDBRANCH   4  18
TORSDOF 3
ENDMDL
MODEL 6
REMARK VINA RESULT:      -8.8      5.995      7.922
REMARK  Name = 
REMARK  3 active torsions:
REMARK  status: ('A' for Active; 'I' for Inactive)
REMARK    1  A    between atoms: N_3  and  C_4
REMARK    2  A    between atoms: N_15  and  C_16
REMARK    3  A    between atoms: C_16  and  C_17
REMARK                            x       y       z     vdW  Elec       q    Type
REMARK                         _______ _______ _______ _____ _____    ______ ____
ROOT
ATOM      1  O   UNL     1       7.110   8.852  17.184  0.00  0.00    +0.000 OA
ATOM      2  C   UNL     1       7.765   8.139  17.932  0.00  0.00    +0.000 C 
ATOM      3  N   UNL     1       8.706   8.579  18.844  0.00  0.00    +0.000 N 
ATOM      4  N   UNL     1       7.650   6.768  17.955  0.00  0.00    +0.000 N 
ATOM      5  H   UNL     1       8.924   7.945  19.598  0.00  0.00    +0.000 HD
ATOM      6  H   UNL     1       8.204   6.267  18.629  0.00  0.00    +0.000 HD
ENDROOT
BRANCH   3   7
ATOM      7  C   UNL     1       9.175   9.906  18.980  0.00  0.00    +0.000 A 
ATOM      8  C   UNL     1       9.517  10.717  17.904  0.00  0.00    +0.000 A 
ATOM      9  C   UNL     1       9.912  12.041  18.121  0.00  0.00    +0.000 A 
ATOM     10  C   UNL     1       9.979  12.520  19.426  0.00  0.00    +0.000 A 
ATOM     11  N   UNL     1      10.295  13.899  19.632  0.00  0.00    +0.000 N 
ATOM     12  C   UNL     1      10.441  14.539  20.845  0.00  0.00    +0.000 A 
ATOM     13  C   UNL     1      10.653  15.872  20.578  0.00  0.00    +0.000 A 
ATOM     14  C   UNL     1      10.632  15.956  19.178  0.00  0.00    +0.000 A 
ATOM     15  N   UNL     1      10.447  14.771  18.594  0.00  0.00    +0.000 NA
ATOM     16  N   UNL     1       9.718  11.734  20.507  0.00  0.00    +0.000 NA
ATOM     17  C   UNL     1       9.323  10.459  20.254  0.00  0.00    +0.000 A 
ENDBRANCH   3   7
BRANCH   4  18
ATOM     18  C   UNL     1       6.653   5.971  17.221  0.00  0.00    +0.000 C 
ATOM     19  C   UNL     1       7.253   4.548  17.067  0.00  0.00    +0.000 C 
ATOM     20  C   UNL     1       6.557   3.909  15.866  0.00  0.00    +0.000 C 
ATOM     21  C   UNL     1       5.961   5.065  15.070  0.00  0.00    +0.000 C 
ATOM     22  C   UNL     1       6.505   6.333  15.725  0.00  0.00    +0.000 C 
BRANCH  18  23
ATOM     23  C   UNL     1       5.300   6.023  17.961  0.00  0.00    +0.000 A 
ATOM     24  C   UNL     1       5.083   5.210  19.094  0.00  0.00    +0.000 A 
ATOM     25  C   UNL     1       3.863   5.219  19.779  0.00  0.00    +0.000 A 
ATOM     26  C   UNL     1       2.843   6.054  19.350  0.00  0.00    +0.000 A 
ATOM     27  F   UNL     1       1.673   6.066  20.002  0.00  0.00    +0.000 F 
ATOM     28  C   UNL     1       3.024   6.880  18.253  0.00  0.00    +0.000 A 
ATOM     29  C   UNL     1       4.241   6.862  17.562  0.00  0.00    +0.000 A 
ENDBRANCH  18  23
ENDBRANCH   4  18
TORSDOF 3
ENDMDL
MODEL 7
REMARK VINA RESULT:      -8.7      6.053      8.252
REMARK  Name = 
REMARK  3 active torsions:
REMARK  status: ('A' for Active; 'I' for Inactive)
REMARK    1  A    between atoms: N_3  and  C_4
REMARK    2  A    between atoms: N_15  and  C_16
REMARK    3  A    between atoms: C_16  and  C_17
REMARK                            x       y       z     vdW  Elec       q    Type
REMARK                         _______ _______ _______ _____ _____    ______ ____
ROOT
ATOM      1  O   UNL     1       7.059   8.867  17.214  0.00  0.00    +0.000 OA
ATOM      2  C   UNL     1       7.758   8.146  17.913  0.00  0.00    +0.000 C 
ATOM      3  N   UNL     1       8.717   8.578  18.810  0.00  0.00    +0.000 N 
ATOM      4  N   UNL     1       7.682   6.772  17.886  0.00  0.00    +0.000 N 
ATOM      5  H   UNL     1       8.977   7.922  19.531  0.00  0.00    +0.000 HD
ATOM      6  H   UNL     1       8.272   6.262  18.521  0.00  0.00    +0.000 HD
ENDROOT
BRANCH   3   7
ATOM      7  C   UNL     1       9.153   9.911  18.982  0.00  0.00    +0.000 A 
ATOM      8  C   UNL     1       9.310  10.518  20.222  0.00  0.00    +0.000 A 
ATOM      9  C   UNL     1       9.808  11.822  20.309  0.00  0.00    +0.000 A 
ATOM     10  C   UNL     1      10.117  12.505  19.137  0.00  0.00    +0.000 A 
ATOM     11  N   UNL     1      10.710  13.802  19.238  0.00  0.00    +0.000 N 
ATOM     12  C   UNL     1      11.048  14.638  18.194  0.00  0.00    +0.000 A 
ATOM     13  C   UNL     1      11.669  15.738  18.739  0.00  0.00    +0.000 A 
ATOM     14  C   UNL     1      11.658  15.497  20.121  0.00  0.00    +0.000 A 
ATOM     15  N   UNL     1      11.057  14.349  20.438  0.00  0.00    +0.000 NA
ATOM     16  N   UNL     1       9.911  11.969  17.902  0.00  0.00    +0.000 NA
ATOM     17  C   UNL     1       9.441  10.694  17.861  0.00  0.00    +0.000 A 
ENDBRANCH   3   7
BRANCH   4  18
ATOM     18  C   UNL     1       6.683   5.974  17.155  0.00  0.00    +0.000 C 
ATOM     19  C   UNL     1       7.287   4.553  16.993  0.00  0.00    +0.000 C 
ATOM     20  C   UNL     1       6.586   3.917  15.794  0.00  0.00    +0.000 C 
ATOM     21  C   UNL     1       5.983   5.073  15.004  0.00  0.00    +0.000 C 
ATOM     22  C   UNL     1       6.527   6.341  15.661  0.00  0.00    +0.000 C 
BRANCH  18  23
ATOM     23  C   UNL     1       5.334   6.020  17.902  0.00  0.00    +0.000 A 
ATOM     24  C   UNL     1       5.134   5.222  19.049  0.00  0.00    +0.000 A 
ATOM     25  C   UNL     1       3.918   5.227  19.740  0.00  0.00    +0.000 A 
ATOM     26  C   UNL     1       2.885   6.041  19.304  0.00  0.00    +0.000 A 
ATOM     27  F   UNL     1       1.719   6.048  19.963  0.00  0.00    +0.000 F 
ATOM     28  C   UNL     1       3.049   6.852  18.194  0.00  0.00    +0.000 A 
ATOM     29  C   UNL     1       4.262   6.839  17.496  0.00  0.00    +0.000 A 
ENDBRANCH  18  23
ENDBRANCH   4  18
TORSDOF 3
ENDMDL
MODEL 8
REMARK VINA RESULT:      -8.6      2.524      2.975
REMARK  Name = 
REMARK  3 active torsions:
REMARK  status: ('A' for Active; 'I' for Inactive)
REMARK    1  A    between atoms: N_3  and  C_4
REMARK    2  A    between atoms: N_15  and  C_16
REMARK    3  A    between atoms: C_16  and  C_17
REMARK                            x       y       z     vdW  Elec       q    Type
REMARK                         _______ _______ _______ _____ _____    ______ ____
ROOT
ATOM      1  O   UNL     1       2.231   7.701  19.843  0.00  0.00    +0.000 OA
ATOM      2  C   UNL     1       2.048   7.647  18.635  0.00  0.00    +0.000 C 
ATOM      3  N   UNL     1       1.756   8.722  17.816  0.00  0.00    +0.000 N 
ATOM      4  N   UNL     1       2.101   6.473  17.918  0.00  0.00    +0.000 N 
ATOM      5  H   UNL     1       1.948   8.596  16.834  0.00  0.00    +0.000 HD
ATOM      6  H   UNL     1       1.971   6.531  16.922  0.00  0.00    +0.000 HD
ENDROOT
BRANCH   3   7
ATOM      7  C   UNL     1       1.486  10.042  18.243  0.00  0.00    +0.000 A 
ATOM      8  C   UNL     1       0.348  10.407  18.953  0.00  0.00    +0.000 A 
ATOM      9  C   UNL     1       0.188  11.724  19.394  0.00  0.00    +0.000 A 
ATOM     10  C   UNL     1       1.170  12.662  19.090  0.00  0.00    +0.000 A 
ATOM     11  N   UNL     1       1.042  13.982  19.623  0.00  0.00    +0.000 N 
ATOM     12  C   UNL     1       1.890  15.047  19.401  0.00  0.00    +0.000 A 
ATOM     13  C   UNL     1       1.441  16.092  20.174  0.00  0.00    +0.000 A 
ATOM     14  C   UNL     1       0.308  15.583  20.827  0.00  0.00    +0.000 A 
ATOM     15  N   UNL     1       0.038  14.324  20.482  0.00  0.00    +0.000 NA
ATOM     16  N   UNL     1       2.264  12.357  18.338  0.00  0.00    +0.000 NA
ATOM     17  C   UNL     1       2.391  11.064  17.942  0.00  0.00    +0.000 A 
ENDBRANCH   3   7
BRANCH   4  18
ATOM     18  C   UNL     1       2.520   5.161  18.437  0.00  0.00    +0.000 C 
ATOM     19  C   UNL     1       1.635   4.102  17.726  0.00  0.00    +0.000 C 
ATOM     20  C   UNL     1       1.625   2.867  18.625  0.00  0.00    +0.000 C 
ATOM     21  C   UNL     1       2.059   3.354  20.003  0.00  0.00    +0.000 C 
ATOM     22  C   UNL     1       2.105   4.878  19.900  0.00  0.00    +0.000 C 
BRANCH  18  23
ATOM     23  C   UNL     1       4.037   4.979  18.225  0.00  0.00    +0.000 A 
ATOM     24  C   UNL     1       4.524   4.478  16.998  0.00  0.00    +0.000 A 
ATOM     25  C   UNL     1       5.892   4.285  16.778  0.00  0.00    +0.000 A 
ATOM     26  C   UNL     1       6.798   4.603  17.777  0.00  0.00    +0.000 A 
ATOM     27  F   UNL     1       8.109   4.420  17.571  0.00  0.00    +0.000 F 
ATOM     28  C   UNL     1       6.361   5.114  18.988  0.00  0.00    +0.000 A 
ATOM     29  C   UNL     1       4.992   5.296  19.211  0.00  0.00    +0.000 A 
ENDBRANCH  18  23
ENDBRANCH   4  18
TORSDOF 3
ENDMDL
MODEL 9
REMARK VINA RESULT:      -8.5      1.865      2.196
REMARK  Name = 
REMARK  3 active torsions:
REMARK  status: ('A' for Active; 'I' for Inactive)
REMARK    1  A    between atoms: N_3  and  C_4
REMARK    2  A    between atoms: N_15  and  C_16
REMARK    3  A    between atoms: C_16  and  C_17
REMARK                            x       y       z     vdW  Elec       q    Type
REMARK                         _______ _______ _______ _____ _____    ______ ____
ROOT
ATOM      1  O   UNL     1       1.859   5.835  19.797  0.00  0.00    +0.000 OA
ATOM      2  C   UNL     1       2.427   6.589  19.018  0.00  0.00    +0.000 C 
ATOM      3  N   UNL     1       2.300   7.966  18.993  0.00  0.00    +0.000 N 
ATOM      4  N   UNL     1       3.281   6.148  18.033  0.00  0.00    +0.000 N 
ATOM      5  H   UNL     1       3.044   8.471  18.537  0.00  0.00    +0.000 HD
ATOM      6  H   UNL     1       3.729   6.844  17.462  0.00  0.00    +0.000 HD
ENDROOT
BRANCH   3   7
ATOM      7  C   UNL     1       1.398   8.731  19.766  0.00  0.00    +0.000 A 
ATOM      8  C   UNL     1       1.258   8.600  21.143  0.00  0.00    +0.000 A 
ATOM      9  C   UNL     1       0.388   9.441  21.843  0.00  0.00    +0.000 A 
ATOM     10  C   UNL     1      -0.348  10.389  21.139  0.00  0.00    +0.000 A 
ATOM     11  N   UNL     1      -1.165  11.304  21.873  0.00  0.00    +0.000 N 
ATOM     12  C   UNL     1      -1.987  12.280  21.348  0.00  0.00    +0.000 A 
ATOM     13  C   UNL     1      -2.512  12.982  22.408  0.00  0.00    +0.000 A 
ATOM     14  C   UNL     1      -1.968  12.360  23.543  0.00  0.00    +0.000 A 
ATOM     15  N   UNL     1      -1.179  11.330  23.237  0.00  0.00    +0.000 NA
ATOM     16  N   UNL     1      -0.288  10.500  19.782  0.00  0.00    +0.000 NA
ATOM     17  C   UNL     1       0.580   9.676  19.141  0.00  0.00    +0.000 A 
ENDBRANCH   3   7
BRANCH   4  18
ATOM     18  C   UNL     1       3.755   4.766  17.855  0.00  0.00    +0.000 C 
ATOM     19  C   UNL     1       2.506   3.913  17.506  0.00  0.00    +0.000 C 
ATOM     20  C   UNL     1       2.843   2.472  17.885  0.00  0.00    +0.000 C 
ATOM     21  C   UNL     1       4.015   2.562  18.857  0.00  0.00    +0.000 C 
ATOM     22  C   UNL     1       4.179   4.051  19.159  0.00  0.00    +0.000 C 
BRANCH  18  23
ATOM     23  C   UNL     1       4.874   4.734  16.793  0.00  0.00    +0.000 A 
ATOM     24  C   UNL     1       6.186   5.123  17.137  0.00  0.00    +0.000 A 
ATOM     25  C   UNL     1       7.221   5.122  16.195  0.00  0.00    +0.000 A 
ATOM     26  C   UNL     1       6.963   4.717  14.895  0.00  0.00    +0.000 A 
ATOM     27  F   UNL     1       7.950   4.714  13.990  0.00  0.00    +0.000 F 
ATOM     28  C   UNL     1       5.692   4.310  14.523  0.00  0.00    +0.000 A 
ATOM     29  C   UNL     1       4.656   4.322  15.463  0.00  0.00    +0.000 A 
ENDBRANCH  18  23
ENDBRANCH   4  18
TORSDOF 3
ENDMDL
