MODEL 1
REMARK VINA RESULT:      -8.5      0.000      0.000
REMARK  Name = 
REMARK  7 active torsions:
REMARK  status: ('A' for Active; 'I' for Inactive)
REMARK    1  A    between atoms: C_1  and  C_2
REMARK    2  A    between atoms: C_2  and  C_3
REMARK    3  A    between atoms: C_3  and  C_4
REMARK    4  A    between atoms: C_4  and  C_5
REMARK    5  A    between atoms: N_14  and  C_15
REMARK    6  A    between atoms: C_15  and  C_16
REMARK    7  A    between atoms: N_20  and  C_21
REMARK                            x       y       z     vdW  Elec       q    Type
REMARK                         _______ _______ _______ _____ _____    ______ ____
ROOT
ATOM      1  C   UNL     1       2.491   2.622  21.236  0.00  0.00    +0.000 C 
ATOM      2  C   UNL     1       2.858   3.527  20.071  0.00  0.00    +0.000 C 
ATOM      3  N   UNL     1       1.925   3.380  18.979  0.00  0.00    +0.000 N 
ATOM      4  C   UNL     1       2.577   3.309  17.766  0.00  0.00    +0.000 C 
ATOM      5  O   UNL     1       2.027   3.489  16.693  0.00  0.00    +0.000 OA
ATOM      6  N   UNL     1       3.908   3.125  17.999  0.00  0.00    +0.000 N 
ATOM      7  C   UNL     1       4.161   3.132  19.351  0.00  0.00    +0.000 C 
ATOM      8  O   UNL     1       5.260   3.074  19.885  0.00  0.00    +0.000 OA
ATOM      9  H   UNL     1       0.944   3.628  19.009  0.00  0.00    +0.000 HD
ENDROOT
BRANCH   2  10
ATOM     10  C   UNL     1       3.007   5.002  20.532  0.00  0.00    +0.000 C 
BRANCH  10  11
ATOM     11  C   UNL     1       1.672   5.748  20.699  0.00  0.00    +0.000 C 
BRANCH  11  12
ATOM     12  C   UNL     1       1.643   7.101  20.044  0.00  0.00    +0.000 A 
ATOM     13  C   UNL     1       2.111   7.261  18.732  0.00  0.00    +0.000 A 
ATOM     14  C   UNL     1       2.000   8.497  18.095  0.00  0.00    +0.000 A 
ATOM     15  C   UNL     1       1.434   9.578  18.767  0.00  0.00    +0.000 A 
ATOM     16  C   UNL     1       0.990   9.432  20.081  0.00  0.00    +0.000 A 
ATOM     17  C   UNL     1       1.098   8.196  20.720  0.00  0.00    +0.000 A 
ENDBRANCH  11  12
ENDBRANCH  10  11
ENDBRANCH   2  10
BRANCH   6  18
ATOM     18  C   UNL     1       4.923   3.404  17.002  0.00  0.00    +0.000 C 
BRANCH  18  19
ATOM     19  C   UNL     1       5.166   4.848  16.806  0.00  0.00    +0.000 A 
ATOM     20  N   UNL     1       4.980   5.803  17.698  0.00  0.00    +0.000 NA
ATOM     21  N   UNL     1       5.501   6.943  17.163  0.00  0.00    +0.000 NA
ATOM     22  N   UNL     1       6.034   6.707  15.976  0.00  0.00    +0.000 NA
ATOM     23  N   UNL     1       5.775   5.407  15.689  0.00  0.00    +0.000 N 
BRANCH  23  24
ATOM     24  C   UNL     1       6.163   4.856  14.437  0.00  0.00    +0.000 A 
ATOM     25  C   UNL     1       5.288   3.960  13.801  0.00  0.00    +0.000 A 
ATOM     26  C   UNL     1       5.606   3.422  12.552  0.00  0.00    +0.000 A 
ATOM     27  C   UNL     1       6.813   3.744  11.941  0.00  0.00    +0.000 A 
ATOM     28  C   UNL     1       7.709   4.596  12.583  0.00  0.00    +0.000 A 
ATOM     29  C   UNL     1       7.389   5.154  13.827  0.00  0.00    +0.000 A 
ENDBRANCH  23  24
ENDBRANCH  18  19
ENDBRANCH   6  18
TORSDOF 6
ENDMDL
MODEL 2
REMARK VINA RESULT:      -8.5      0.389      1.343
REMARK  Name = 
REMARK  7 active torsions:
REMARK  status: ('A' for Active; 'I' for Inactive)
REMARK    1  A    between atoms: C_1  and  C_2
REMARK    2  A    between atoms: C_2  and  C_3
REMARK    3  A    between atoms: C_3  and  C_4
REMARK    4  A    between atoms: C_4  and  C_5
REMARK    5  A    between atoms: N_14  and  C_15
REMARK    6  A    between atoms: C_15  and  C_16
REMARK    7  A    between atoms: N_20  and  C_21
REMARK                            x       y       z     vdW  Elec       q    Type
REMARK                         _______ _______ _______ _____ _____    ______ ____
ROOT
ATOM      1  C   UNL     1       2.110   2.811  21.108  0.00  0.00    +0.000 C 
ATOM      2  C   UNL     1       2.656   3.670  19.980  0.00  0.00    +0.000 C 
ATOM      3  N   UNL     1       1.767   3.670  18.841  0.00  0.00    +0.000 N 
ATOM      4  C   UNL     1       2.463   3.525  17.660  0.00  0.00    +0.000 C 
ATOM      5  O   UNL     1       1.997   3.794  16.566  0.00  0.00    +0.000 OA
ATOM      6  N   UNL     1       3.742   3.154  17.952  0.00  0.00    +0.000 N 
ATOM      7  C   UNL     1       3.926   3.107  19.314  0.00  0.00    +0.000 C 
ATOM      8  O   UNL     1       4.978   2.890  19.898  0.00  0.00    +0.000 OA
ATOM      9  H   UNL     1       0.830   4.052  18.830  0.00  0.00    +0.000 HD
ENDROOT
BRANCH   2  10
ATOM     10  C   UNL     1       2.985   5.104  20.477  0.00  0.00    +0.000 C 
BRANCH  10  11
ATOM     11  C   UNL     1       1.754   6.011  20.643  0.00  0.00    +0.000 C 
BRANCH  11  12
ATOM     12  C   UNL     1       1.762   7.220  19.750  0.00  0.00    +0.000 A 
ATOM     13  C   UNL     1       1.149   8.411  20.165  0.00  0.00    +0.000 A 
ATOM     14  C   UNL     1       1.236   9.557  19.374  0.00  0.00    +0.000 A 
ATOM     15  C   UNL     1       1.923   9.515  18.163  0.00  0.00    +0.000 A 
ATOM     16  C   UNL     1       2.514   8.328  17.732  0.00  0.00    +0.000 A 
ATOM     17  C   UNL     1       2.430   7.181  18.522  0.00  0.00    +0.000 A 
ENDBRANCH  11  12
ENDBRANCH  10  11
ENDBRANCH   2  10
BRANCH   6  18
ATOM     18  C   UNL     1       4.835   3.302  17.010  0.00  0.00    +0.000 C 
BRANCH  18  19
ATOM     19  C   UNL     1       5.337   4.688  16.914  0.00  0.00    +0.000 A 
ATOM     20  N   UNL     1       5.373   5.579  17.887  0.00  0.00    +0.000 NA
ATOM     21  N   UNL     1       6.077   6.645  17.414  0.00  0.00    +0.000 NA
ATOM     22  N   UNL     1       6.505   6.420  16.184  0.00  0.00    +0.000 NA
ATOM     23  N   UNL     1       5.993   5.221  15.811  0.00  0.00    +0.000 N 
BRANCH  23  24
ATOM     24  C   UNL     1       6.217   4.719  14.499  0.00  0.00    +0.000 A 
ATOM     25  C   UNL     1       7.372   5.132  13.814  0.00  0.00    +0.000 A 
ATOM     26  C   UNL     1       7.658   4.637  12.539  0.00  0.00    +0.000 A 
ATOM     27  C   UNL     1       6.777   3.754  11.922  0.00  0.00    +0.000 A 
ATOM     28  C   UNL     1       5.607   3.373  12.573  0.00  0.00    +0.000 A 
ATOM     29  C   UNL     1       5.324   3.851  13.859  0.00  0.00    +0.000 A 
ENDBRANCH  23  24
ENDBRANCH  18  19
ENDBRANCH   6  18
TORSDOF 6
ENDMDL
MODEL 3
REMARK VINA RESULT:      -8.0      1.293      1.917
REMARK  Name = 
REMARK  7 active torsions:
REMARK  status: ('A' for Active; 'I' for Inactive)
REMARK    1  A    between atoms: C_1  and  C_2
REMARK    2  A    between atoms: C_2  and  C_3
REMARK    3  A    between atoms: C_3  and  C_4
REMARK    4  A    between atoms: C_4  and  C_5
REMARK    5  A    between atoms: N_14  and  C_15
REMARK    6  A    between atoms: C_15  and  C_16
REMARK    7  A    between atoms: N_20  and  C_21
REMARK                            x       y       z     vdW  Elec       q    Type
REMARK                         _______ _______ _______ _____ _____    ______ ____
ROOT
ATOM      1  C   UNL     1       2.368   3.553  21.493  0.00  0.00    +0.000 C 
ATOM      2  C   UNL     1       2.270   4.083  20.072  0.00  0.00    +0.000 C 
ATOM      3  N   UNL     1       1.955   3.027  19.138  0.00  0.00    +0.000 N 
ATOM      4  C   UNL     1       2.727   3.115  17.999  0.00  0.00    +0.000 C 
ATOM      5  O   UNL     1       2.456   2.548  16.955  0.00  0.00    +0.000 OA
ATOM      6  N   UNL     1       3.735   4.005  18.227  0.00  0.00    +0.000 N 
ATOM      7  C   UNL     1       3.610   4.557  19.480  0.00  0.00    +0.000 C 
ATOM      8  O   UNL     1       4.304   5.446  19.955  0.00  0.00    +0.000 OA
ATOM      9  H   UNL     1       1.091   2.499  19.121  0.00  0.00    +0.000 HD
ENDROOT
BRANCH   2  10
ATOM     10  C   UNL     1       1.274   5.271  19.985  0.00  0.00    +0.000 C 
BRANCH  10  11
ATOM     11  C   UNL     1       1.763   6.556  20.675  0.00  0.00    +0.000 C 
BRANCH  11  12
ATOM     12  C   UNL     1       1.615   7.793  19.835  0.00  0.00    +0.000 A 
ATOM     13  C   UNL     1       1.000   8.938  20.364  0.00  0.00    +0.000 A 
ATOM     14  C   UNL     1       0.944  10.113  19.615  0.00  0.00    +0.000 A 
ATOM     15  C   UNL     1       1.489  10.147  18.333  0.00  0.00    +0.000 A 
ATOM     16  C   UNL     1       2.079   9.006  17.791  0.00  0.00    +0.000 A 
ATOM     17  C   UNL     1       2.138   7.829  18.539  0.00  0.00    +0.000 A 
ENDBRANCH  11  12
ENDBRANCH  10  11
ENDBRANCH   2  10
BRANCH   6  18
ATOM     18  C   UNL     1       4.478   4.636  17.154  0.00  0.00    +0.000 C 
BRANCH  18  19
ATOM     19  C   UNL     1       5.940   4.629  17.374  0.00  0.00    +0.000 A 
ATOM     20  N   UNL     1       6.558   4.652  18.539  0.00  0.00    +0.000 NA
ATOM     21  N   UNL     1       7.880   4.445  18.283  0.00  0.00    +0.000 NA
ATOM     22  N   UNL     1       8.088   4.263  16.991  0.00  0.00    +0.000 NA
ATOM     23  N   UNL     1       6.892   4.445  16.378  0.00  0.00    +0.000 N 
BRANCH  23  24
ATOM     24  C   UNL     1       6.792   4.383  14.961  0.00  0.00    +0.000 A 
ATOM     25  C   UNL     1       7.671   5.167  14.194  0.00  0.00    +0.000 A 
ATOM     26  C   UNL     1       7.639   5.112  12.799  0.00  0.00    +0.000 A 
ATOM     27  C   UNL     1       6.709   4.301  12.155  0.00  0.00    +0.000 A 
ATOM     28  C   UNL     1       5.803   3.554  12.904  0.00  0.00    +0.000 A 
ATOM     29  C   UNL     1       5.842   3.591  14.304  0.00  0.00    +0.000 A 
ENDBRANCH  23  24
ENDBRANCH  18  19
ENDBRANCH   6  18
TORSDOF 6
ENDMDL
MODEL 4
REMARK VINA RESULT:      -8.0      1.217      1.621
REMARK  Name = 
REMARK  7 active torsions:
REMARK  status: ('A' for Active; 'I' for Inactive)
REMARK    1  A    between atoms: C_1  and  C_2
REMARK    2  A    between atoms: C_2  and  C_3
REMARK    3  A    between atoms: C_3  and  C_4
REMARK    4  A    between atoms: C_4  and  C_5
REMARK    5  A    between atoms: N_14  and  C_15
REMARK    6  A    between atoms: C_15  and  C_16
REMARK    7  A    between atoms: N_20  and  C_21
REMARK                            x       y       z     vdW  Elec       q    Type
REMARK                         _______ _______ _______ _____ _____    ______ ____
ROOT
ATOM      1  C   UNL     1       2.323   2.677  20.970  0.00  0.00    +0.000 C 
ATOM      2  C   UNL     1       2.280   3.644  19.798  0.00  0.00    +0.000 C 
ATOM      3  N   UNL     1       1.956   2.964  18.567  0.00  0.00    +0.000 N 
ATOM      4  C   UNL     1       2.761   3.387  17.530  0.00  0.00    +0.000 C 
ATOM      5  O   UNL     1       2.499   3.203  16.354  0.00  0.00    +0.000 OA
ATOM      6  N   UNL     1       3.791   4.114  18.051  0.00  0.00    +0.000 N 
ATOM      7  C   UNL     1       3.650   4.232  19.414  0.00  0.00    +0.000 C 
ATOM      8  O   UNL     1       4.359   4.890  20.163  0.00  0.00    +0.000 OA
ATOM      9  H   UNL     1       1.077   2.504  18.365  0.00  0.00    +0.000 HD
ENDROOT
BRANCH   2  10
ATOM     10  C   UNL     1       1.325   4.834  20.090  0.00  0.00    +0.000 C 
BRANCH  10  11
ATOM     11  C   UNL     1       1.999   6.025  20.793  0.00  0.00    +0.000 C 
BRANCH  11  12
ATOM     12  C   UNL     1       1.827   7.334  20.074  0.00  0.00    +0.000 A 
ATOM     13  C   UNL     1       2.325   7.497  18.772  0.00  0.00    +0.000 A 
ATOM     14  C   UNL     1       2.086   8.679  18.074  0.00  0.00    +0.000 A 
ATOM     15  C   UNL     1       1.361   9.707  18.674  0.00  0.00    +0.000 A 
ATOM     16  C   UNL     1       0.885   9.563  19.976  0.00  0.00    +0.000 A 
ATOM     17  C   UNL     1       1.121   8.379  20.677  0.00  0.00    +0.000 A 
ENDBRANCH  11  12
ENDBRANCH  10  11
ENDBRANCH   2  10
BRANCH   6  18
ATOM     18  C   UNL     1       4.582   5.032  17.254  0.00  0.00    +0.000 C 
BRANCH  18  19
ATOM     19  C   UNL     1       6.038   4.863  17.445  0.00  0.00    +0.000 A 
ATOM     20  N   UNL     1       6.683   4.864  18.595  0.00  0.00    +0.000 NA
ATOM     21  N   UNL     1       7.966   4.493  18.322  0.00  0.00    +0.000 NA
ATOM     22  N   UNL     1       8.119   4.232  17.036  0.00  0.00    +0.000 NA
ATOM     23  N   UNL     1       6.937   4.527  16.440  0.00  0.00    +0.000 N 
BRANCH  23  24
ATOM     24  C   UNL     1       6.795   4.416  15.029  0.00  0.00    +0.000 A 
ATOM     25  C   UNL     1       7.681   5.136  14.210  0.00  0.00    +0.000 A 
ATOM     26  C   UNL     1       7.608   5.030  12.819  0.00  0.00    +0.000 A 
ATOM     27  C   UNL     1       6.630   4.233  12.232  0.00  0.00    +0.000 A 
ATOM     28  C   UNL     1       5.718   3.550  13.033  0.00  0.00    +0.000 A 
ATOM     29  C   UNL     1       5.797   3.637  14.429  0.00  0.00    +0.000 A 
ENDBRANCH  23  24
ENDBRANCH  18  19
ENDBRANCH   6  18
TORSDOF 6
ENDMDL
MODEL 5
REMARK VINA RESULT:      -7.8      2.199      3.383
REMARK  Name = 
REMARK  7 active torsions:
REMARK  status: ('A' for Active; 'I' for Inactive)
REMARK    1  A    between atoms: C_1  and  C_2
REMARK    2  A    between atoms: C_2  and  C_3
REMARK    3  A    between atoms: C_3  and  C_4
REMARK    4  A    between atoms: C_4  and  C_5
REMARK    5  A    between atoms: N_14  and  C_15
REMARK    6  A    between atoms: C_15  and  C_16
REMARK    7  A    between atoms: N_20  and  C_21
REMARK                            x       y       z     vdW  Elec       q    Type
REMARK                         _______ _______ _______ _____ _____    ______ ____
ROOT
ATOM      1  C   UNL     1       2.330   3.451  21.465  0.00  0.00    +0.000 C 
ATOM      2  C   UNL     1       2.164   4.492  20.369  0.00  0.00    +0.000 C 
ATOM      3  N   UNL     1       1.315   4.007  19.307  0.00  0.00    +0.000 N 
ATOM      4  C   UNL     1       1.836   4.312  18.067  0.00  0.00    +0.000 C 
ATOM      5  O   UNL     1       1.184   4.288  17.037  0.00  0.00    +0.000 OA
ATOM      6  N   UNL     1       3.122   4.733  18.229  0.00  0.00    +0.000 N 
ATOM      7  C   UNL     1       3.447   4.772  19.565  0.00  0.00    +0.000 C 
ATOM      8  O   UNL     1       4.494   5.184  20.046  0.00  0.00    +0.000 OA
ATOM      9  H   UNL     1       0.332   3.784  19.399  0.00  0.00    +0.000 HD
ENDROOT
BRANCH   2  10
ATOM     10  C   UNL     1       1.673   5.845  20.952  0.00  0.00    +0.000 C 
BRANCH  10  11
ATOM     11  C   UNL     1       2.060   7.072  20.109  0.00  0.00    +0.000 C 
BRANCH  11  12
ATOM     12  C   UNL     1       1.365   8.339  20.522  0.00  0.00    +0.000 A 
ATOM     13  C   UNL     1       1.046   9.316  19.567  0.00  0.00    +0.000 A 
ATOM     14  C   UNL     1       0.322  10.448  19.937  0.00  0.00    +0.000 A 
ATOM     15  C   UNL     1      -0.077  10.617  21.261  0.00  0.00    +0.000 A 
ATOM     16  C   UNL     1       0.258   9.663  22.222  0.00  0.00    +0.000 A 
ATOM     17  C   UNL     1       0.982   8.528  21.853  0.00  0.00    +0.000 A 
ENDBRANCH  11  12
ENDBRANCH  10  11
ENDBRANCH   2  10
BRANCH   6  18
ATOM     18  C   UNL     1       3.827   5.500  17.220  0.00  0.00    +0.000 C 
BRANCH  18  19
ATOM     19  C   UNL     1       4.887   4.731  16.537  0.00  0.00    +0.000 A 
ATOM     20  N   UNL     1       4.711   3.735  15.690  0.00  0.00    +0.000 NA
ATOM     21  N   UNL     1       5.936   3.447  15.167  0.00  0.00    +0.000 NA
ATOM     22  N   UNL     1       6.858   4.263  15.646  0.00  0.00    +0.000 NA
ATOM     23  N   UNL     1       6.242   5.040  16.571  0.00  0.00    +0.000 N 
BRANCH  23  24
ATOM     24  C   UNL     1       6.986   5.988  17.326  0.00  0.00    +0.000 A 
ATOM     25  C   UNL     1       7.083   7.303  16.840  0.00  0.00    +0.000 A 
ATOM     26  C   UNL     1       7.769   8.280  17.565  0.00  0.00    +0.000 A 
ATOM     27  C   UNL     1       8.394   7.948  18.763  0.00  0.00    +0.000 A 
ATOM     28  C   UNL     1       8.342   6.638  19.232  0.00  0.00    +0.000 A 
ATOM     29  C   UNL     1       7.640   5.657  18.520  0.00  0.00    +0.000 A 
ENDBRANCH  23  24
ENDBRANCH  18  19
ENDBRANCH   6  18
TORSDOF 6
ENDMDL
MODEL 6
REMARK VINA RESULT:      -7.8      3.486      6.238
REMARK  Name = 
REMARK  7 active torsions:
REMARK  status: ('A' for Active; 'I' for Inactive)
REMARK    1  A    between atoms: C_1  and  C_2
REMARK    2  A    between atoms: C_2  and  C_3
REMARK    3  A    between atoms: C_3  and  C_4
REMARK    4  A    between atoms: C_4  and  C_5
REMARK    5  A    between atoms: N_14  and  C_15
REMARK    6  A    between atoms: C_15  and  C_16
REMARK    7  A    between atoms: N_20  and  C_21
REMARK                            x       y       z     vdW  Elec       q    Type
REMARK                         _______ _______ _______ _____ _____    ______ ____
ROOT
ATOM      1  C   UNL     1       1.164  11.416  20.191  0.00  0.00    +0.000 C 
ATOM      2  C   UNL     1       0.750   9.997  19.837  0.00  0.00    +0.000 C 
ATOM      3  N   UNL     1       1.189   9.056  20.841  0.00  0.00    +0.000 N 
ATOM      4  C   UNL     1       1.725   7.922  20.268  0.00  0.00    +0.000 C 
ATOM      5  O   UNL     1       1.882   6.873  20.867  0.00  0.00    +0.000 OA
ATOM      6  N   UNL     1       1.923   8.160  18.940  0.00  0.00    +0.000 N 
ATOM      7  C   UNL     1       1.471   9.416  18.607  0.00  0.00    +0.000 C 
ATOM      8  O   UNL     1       1.430   9.899  17.485  0.00  0.00    +0.000 OA
ATOM      9  H   UNL     1       0.868   9.031  21.801  0.00  0.00    +0.000 HD
ENDROOT
BRANCH   2  10
ATOM     10  C   UNL     1      -0.777   9.911  19.568  0.00  0.00    +0.000 C 
BRANCH  10  11
ATOM     11  C   UNL     1      -1.402  11.220  19.057  0.00  0.00    +0.000 C 
BRANCH  11  12
ATOM     12  C   UNL     1      -2.290  11.044  17.857  0.00  0.00    +0.000 A 
ATOM     13  C   UNL     1      -1.929  10.155  16.833  0.00  0.00    +0.000 A 
ATOM     14  C   UNL     1      -2.796   9.926  15.766  0.00  0.00    +0.000 A 
ATOM     15  C   UNL     1      -4.021  10.588  15.710  0.00  0.00    +0.000 A 
ATOM     16  C   UNL     1      -4.377  11.491  16.711  0.00  0.00    +0.000 A 
ATOM     17  C   UNL     1      -3.511  11.721  17.781  0.00  0.00    +0.000 A 
ENDBRANCH  11  12
ENDBRANCH  10  11
ENDBRANCH   2  10
BRANCH   6  18
ATOM     18  C   UNL     1       2.087   7.095  17.969  0.00  0.00    +0.000 C 
BRANCH  18  19
ATOM     19  C   UNL     1       3.449   6.523  17.955  0.00  0.00    +0.000 A 
ATOM     20  N   UNL     1       4.557   7.144  17.596  0.00  0.00    +0.000 NA
ATOM     21  N   UNL     1       5.589   6.313  17.913  0.00  0.00    +0.000 NA
ATOM     22  N   UNL     1       5.147   5.209  18.489  0.00  0.00    +0.000 NA
ATOM     23  N   UNL     1       3.793   5.277  18.466  0.00  0.00    +0.000 N 
BRANCH  23  24
ATOM     24  C   UNL     1       3.009   4.196  18.956  0.00  0.00    +0.000 A 
ATOM     25  C   UNL     1       2.197   3.494  18.049  0.00  0.00    +0.000 A 
ATOM     26  C   UNL     1       1.439   2.401  18.473  0.00  0.00    +0.000 A 
ATOM     27  C   UNL     1       1.456   2.018  19.811  0.00  0.00    +0.000 A 
ATOM     28  C   UNL     1       2.222   2.735  20.727  0.00  0.00    +0.000 A 
ATOM     29  C   UNL     1       2.999   3.821  20.305  0.00  0.00    +0.000 A 
ENDBRANCH  23  24
ENDBRANCH  18  19
ENDBRANCH   6  18
TORSDOF 6
ENDMDL
MODEL 7
REMARK VINA RESULT:      -7.7      2.079      3.263
REMARK  Name = 
REMARK  7 active torsions:
REMARK  status: ('A' for Active; 'I' for Inactive)
REMARK    1  A    between atoms: C_1  and  C_2
REMARK    2  A    between atoms: C_2  and  C_3
REMARK    3  A    between atoms: C_3  and  C_4
REMARK    4  A    between atoms: C_4  and  C_5
REMARK    5  A    between atoms: N_14  and  C_15
REMARK    6  A    between atoms: C_15  and  C_16
REMARK    7  A    between atoms: N_20  and  C_21
REMARK                            x       y       z     vdW  Elec       q    Type
REMARK                         _______ _______ _______ _____ _____    ______ ____
ROOT
ATOM      1  C   UNL     1       4.628   1.691  20.738  0.00  0.00    +0.000 C 
ATOM      2  C   UNL     1       3.843   2.661  19.870  0.00  0.00    +0.000 C 
ATOM      3  N   UNL     1       3.165   1.975  18.796  0.00  0.00    +0.000 N 
ATOM      4  C   UNL     1       3.297   2.652  17.602  0.00  0.00    +0.000 C 
ATOM      5  O   UNL     1       2.585   2.457  16.633  0.00  0.00    +0.000 OA
ATOM      6  N   UNL     1       4.255   3.611  17.752  0.00  0.00    +0.000 N 
ATOM      7  C   UNL     1       4.720   3.623  19.046  0.00  0.00    +0.000 C 
ATOM      8  O   UNL     1       5.519   4.416  19.524  0.00  0.00    +0.000 OA
ATOM      9  H   UNL     1       2.419   1.299  18.911  0.00  0.00    +0.000 HD
ENDROOT
BRANCH   2  10
ATOM     10  C   UNL     1       2.879   3.525  20.727  0.00  0.00    +0.000 C 
BRANCH  10  11
ATOM     11  C   UNL     1       1.749   4.194  19.924  0.00  0.00    +0.000 C 
BRANCH  11  12
ATOM     12  C   UNL     1       1.828   5.695  19.896  0.00  0.00    +0.000 A 
ATOM     13  C   UNL     1       2.248   6.359  18.734  0.00  0.00    +0.000 A 
ATOM     14  C   UNL     1       2.234   7.752  18.680  0.00  0.00    +0.000 A 
ATOM     15  C   UNL     1       1.812   8.487  19.786  0.00  0.00    +0.000 A 
ATOM     16  C   UNL     1       1.417   7.835  20.953  0.00  0.00    +0.000 A 
ATOM     17  C   UNL     1       1.429   6.440  21.009  0.00  0.00    +0.000 A 
ENDBRANCH  11  12
ENDBRANCH  10  11
ENDBRANCH   2  10
BRANCH   6  18
ATOM     18  C   UNL     1       4.371   4.747  16.859  0.00  0.00    +0.000 C 
BRANCH  18  19
ATOM     19  C   UNL     1       5.472   4.611  15.882  0.00  0.00    +0.000 A 
ATOM     20  N   UNL     1       5.428   3.954  14.738  0.00  0.00    +0.000 NA
ATOM     21  N   UNL     1       6.585   4.244  14.079  0.00  0.00    +0.000 NA
ATOM     22  N   UNL     1       7.326   5.090  14.774  0.00  0.00    +0.000 NA
ATOM     23  N   UNL     1       6.685   5.286  15.953  0.00  0.00    +0.000 N 
BRANCH  23  24
ATOM     24  C   UNL     1       7.266   6.102  16.961  0.00  0.00    +0.000 A 
ATOM     25  C   UNL     1       7.354   7.486  16.734  0.00  0.00    +0.000 A 
ATOM     26  C   UNL     1       7.881   8.335  17.709  0.00  0.00    +0.000 A 
ATOM     27  C   UNL     1       8.356   7.809  18.907  0.00  0.00    +0.000 A 
ATOM     28  C   UNL     1       8.315   6.434  19.126  0.00  0.00    +0.000 A 
ATOM     29  C   UNL     1       7.771   5.579  18.159  0.00  0.00    +0.000 A 
ENDBRANCH  23  24
ENDBRANCH  18  19
ENDBRANCH   6  18
TORSDOF 6
ENDMDL
MODEL 8
REMARK VINA RESULT:      -7.7      3.576      6.492
REMARK  Name = 
REMARK  7 active torsions:
REMARK  status: ('A' for Active; 'I' for Inactive)
REMARK    1  A    between atoms: C_1  and  C_2
REMARK    2  A    between atoms: C_2  and  C_3
REMARK    3  A    between atoms: C_3  and  C_4
REMARK    4  A    between atoms: C_4  and  C_5
REMARK    5  A    between atoms: N_14  and  C_15
REMARK    6  A    between atoms: C_15  and  C_16
REMARK    7  A    between atoms: N_20  and  C_21
REMARK                            x       y       z     vdW  Elec       q    Type
REMARK                         _______ _______ _______ _____ _____    ______ ____
ROOT
ATOM      1  C   UNL     1       1.383  11.507  20.126  0.00  0.00    +0.000 C 
ATOM      2  C   UNL     1       0.882  10.133  19.712  0.00  0.00    +0.000 C 
ATOM      3  N   UNL     1       1.143   9.148  20.736  0.00  0.00    +0.000 N 
ATOM      4  C   UNL     1       1.630   7.977  20.195  0.00  0.00    +0.000 C 
ATOM      5  O   UNL     1       1.639   6.912  20.790  0.00  0.00    +0.000 OA
ATOM      6  N   UNL     1       1.971   8.208  18.895  0.00  0.00    +0.000 N 
ATOM      7  C   UNL     1       1.662   9.501  18.544  0.00  0.00    +0.000 C 
ATOM      8  O   UNL     1       1.767   9.996  17.430  0.00  0.00    +0.000 OA
ATOM      9  H   UNL     1       0.733   9.143  21.661  0.00  0.00    +0.000 HD
ENDROOT
BRANCH   2  10
ATOM     10  C   UNL     1      -0.615  10.183  19.302  0.00  0.00    +0.000 C 
BRANCH  10  11
ATOM     11  C   UNL     1      -1.016  11.454  18.534  0.00  0.00    +0.000 C 
BRANCH  11  12
ATOM     12  C   UNL     1      -2.396  11.399  17.942  0.00  0.00    +0.000 A 
ATOM     13  C   UNL     1      -3.510  11.770  18.708  0.00  0.00    +0.000 A 
ATOM     14  C   UNL     1      -4.779  11.805  18.130  0.00  0.00    +0.000 A 
ATOM     15  C   UNL     1      -4.942  11.458  16.791  0.00  0.00    +0.000 A 
ATOM     16  C   UNL     1      -3.843  11.064  16.029  0.00  0.00    +0.000 A 
ATOM     17  C   UNL     1      -2.572  11.030  16.605  0.00  0.00    +0.000 A 
ENDBRANCH  11  12
ENDBRANCH  10  11
ENDBRANCH   2  10
BRANCH   6  18
ATOM     18  C   UNL     1       2.131   7.141  17.927  0.00  0.00    +0.000 C 
BRANCH  18  19
ATOM     19  C   UNL     1       3.467   6.510  17.969  0.00  0.00    +0.000 A 
ATOM     20  N   UNL     1       4.613   7.078  17.642  0.00  0.00    +0.000 NA
ATOM     21  N   UNL     1       5.596   6.208  18.006  0.00  0.00    +0.000 NA
ATOM     22  N   UNL     1       5.086   5.132  18.580  0.00  0.00    +0.000 NA
ATOM     23  N   UNL     1       3.738   5.258  18.507  0.00  0.00    +0.000 N 
BRANCH  23  24
ATOM     24  C   UNL     1       2.891   4.219  18.982  0.00  0.00    +0.000 A 
ATOM     25  C   UNL     1       2.947   3.882  20.345  0.00  0.00    +0.000 A 
ATOM     26  C   UNL     1       2.107   2.897  20.869  0.00  0.00    +0.000 A 
ATOM     27  C   UNL     1       1.229   2.214  20.033  0.00  0.00    +0.000 A 
ATOM     28  C   UNL     1       1.197   2.508  18.672  0.00  0.00    +0.000 A 
ATOM     29  C   UNL     1       2.023   3.509  18.143  0.00  0.00    +0.000 A 
ENDBRANCH  23  24
ENDBRANCH  18  19
ENDBRANCH   6  18
TORSDOF 6
ENDMDL
MODEL 9
REMARK VINA RESULT:      -7.6      1.754      7.314
REMARK  Name = 
REMARK  7 active torsions:
REMARK  status: ('A' for Active; 'I' for Inactive)
REMARK    1  A    between atoms: C_1  and  C_2
REMARK    2  A    between atoms: C_2  and  C_3
REMARK    3  A    between atoms: C_3  and  C_4
REMARK    4  A    between atoms: C_4  and  C_5
REMARK    5  A    between atoms: N_14  and  C_15
REMARK    6  A    between atoms: C_15  and  C_16
REMARK    7  A    between atoms: N_20  and  C_21
REMARK                            x       y       z     vdW  Elec       q    Type
REMARK                         _______ _______ _______ _____ _____    ______ ____
ROOT
ATOM      1  C   UNL     1       3.767   1.775  17.677  0.00  0.00    +0.000 C 
ATOM      2  C   UNL     1       3.959   3.282  17.740  0.00  0.00    +0.000 C 
ATOM      3  N   UNL     1       5.100   3.633  18.551  0.00  0.00    +0.000 N 
ATOM      4  C   UNL     1       4.816   4.689  19.391  0.00  0.00    +0.000 C 
ATOM      5  O   UNL     1       5.669   5.361  19.943  0.00  0.00    +0.000 OA
ATOM      6  N   UNL     1       3.467   4.893  19.389  0.00  0.00    +0.000 N 
ATOM      7  C   UNL     1       2.855   4.027  18.513  0.00  0.00    +0.000 C 
ATOM      8  O   UNL     1       1.668   4.010  18.219  0.00  0.00    +0.000 OA
ATOM      9  H   UNL     1       6.063   3.406  18.337  0.00  0.00    +0.000 HD
ENDROOT
BRANCH   2  10
ATOM     10  C   UNL     1       4.029   3.897  16.316  0.00  0.00    +0.000 C 
BRANCH  10  11
ATOM     11  C   UNL     1       5.322   4.681  16.031  0.00  0.00    +0.000 C 
BRANCH  11  12
ATOM     12  C   UNL     1       5.856   4.491  14.639  0.00  0.00    +0.000 A 
ATOM     13  C   UNL     1       7.058   5.103  14.252  0.00  0.00    +0.000 A 
ATOM     14  C   UNL     1       7.596   4.853  12.990  0.00  0.00    +0.000 A 
ATOM     15  C   UNL     1       6.934   4.003  12.107  0.00  0.00    +0.000 A 
ATOM     16  C   UNL     1       5.727   3.411  12.475  0.00  0.00    +0.000 A 
ATOM     17  C   UNL     1       5.186   3.658  13.737  0.00  0.00    +0.000 A 
ENDBRANCH  11  12
ENDBRANCH  10  11
ENDBRANCH   2  10
BRANCH   6  18
ATOM     18  C   UNL     1       2.864   6.138  19.824  0.00  0.00    +0.000 C 
BRANCH  18  19
ATOM     19  C   UNL     1       2.844   7.175  18.772  0.00  0.00    +0.000 A 
ATOM     20  N   UNL     1       3.437   7.110  17.595  0.00  0.00    +0.000 NA
ATOM     21  N   UNL     1       3.007   8.188  16.882  0.00  0.00    +0.000 NA
ATOM     22  N   UNL     1       2.137   8.899  17.579  0.00  0.00    +0.000 NA
ATOM     23  N   UNL     1       2.067   8.327  18.806  0.00  0.00    +0.000 N 
BRANCH  23  24
ATOM     24  C   UNL     1       1.259   8.903  19.824  0.00  0.00    +0.000 A 
ATOM     25  C   UNL     1       1.322   8.358  21.117  0.00  0.00    +0.000 A 
ATOM     26  C   UNL     1       0.578   8.914  22.160  0.00  0.00    +0.000 A 
ATOM     27  C   UNL     1      -0.263   9.995  21.917  0.00  0.00    +0.000 A 
ATOM     28  C   UNL     1      -0.368  10.516  20.629  0.00  0.00    +0.000 A 
ATOM     29  C   UNL     1       0.390   9.976  19.582  0.00  0.00    +0.000 A 
ENDBRANCH  23  24
ENDBRANCH  18  19
ENDBRANCH   6  18
TORSDOF 6
ENDMDL
