MODEL 1
REMARK VINA RESULT:      -8.9      0.000      0.000
REMARK  Name = 
REMARK  7 active torsions:
REMARK  status: ('A' for Active; 'I' for Inactive)
REMARK    1  A    between atoms: C_1  and  C_2
REMARK    2  A    between atoms: C_7  and  N_8
REMARK    3  A    between atoms: N_15  and  C_16
REMARK    4  A    between atoms: C_20  and  C_21
REMARK    5  A    between atoms: C_21  and  C_22
REMARK    6  A    between atoms: C_22  and  C_23
REMARK    7  A    between atoms: N_27  and  C_28
REMARK                            x       y       z     vdW  Elec       q    Type
REMARK                         _______ _______ _______ _____ _____    ______ ____
ROOT
ATOM      1  C   UNL     1       3.092   6.020  19.447  0.00  0.00    +0.000 A 
ATOM      2  C   UNL     1       2.860   4.706  19.887  0.00  0.00    +0.000 A 
ATOM      3  C   UNL     1       3.807   3.709  19.733  0.00  0.00    +0.000 A 
ATOM      4  C   UNL     1       5.031   4.028  19.167  0.00  0.00    +0.000 A 
ATOM      5  C   UNL     1       5.340   5.338  18.734  0.00  0.00    +0.000 A 
ATOM      6  C   UNL     1       4.312   6.312  18.828  0.00  0.00    +0.000 A 
ENDROOT
BRANCH   1  16
ATOM      7  C   UNL     1      -0.586  11.804  22.251  0.00  0.00    +0.000 C 
ATOM      8  C   UNL     1       0.185  10.868  21.353  0.00  0.00    +0.000 A 
ATOM      9  C   UNL     1       0.294   9.494  21.714  0.00  0.00    +0.000 A 
ATOM     10  C   UNL     1       0.922   8.629  20.833  0.00  0.00    +0.000 A 
ATOM     11  C   UNL     1       1.307   9.126  19.600  0.00  0.00    +0.000 A 
ATOM     12  C   UNL     1       1.270  10.456  19.241  0.00  0.00    +0.000 A 
ATOM     13  C   UNL     1       0.778  11.375  20.157  0.00  0.00    +0.000 A 
ATOM     14  C   UNL     1       1.924   8.077  18.822  0.00  0.00    +0.000 C 
ATOM     15  O   UNL     1       2.234   8.232  17.655  0.00  0.00    +0.000 OA
ATOM     16  N   UNL     1       2.092   6.997  19.677  0.00  0.00    +0.000 N 
ATOM     17  C   UNL     1       1.355   7.184  20.930  0.00  0.00    +0.000 C 
BRANCH  13  18
ATOM     18  N   UNL     1       0.899  12.751  19.947  0.00  0.00    +0.000 N 
ATOM     19  C   UNL     1       0.708  13.308  18.613  0.00  0.00    +0.000 C 
ATOM     20  C   UNL     1       1.231  14.716  18.819  0.00  0.00    +0.000 C 
ATOM     21  O   UNL     1       2.349  14.576  19.715  0.00  0.00    +0.000 OA
ATOM     22  C   UNL     1       2.190  13.304  20.375  0.00  0.00    +0.000 C 
ENDBRANCH  13  18
ENDBRANCH   1  16
BRANCH   5  23
ATOM     23  C   UNL     1       6.828   5.667  18.239  0.00  0.00    +0.000 C 
ATOM     24  C   UNL     1       7.814   6.042  19.392  0.00  0.00    +0.000 C 
ATOM     25  O   UNL     1       8.402   7.086  18.577  0.00  0.00    +0.000 OA
ATOM     26  C   UNL     1       7.192   7.098  17.761  0.00  0.00    +0.000 C 
BRANCH  23  27
ATOM     27  C   UNL     1       7.406   4.550  17.353  0.00  0.00    +0.000 C 
BRANCH  27  28
ATOM     28  C   UNL     1       7.028   4.660  15.914  0.00  0.00    +0.000 A 
ATOM     29  N   UNL     1       7.693   5.295  14.967  0.00  0.00    +0.000 NA
ATOM     30  N   UNL     1       7.032   5.124  13.776  0.00  0.00    +0.000 NA
ATOM     31  C   UNL     1       5.987   4.361  14.015  0.00  0.00    +0.000 A 
ATOM     32  N   UNL     1       5.942   4.051  15.339  0.00  0.00    +0.000 N 
ATOM     33  C   UNL     1       4.952   3.227  15.978  0.00  0.00    +0.000 C 
ENDBRANCH  27  28
ENDBRANCH  23  27
ENDBRANCH   5  23
TORSDOF 5
ENDMDL
MODEL 2
REMARK VINA RESULT:      -8.4      3.157      5.299
REMARK  Name = 
REMARK  7 active torsions:
REMARK  status: ('A' for Active; 'I' for Inactive)
REMARK    1  A    between atoms: C_1  and  C_2
REMARK    2  A    between atoms: C_7  and  N_8
REMARK    3  A    between atoms: N_15  and  C_16
REMARK    4  A    between atoms: C_20  and  C_21
REMARK    5  A    between atoms: C_21  and  C_22
REMARK    6  A    between atoms: C_22  and  C_23
REMARK    7  A    between atoms: N_27  and  C_28
REMARK                            x       y       z     vdW  Elec       q    Type
REMARK                         _______ _______ _______ _____ _____    ______ ____
ROOT
ATOM      1  C   UNL     1       1.291   9.567  20.041  0.00  0.00    +0.000 A 
ATOM      2  C   UNL     1       1.239   9.935  18.686  0.00  0.00    +0.000 A 
ATOM      3  C   UNL     1       1.626   9.065  17.681  0.00  0.00    +0.000 A 
ATOM      4  C   UNL     1       2.034   7.786  18.021  0.00  0.00    +0.000 A 
ATOM      5  C   UNL     1       2.077   7.343  19.363  0.00  0.00    +0.000 A 
ATOM      6  C   UNL     1       1.757   8.291  20.370  0.00  0.00    +0.000 A 
ENDROOT
BRANCH   1  16
ATOM      7  C   UNL     1      -2.080  15.341  23.226  0.00  0.00    +0.000 C 
ATOM      8  C   UNL     1      -1.668  13.956  22.793  0.00  0.00    +0.000 A 
ATOM      9  C   UNL     1      -0.416  13.778  22.138  0.00  0.00    +0.000 A 
ATOM     10  C   UNL     1      -0.008  12.490  21.832  0.00  0.00    +0.000 A 
ATOM     11  C   UNL     1      -0.788  11.439  22.284  0.00  0.00    +0.000 A 
ATOM     12  C   UNL     1      -2.029  11.574  22.867  0.00  0.00    +0.000 A 
ATOM     13  C   UNL     1      -2.535  12.853  23.059  0.00  0.00    +0.000 A 
ATOM     14  C   UNL     1      -0.195  10.184  21.884  0.00  0.00    +0.000 C 
ATOM     15  O   UNL     1      -0.626   9.112  22.267  0.00  0.00    +0.000 OA
ATOM     16  N   UNL     1       0.838  10.495  21.011  0.00  0.00    +0.000 N 
ATOM     17  C   UNL     1       1.141  11.929  21.027  0.00  0.00    +0.000 C 
BRANCH  13  18
ATOM     18  N   UNL     1      -3.859  13.062  23.451  0.00  0.00    +0.000 N 
ATOM     19  C   UNL     1      -4.393  12.378  24.622  0.00  0.00    +0.000 C 
ATOM     20  C   UNL     1      -5.874  12.659  24.462  0.00  0.00    +0.000 C 
ATOM     21  O   UNL     1      -6.118  12.597  23.044  0.00  0.00    +0.000 OA
ATOM     22  C   UNL     1      -4.841  12.772  22.399  0.00  0.00    +0.000 C 
ENDBRANCH  13  18
ENDBRANCH   1  16
BRANCH   5  23
ATOM     23  C   UNL     1       2.404   5.804  19.668  0.00  0.00    +0.000 C 
ATOM     24  C   UNL     1       1.571   4.794  18.814  0.00  0.00    +0.000 C 
ATOM     25  O   UNL     1       1.398   3.932  19.966  0.00  0.00    +0.000 OA
ATOM     26  C   UNL     1       1.688   5.070  20.833  0.00  0.00    +0.000 C 
BRANCH  23  27
ATOM     27  C   UNL     1       3.910   5.501  19.576  0.00  0.00    +0.000 C 
BRANCH  27  28
ATOM     28  C   UNL     1       4.351   5.020  18.235  0.00  0.00    +0.000 A 
ATOM     29  N   UNL     1       4.687   5.764  17.197  0.00  0.00    +0.000 NA
ATOM     30  N   UNL     1       5.069   4.937  16.170  0.00  0.00    +0.000 NA
ATOM     31  C   UNL     1       4.985   3.701  16.611  0.00  0.00    +0.000 A 
ATOM     32  N   UNL     1       4.536   3.704  17.894  0.00  0.00    +0.000 N 
ATOM     33  C   UNL     1       4.327   2.543  18.716  0.00  0.00    +0.000 C 
ENDBRANCH  27  28
ENDBRANCH  23  27
ENDBRANCH   5  23
TORSDOF 5
ENDMDL
MODEL 3
REMARK VINA RESULT:      -8.4      3.121      5.244
REMARK  Name = 
REMARK  7 active torsions:
REMARK  status: ('A' for Active; 'I' for Inactive)
REMARK    1  A    between atoms: C_1  and  C_2
REMARK    2  A    between atoms: C_7  and  N_8
REMARK    3  A    between atoms: N_15  and  C_16
REMARK    4  A    between atoms: C_20  and  C_21
REMARK    5  A    between atoms: C_21  and  C_22
REMARK    6  A    between atoms: C_22  and  C_23
REMARK    7  A    between atoms: N_27  and  C_28
REMARK                            x       y       z     vdW  Elec       q    Type
REMARK                         _______ _______ _______ _____ _____    ______ ____
ROOT
ATOM      1  C   UNL     1       1.344   9.460  19.964  0.00  0.00    +0.000 A 
ATOM      2  C   UNL     1       1.226   9.785  18.601  0.00  0.00    +0.000 A 
ATOM      3  C   UNL     1       1.597   8.897  17.607  0.00  0.00    +0.000 A 
ATOM      4  C   UNL     1       2.055   7.641  17.966  0.00  0.00    +0.000 A 
ATOM      5  C   UNL     1       2.166   7.239  19.317  0.00  0.00    +0.000 A 
ATOM      6  C   UNL     1       1.860   8.207  20.309  0.00  0.00    +0.000 A 
ENDROOT
BRANCH   1  16
ATOM      7  C   UNL     1      -1.967  15.297  23.095  0.00  0.00    +0.000 C 
ATOM      8  C   UNL     1      -1.567  13.903  22.678  0.00  0.00    +0.000 A 
ATOM      9  C   UNL     1      -0.321  13.710  22.016  0.00  0.00    +0.000 A 
ATOM     10  C   UNL     1       0.077  12.415  21.724  0.00  0.00    +0.000 A 
ATOM     11  C   UNL     1      -0.706  11.375  22.197  0.00  0.00    +0.000 A 
ATOM     12  C   UNL     1      -1.942  11.525  22.788  0.00  0.00    +0.000 A 
ATOM     13  C   UNL     1      -2.438  12.809  22.966  0.00  0.00    +0.000 A 
ATOM     14  C   UNL     1      -0.124  10.111  21.809  0.00  0.00    +0.000 C 
ATOM     15  O   UNL     1      -0.558   9.047  22.210  0.00  0.00    +0.000 OA
ATOM     16  N   UNL     1       0.904  10.404  20.924  0.00  0.00    +0.000 N 
ATOM     17  C   UNL     1       1.216  11.836  20.918  0.00  0.00    +0.000 C 
BRANCH  13  18
ATOM     18  N   UNL     1      -3.758  13.032  23.365  0.00  0.00    +0.000 N 
ATOM     19  C   UNL     1      -4.291  12.359  24.544  0.00  0.00    +0.000 C 
ATOM     20  C   UNL     1      -5.770  12.652  24.391  0.00  0.00    +0.000 C 
ATOM     21  O   UNL     1      -6.024  12.584  22.976  0.00  0.00    +0.000 OA
ATOM     22  C   UNL     1      -4.749  12.744  22.321  0.00  0.00    +0.000 C 
ENDBRANCH  13  18
ENDBRANCH   1  16
BRANCH   5  23
ATOM     23  C   UNL     1       2.550   5.720  19.653  0.00  0.00    +0.000 C 
ATOM     24  C   UNL     1       1.762   4.664  18.812  0.00  0.00    +0.000 C 
ATOM     25  O   UNL     1       1.614   3.816  19.979  0.00  0.00    +0.000 OA
ATOM     26  C   UNL     1       1.854   4.980  20.826  0.00  0.00    +0.000 C 
BRANCH  23  27
ATOM     27  C   UNL     1       4.067   5.474  19.576  0.00  0.00    +0.000 C 
BRANCH  27  28
ATOM     28  C   UNL     1       4.519   4.871  18.289  0.00  0.00    +0.000 A 
ATOM     29  N   UNL     1       4.382   3.613  17.911  0.00  0.00    +0.000 NA
ATOM     30  N   UNL     1       4.896   3.476  16.646  0.00  0.00    +0.000 NA
ATOM     31  C   UNL     1       5.313   4.664  16.263  0.00  0.00    +0.000 A 
ATOM     32  N   UNL     1       5.102   5.564  17.260  0.00  0.00    +0.000 N 
ATOM     33  C   UNL     1       5.418   6.966  17.208  0.00  0.00    +0.000 C 
ENDBRANCH  27  28
ENDBRANCH  23  27
ENDBRANCH   5  23
TORSDOF 5
ENDMDL
MODEL 4
REMARK VINA RESULT:      -8.2      3.159      5.216
REMARK  Name = 
REMARK  7 active torsions:
REMARK  status: ('A' for Active; 'I' for Inactive)
REMARK    1  A    between atoms: C_1  and  C_2
REMARK    2  A    between atoms: C_7  and  N_8
REMARK    3  A    between atoms: N_15  and  C_16
REMARK    4  A    between atoms: C_20  and  C_21
REMARK    5  A    between atoms: C_21  and  C_22
REMARK    6  A    between atoms: C_22  and  C_23
REMARK    7  A    between atoms: N_27  and  C_28
REMARK                            x       y       z     vdW  Elec       q    Type
REMARK                         _______ _______ _______ _____ _____    ______ ____
ROOT
ATOM      1  C   UNL     1       1.430   9.083  20.009  0.00  0.00    +0.000 A 
ATOM      2  C   UNL     1       1.490   9.416  18.645  0.00  0.00    +0.000 A 
ATOM      3  C   UNL     1       1.849   8.487  17.684  0.00  0.00    +0.000 A 
ATOM      4  C   UNL     1       2.114   7.185  18.076  0.00  0.00    +0.000 A 
ATOM      5  C   UNL     1       2.040   6.777  19.428  0.00  0.00    +0.000 A 
ATOM      6  C   UNL     1       1.754   7.778  20.393  0.00  0.00    +0.000 A 
ENDROOT
BRANCH   1  16
ATOM      7  C   UNL     1      -1.709  15.141  22.888  0.00  0.00    +0.000 C 
ATOM      8  C   UNL     1      -1.353  13.720  22.527  0.00  0.00    +0.000 A 
ATOM      9  C   UNL     1      -0.108  13.459  21.886  0.00  0.00    +0.000 A 
ATOM     10  C   UNL     1       0.247  12.142  21.647  0.00  0.00    +0.000 A 
ATOM     11  C   UNL     1      -0.576  11.148  22.147  0.00  0.00    +0.000 A 
ATOM     12  C   UNL     1      -1.812  11.361  22.717  0.00  0.00    +0.000 A 
ATOM     13  C   UNL     1      -2.265  12.668  22.843  0.00  0.00    +0.000 A 
ATOM     14  C   UNL     1      -0.034   9.851  21.812  0.00  0.00    +0.000 C 
ATOM     15  O   UNL     1      -0.509   8.818  22.246  0.00  0.00    +0.000 OA
ATOM     16  N   UNL     1       1.013  10.076  20.929  0.00  0.00    +0.000 N 
ATOM     17  C   UNL     1       1.375  11.496  20.875  0.00  0.00    +0.000 C 
BRANCH  13  18
ATOM     18  N   UNL     1      -3.581  12.950  23.218  0.00  0.00    +0.000 N 
ATOM     19  C   UNL     1      -4.141  12.359  24.427  0.00  0.00    +0.000 C 
ATOM     20  C   UNL     1      -5.610  12.685  24.246  0.00  0.00    +0.000 C 
ATOM     21  O   UNL     1      -5.856  12.546  22.835  0.00  0.00    +0.000 OA
ATOM     22  C   UNL     1      -4.573  12.634  22.183  0.00  0.00    +0.000 C 
ENDBRANCH  13  18
ENDBRANCH   1  16
BRANCH   5  23
ATOM     23  C   UNL     1       2.202   5.224  19.786  0.00  0.00    +0.000 C 
ATOM     24  C   UNL     1       0.856   4.504  20.124  0.00  0.00    +0.000 C 
ATOM     25  O   UNL     1       1.493   3.775  21.203  0.00  0.00    +0.000 OA
ATOM     26  C   UNL     1       2.543   4.789  21.237  0.00  0.00    +0.000 C 
BRANCH  23  27
ATOM     27  C   UNL     1       2.987   4.458  18.707  0.00  0.00    +0.000 C 
BRANCH  27  28
ATOM     28  C   UNL     1       4.454   4.727  18.718  0.00  0.00    +0.000 A 
ATOM     29  N   UNL     1       5.177   5.135  19.745  0.00  0.00    +0.000 NA
ATOM     30  N   UNL     1       6.489   5.225  19.350  0.00  0.00    +0.000 NA
ATOM     31  C   UNL     1       6.546   4.842  18.093  0.00  0.00    +0.000 A 
ATOM     32  N   UNL     1       5.297   4.527  17.655  0.00  0.00    +0.000 N 
ATOM     33  C   UNL     1       4.960   4.057  16.339  0.00  0.00    +0.000 C 
ENDBRANCH  27  28
ENDBRANCH  23  27
ENDBRANCH   5  23
TORSDOF 5
ENDMDL
MODEL 5
REMARK VINA RESULT:      -8.1      4.031     10.126
REMARK  Name = 
REMARK  7 active torsions:
REMARK  status: ('A' for Active; 'I' for Inactive)
REMARK    1  A    between atoms: C_1  and  C_2
REMARK    2  A    between atoms: C_7  and  N_8
REMARK    3  A    between atoms: N_15  and  C_16
REMARK    4  A    between atoms: C_20  and  C_21
REMARK    5  A    between atoms: C_21  and  C_22
REMARK    6  A    between atoms: C_22  and  C_23
REMARK    7  A    between atoms: N_27  and  C_28
REMARK                            x       y       z     vdW  Elec       q    Type
REMARK                         _______ _______ _______ _____ _____    ______ ____
ROOT
ATOM      1  C   UNL     1       0.282  10.244  18.771  0.00  0.00    +0.000 A 
ATOM      2  C   UNL     1       0.595  11.585  19.052  0.00  0.00    +0.000 A 
ATOM      3  C   UNL     1      -0.185  12.628  18.584  0.00  0.00    +0.000 A 
ATOM      4  C   UNL     1      -1.326  12.338  17.856  0.00  0.00    +0.000 A 
ATOM      5  C   UNL     1      -1.716  11.010  17.566  0.00  0.00    +0.000 A 
ATOM      6  C   UNL     1      -0.844   9.971  17.988  0.00  0.00    +0.000 A 
ENDROOT
BRANCH   1  16
ATOM      7  C   UNL     1       2.534   3.818  21.681  0.00  0.00    +0.000 C 
ATOM      8  C   UNL     1       2.298   4.999  20.773  0.00  0.00    +0.000 A 
ATOM      9  C   UNL     1       1.745   6.193  21.318  0.00  0.00    +0.000 A 
ATOM     10  C   UNL     1       1.623   7.300  20.493  0.00  0.00    +0.000 A 
ATOM     11  C   UNL     1       2.152   7.218  19.216  0.00  0.00    +0.000 A 
ATOM     12  C   UNL     1       2.639   6.066  18.638  0.00  0.00    +0.000 A 
ATOM     13  C   UNL     1       2.643   4.899  19.390  0.00  0.00    +0.000 A 
ATOM     14  C   UNL     1       1.944   8.467  18.521  0.00  0.00    +0.000 C 
ATOM     15  O   UNL     1       2.428   8.688  17.426  0.00  0.00    +0.000 OA
ATOM     16  N   UNL     1       1.103   9.229  19.320  0.00  0.00    +0.000 N 
ATOM     17  C   UNL     1       0.963   8.649  20.659  0.00  0.00    +0.000 C 
BRANCH  13  18
ATOM     18  N   UNL     1       2.926   3.659  18.812  0.00  0.00    +0.000 N 
ATOM     19  C   UNL     1       4.000   3.536  17.834  0.00  0.00    +0.000 C 
ATOM     20  C   UNL     1       3.724   2.149  17.287  0.00  0.00    +0.000 C 
ATOM     21  O   UNL     1       2.290   2.038  17.247  0.00  0.00    +0.000 OA
ATOM     22  C   UNL     1       1.774   3.039  18.146  0.00  0.00    +0.000 C 
ENDBRANCH  13  18
ENDBRANCH   1  16
BRANCH   5  23
ATOM     23  C   UNL     1      -3.129  10.745  16.860  0.00  0.00    +0.000 C 
ATOM     24  C   UNL     1      -3.090   9.645  15.750  0.00  0.00    +0.000 C 
ATOM     25  O   UNL     1      -3.964  10.436  14.907  0.00  0.00    +0.000 OA
ATOM     26  C   UNL     1      -3.579  11.624  15.662  0.00  0.00    +0.000 C 
BRANCH  23  27
ATOM     27  C   UNL     1      -4.246  10.468  17.881  0.00  0.00    +0.000 C 
BRANCH  27  28
ATOM     28  C   UNL     1      -5.179  11.613  18.086  0.00  0.00    +0.000 A 
ATOM     29  N   UNL     1      -6.263  11.888  17.384  0.00  0.00    +0.000 NA
ATOM     30  N   UNL     1      -6.861  13.003  17.917  0.00  0.00    +0.000 NA
ATOM     31  C   UNL     1      -6.144  13.371  18.957  0.00  0.00    +0.000 A 
ATOM     32  N   UNL     1      -5.080  12.535  19.097  0.00  0.00    +0.000 N 
ATOM     33  C   UNL     1      -4.078  12.612  20.126  0.00  0.00    +0.000 C 
ENDBRANCH  27  28
ENDBRANCH  23  27
ENDBRANCH   5  23
TORSDOF 5
ENDMDL
MODEL 6
REMARK VINA RESULT:      -8.1      3.377      5.538
REMARK  Name = 
REMARK  7 active torsions:
REMARK  status: ('A' for Active; 'I' for Inactive)
REMARK    1  A    between atoms: C_1  and  C_2
REMARK    2  A    between atoms: C_7  and  N_8
REMARK    3  A    between atoms: N_15  and  C_16
REMARK    4  A    between atoms: C_20  and  C_21
REMARK    5  A    between atoms: C_21  and  C_22
REMARK    6  A    between atoms: C_22  and  C_23
REMARK    7  A    between atoms: N_27  and  C_28
REMARK                            x       y       z     vdW  Elec       q    Type
REMARK                         _______ _______ _______ _____ _____    ______ ____
ROOT
ATOM      1  C   UNL     1       1.353   9.789  19.947  0.00  0.00    +0.000 A 
ATOM      2  C   UNL     1       1.465  10.258  18.627  0.00  0.00    +0.000 A 
ATOM      3  C   UNL     1       1.885   9.436  17.595  0.00  0.00    +0.000 A 
ATOM      4  C   UNL     1       2.160   8.107  17.867  0.00  0.00    +0.000 A 
ATOM      5  C   UNL     1       2.035   7.563  19.166  0.00  0.00    +0.000 A 
ATOM      6  C   UNL     1       1.687   8.457  20.213  0.00  0.00    +0.000 A 
ENDROOT
BRANCH   1  16
ATOM      7  C   UNL     1      -2.152  15.392  23.287  0.00  0.00    +0.000 C 
ATOM      8  C   UNL     1      -1.709  14.029  22.814  0.00  0.00    +0.000 A 
ATOM      9  C   UNL     1      -0.450  13.897  22.162  0.00  0.00    +0.000 A 
ATOM     10  C   UNL     1      -0.015  12.627  21.819  0.00  0.00    +0.000 A 
ATOM     11  C   UNL     1      -0.777  11.548  22.232  0.00  0.00    +0.000 A 
ATOM     12  C   UNL     1      -2.024  11.639  22.811  0.00  0.00    +0.000 A 
ATOM     13  C   UNL     1      -2.556  12.901  23.039  0.00  0.00    +0.000 A 
ATOM     14  C   UNL     1      -0.157  10.318  21.797  0.00  0.00    +0.000 C 
ATOM     15  O   UNL     1      -0.569   9.226  22.144  0.00  0.00    +0.000 OA
ATOM     16  N   UNL     1       0.876  10.676  20.941  0.00  0.00    +0.000 N 
ATOM     17  C   UNL     1       1.150  12.115  21.005  0.00  0.00    +0.000 C 
BRANCH  13  18
ATOM     18  N   UNL     1      -3.887  13.073  23.428  0.00  0.00    +0.000 N 
ATOM     19  C   UNL     1      -4.405  12.368  24.594  0.00  0.00    +0.000 C 
ATOM     20  C   UNL     1      -5.893  12.609  24.431  0.00  0.00    +0.000 C 
ATOM     21  O   UNL     1      -6.131  12.547  23.012  0.00  0.00    +0.000 OA
ATOM     22  C   UNL     1      -4.858  12.760  22.372  0.00  0.00    +0.000 C 
ENDBRANCH  13  18
ENDBRANCH   1  16
BRANCH   5  23
ATOM     23  C   UNL     1       2.214   5.984  19.374  0.00  0.00    +0.000 C 
ATOM     24  C   UNL     1       1.560   5.437  20.684  0.00  0.00    +0.000 C 
ATOM     25  O   UNL     1       2.698   4.568  20.912  0.00  0.00    +0.000 OA
ATOM     26  C   UNL     1       3.498   5.426  20.044  0.00  0.00    +0.000 C 
BRANCH  23  27
ATOM     27  C   UNL     1       1.755   5.181  18.145  0.00  0.00    +0.000 C 
BRANCH  27  28
ATOM     28  C   UNL     1       2.562   3.954  17.886  0.00  0.00    +0.000 A 
ATOM     29  N   UNL     1       3.776   3.897  17.369  0.00  0.00    +0.000 NA
ATOM     30  N   UNL     1       4.178   2.585  17.334  0.00  0.00    +0.000 NA
ATOM     31  C   UNL     1       3.209   1.865  17.858  0.00  0.00    +0.000 A 
ATOM     32  N   UNL     1       2.178   2.678  18.212  0.00  0.00    +0.000 N 
ATOM     33  C   UNL     1       0.948   2.258  18.827  0.00  0.00    +0.000 C 
ENDBRANCH  27  28
ENDBRANCH  23  27
ENDBRANCH   5  23
TORSDOF 5
ENDMDL
MODEL 7
REMARK VINA RESULT:      -8.1      3.553      5.546
REMARK  Name = 
REMARK  7 active torsions:
REMARK  status: ('A' for Active; 'I' for Inactive)
REMARK    1  A    between atoms: C_1  and  C_2
REMARK    2  A    between atoms: C_7  and  N_8
REMARK    3  A    between atoms: N_15  and  C_16
REMARK    4  A    between atoms: C_20  and  C_21
REMARK    5  A    between atoms: C_21  and  C_22
REMARK    6  A    between atoms: C_22  and  C_23
REMARK    7  A    between atoms: N_27  and  C_28
REMARK                            x       y       z     vdW  Elec       q    Type
REMARK                         _______ _______ _______ _____ _____    ______ ____
ROOT
ATOM      1  C   UNL     1       1.323   9.412  20.083  0.00  0.00    +0.000 A 
ATOM      2  C   UNL     1       1.313   9.706  18.709  0.00  0.00    +0.000 A 
ATOM      3  C   UNL     1       1.707   8.776  17.763  0.00  0.00    +0.000 A 
ATOM      4  C   UNL     1       2.079   7.510  18.181  0.00  0.00    +0.000 A 
ATOM      5  C   UNL     1       2.080   7.139  19.546  0.00  0.00    +0.000 A 
ATOM      6  C   UNL     1       1.755   8.146  20.492  0.00  0.00    +0.000 A 
ENDROOT
BRANCH   1  16
ATOM      7  C   UNL     1      -2.118  15.338  22.890  0.00  0.00    +0.000 C 
ATOM      8  C   UNL     1      -1.684  13.932  22.554  0.00  0.00    +0.000 A 
ATOM      9  C   UNL     1      -0.438  13.731  21.893  0.00  0.00    +0.000 A 
ATOM     10  C   UNL     1      -0.009  12.432  21.676  0.00  0.00    +0.000 A 
ATOM     11  C   UNL     1      -0.760  11.403  22.216  0.00  0.00    +0.000 A 
ATOM     12  C   UNL     1      -1.996  11.556  22.808  0.00  0.00    +0.000 A 
ATOM     13  C   UNL     1      -2.524  12.835  22.913  0.00  0.00    +0.000 A 
ATOM     14  C   UNL     1      -0.148  10.133  21.899  0.00  0.00    +0.000 C 
ATOM     15  O   UNL     1      -0.551   9.084  22.367  0.00  0.00    +0.000 OA
ATOM     16  N   UNL     1       0.866  10.399  20.989  0.00  0.00    +0.000 N 
ATOM     17  C   UNL     1       1.139  11.836  20.895  0.00  0.00    +0.000 C 
BRANCH  13  18
ATOM     18  N   UNL     1      -3.847  13.047  23.310  0.00  0.00    +0.000 N 
ATOM     19  C   UNL     1      -4.371  12.383  24.497  0.00  0.00    +0.000 C 
ATOM     20  C   UNL     1      -5.854  12.656  24.341  0.00  0.00    +0.000 C 
ATOM     21  O   UNL     1      -6.107  12.567  22.927  0.00  0.00    +0.000 OA
ATOM     22  C   UNL     1      -4.835  12.734  22.270  0.00  0.00    +0.000 C 
ENDBRANCH  13  18
ENDBRANCH   1  16
BRANCH   5  23
ATOM     23  C   UNL     1       2.368   5.613  19.942  0.00  0.00    +0.000 C 
ATOM     24  C   UNL     1       1.115   4.683  19.844  0.00  0.00    +0.000 C 
ATOM     25  O   UNL     1       1.495   4.009  21.070  0.00  0.00    +0.000 OA
ATOM     26  C   UNL     1       2.308   5.168  21.427  0.00  0.00    +0.000 C 
BRANCH  23  27
ATOM     27  C   UNL     1       3.559   5.026  19.165  0.00  0.00    +0.000 C 
BRANCH  27  28
ATOM     28  C   UNL     1       3.268   3.723  18.501  0.00  0.00    +0.000 A 
ATOM     29  N   UNL     1       2.623   3.539  17.363  0.00  0.00    +0.000 NA
ATOM     30  N   UNL     1       2.602   2.195  17.083  0.00  0.00    +0.000 NA
ATOM     31  C   UNL     1       3.262   1.585  18.043  0.00  0.00    +0.000 A 
ATOM     32  N   UNL     1       3.691   2.499  18.954  0.00  0.00    +0.000 N 
ATOM     33  C   UNL     1       4.457   2.214  20.137  0.00  0.00    +0.000 C 
ENDBRANCH  27  28
ENDBRANCH  23  27
ENDBRANCH   5  23
TORSDOF 5
ENDMDL
MODEL 8
REMARK VINA RESULT:      -8.0      3.289     10.482
REMARK  Name = 
REMARK  7 active torsions:
REMARK  status: ('A' for Active; 'I' for Inactive)
REMARK    1  A    between atoms: C_1  and  C_2
REMARK    2  A    between atoms: C_7  and  N_8
REMARK    3  A    between atoms: N_15  and  C_16
REMARK    4  A    between atoms: C_20  and  C_21
REMARK    5  A    between atoms: C_21  and  C_22
REMARK    6  A    between atoms: C_22  and  C_23
REMARK    7  A    between atoms: N_27  and  C_28
REMARK                            x       y       z     vdW  Elec       q    Type
REMARK                         _______ _______ _______ _____ _____    ______ ____
ROOT
ATOM      1  C   UNL     1       0.026  10.013  19.432  0.00  0.00    +0.000 A 
ATOM      2  C   UNL     1      -0.651  10.134  18.206  0.00  0.00    +0.000 A 
ATOM      3  C   UNL     1      -1.749  10.964  18.059  0.00  0.00    +0.000 A 
ATOM      4  C   UNL     1      -2.162  11.726  19.139  0.00  0.00    +0.000 A 
ATOM      5  C   UNL     1      -1.505  11.676  20.391  0.00  0.00    +0.000 A 
ATOM      6  C   UNL     1      -0.439  10.748  20.527  0.00  0.00    +0.000 A 
ENDROOT
BRANCH   1  16
ATOM      7  C   UNL     1       4.411   4.054  19.126  0.00  0.00    +0.000 C 
ATOM      8  C   UNL     1       3.740   5.380  18.866  0.00  0.00    +0.000 A 
ATOM      9  C   UNL     1       2.896   5.938  19.869  0.00  0.00    +0.000 A 
ATOM     10  C   UNL     1       2.363   7.199  19.655  0.00  0.00    +0.000 A 
ATOM     11  C   UNL     1       2.774   7.894  18.531  0.00  0.00    +0.000 A 
ATOM     12  C   UNL     1       3.540   7.366  17.514  0.00  0.00    +0.000 A 
ATOM     13  C   UNL     1       3.973   6.052  17.627  0.00  0.00    +0.000 A 
ATOM     14  C   UNL     1       2.127   9.185  18.492  0.00  0.00    +0.000 C 
ATOM     15  O   UNL     1       2.418  10.032  17.667  0.00  0.00    +0.000 OA
ATOM     16  N   UNL     1       1.167   9.177  19.494  0.00  0.00    +0.000 N 
ATOM     17  C   UNL     1       1.335   8.028  20.389  0.00  0.00    +0.000 C 
BRANCH  13  18
ATOM     18  N   UNL     1       4.574   5.387  16.556  0.00  0.00    +0.000 N 
ATOM     19  C   UNL     1       5.603   4.384  16.800  0.00  0.00    +0.000 C 
ATOM     20  C   UNL     1       6.147   4.191  15.397  0.00  0.00    +0.000 C 
ATOM     21  O   UNL     1       6.120   5.500  14.800  0.00  0.00    +0.000 OA
ATOM     22  C   UNL     1       5.189   6.286  15.571  0.00  0.00    +0.000 C 
ENDBRANCH  13  18
ENDBRANCH   1  16
BRANCH   5  23
ATOM     23  C   UNL     1      -1.939  12.701  21.543  0.00  0.00    +0.000 C 
ATOM     24  C   UNL     1      -0.760  13.556  22.111  0.00  0.00    +0.000 C 
ATOM     25  O   UNL     1      -1.274  13.406  23.458  0.00  0.00    +0.000 OA
ATOM     26  C   UNL     1      -2.016  12.228  23.020  0.00  0.00    +0.000 C 
BRANCH  23  27
ATOM     27  C   UNL     1      -3.117  13.593  21.114  0.00  0.00    +0.000 C 
BRANCH  27  28
ATOM     28  C   UNL     1      -4.413  13.237  21.760  0.00  0.00    +0.000 A 
ATOM     29  N   UNL     1      -5.191  12.212  21.465  0.00  0.00    +0.000 NA
ATOM     30  N   UNL     1      -6.269  12.219  22.316  0.00  0.00    +0.000 NA
ATOM     31  C   UNL     1      -6.113  13.236  23.136  0.00  0.00    +0.000 A 
ATOM     32  N   UNL     1      -4.970  13.904  22.822  0.00  0.00    +0.000 N 
ATOM     33  C   UNL     1      -4.459  15.063  23.502  0.00  0.00    +0.000 C 
ENDBRANCH  27  28
ENDBRANCH  23  27
ENDBRANCH   5  23
TORSDOF 5
ENDMDL
MODEL 9
REMARK VINA RESULT:      -8.0      1.678      2.566
REMARK  Name = 
REMARK  7 active torsions:
REMARK  status: ('A' for Active; 'I' for Inactive)
REMARK    1  A    between atoms: C_1  and  C_2
REMARK    2  A    between atoms: C_7  and  N_8
REMARK    3  A    between atoms: N_15  and  C_16
REMARK    4  A    between atoms: C_20  and  C_21
REMARK    5  A    between atoms: C_21  and  C_22
REMARK    6  A    between atoms: C_22  and  C_23
REMARK    7  A    between atoms: N_27  and  C_28
REMARK                            x       y       z     vdW  Elec       q    Type
REMARK                         _______ _______ _______ _____ _____    ______ ____
ROOT
ATOM      1  C   UNL     1       2.848   6.213  19.083  0.00  0.00    +0.000 A 
ATOM      2  C   UNL     1       3.060   5.277  20.110  0.00  0.00    +0.000 A 
ATOM      3  C   UNL     1       3.952   4.229  19.967  0.00  0.00    +0.000 A 
ATOM      4  C   UNL     1       4.684   4.127  18.796  0.00  0.00    +0.000 A 
ATOM      5  C   UNL     1       4.543   5.053  17.738  0.00  0.00    +0.000 A 
ATOM      6  C   UNL     1       3.556   6.063  17.886  0.00  0.00    +0.000 A 
ENDROOT
BRANCH   1  16
ATOM      7  C   UNL     1      -0.279  12.272  21.972  0.00  0.00    +0.000 C 
ATOM      8  C   UNL     1       0.415  11.286  21.065  0.00  0.00    +0.000 A 
ATOM      9  C   UNL     1       0.367   9.898  21.385  0.00  0.00    +0.000 A 
ATOM     10  C   UNL     1       0.926   8.997  20.494  0.00  0.00    +0.000 A 
ATOM     11  C   UNL     1       1.398   9.485  19.288  0.00  0.00    +0.000 A 
ATOM     12  C   UNL     1       1.513  10.821  18.970  0.00  0.00    +0.000 A 
ATOM     13  C   UNL     1       1.094  11.761  19.902  0.00  0.00    +0.000 A 
ATOM     14  C   UNL     1       1.923   8.399  18.493  0.00  0.00    +0.000 C 
ATOM     15  O   UNL     1       2.283   8.554  17.341  0.00  0.00    +0.000 OA
ATOM     16  N   UNL     1       1.951   7.283  19.318  0.00  0.00    +0.000 N 
ATOM     17  C   UNL     1       1.201   7.512  20.557  0.00  0.00    +0.000 C 
BRANCH  13  18
ATOM     18  N   UNL     1       1.366  13.121  19.739  0.00  0.00    +0.000 N 
ATOM     19  C   UNL     1       1.234  13.743  18.426  0.00  0.00    +0.000 C 
ATOM     20  C   UNL     1       1.910  15.076  18.677  0.00  0.00    +0.000 C 
ATOM     21  O   UNL     1       3.008  14.782  19.561  0.00  0.00    +0.000 OA
ATOM     22  C   UNL     1       2.712  13.513  20.177  0.00  0.00    +0.000 C 
ENDBRANCH  13  18
ENDBRANCH   1  16
BRANCH   5  23
ATOM     23  C   UNL     1       5.537   4.965  16.483  0.00  0.00    +0.000 C 
ATOM     24  C   UNL     1       5.263   6.036  15.378  0.00  0.00    +0.000 C 
ATOM     25  O   UNL     1       5.497   5.053  14.339  0.00  0.00    +0.000 OA
ATOM     26  C   UNL     1       5.228   3.997  15.311  0.00  0.00    +0.000 C 
BRANCH  23  27
ATOM     27  C   UNL     1       7.014   4.972  16.912  0.00  0.00    +0.000 C 
BRANCH  27  28
ATOM     28  C   UNL     1       7.501   6.298  17.391  0.00  0.00    +0.000 A 
ATOM     29  N   UNL     1       7.536   7.425  16.704  0.00  0.00    +0.000 NA
ATOM     30  N   UNL     1       8.016   8.421  17.519  0.00  0.00    +0.000 NA
ATOM     31  C   UNL     1       8.239   7.886  18.700  0.00  0.00    +0.000 A 
ATOM     32  N   UNL     1       7.936   6.561  18.665  0.00  0.00    +0.000 N 
ATOM     33  C   UNL     1       8.039   5.644  19.768  0.00  0.00    +0.000 C 
ENDBRANCH  27  28
ENDBRANCH  23  27
ENDBRANCH   5  23
TORSDOF 5
ENDMDL
