MODEL 1
REMARK VINA RESULT:      -8.9      0.000      0.000
REMARK  Name = 
REMARK  4 active torsions:
REMARK  status: ('A' for Active; 'I' for Inactive)
REMARK    1  A    between atoms: N_3  and  C_4
REMARK    2  A    between atoms: C_4  and  C_5
REMARK    3  A    between atoms: C_18  and  C_19
REMARK    4  A    between atoms: C_22  and  C_23
REMARK                            x       y       z     vdW  Elec       q    Type
REMARK                         _______ _______ _______ _____ _____    ______ ____
ROOT
ATOM      1  O   UNL     1       1.704   7.234  20.865  0.00  0.00    +0.000 OA
ATOM      2  C   UNL     1       1.960   7.694  19.755  0.00  0.00    +0.000 C 
ATOM      3  N   UNL     1       2.800   7.047  18.892  0.00  0.00    +0.000 N 
ATOM      4  N   UNL     1       1.412   8.876  19.293  0.00  0.00    +0.000 N 
ATOM      5  C   UNL     1       1.591   9.477  17.972  0.00  0.00    +0.000 C 
ATOM      6  C   UNL     1       2.169  10.882  18.121  0.00  0.00    +0.000 C 
ATOM      7  C   UNL     1       1.294  11.748  19.033  0.00  0.00    +0.000 C 
ATOM      8  C   UNL     1       1.017  11.062  20.384  0.00  0.00    +0.000 C 
ATOM      9  C   UNL     1       0.510   9.628  20.173  0.00  0.00    +0.000 C 
ATOM     10  H   UNL     1       3.324   7.622  18.256  0.00  0.00    +0.000 HD
ENDROOT
BRANCH   8  11
ATOM     11  C   UNL     1       0.056  11.849  21.211  0.00  0.00    +0.000 A 
ATOM     12  N   UNL     1       0.406  12.967  21.857  0.00  0.00    +0.000 NA
ATOM     13  N   UNL     1      -0.754  13.311  22.439  0.00  0.00    +0.000 N 
ATOM     14  C   UNL     1      -1.768  12.451  22.114  0.00  0.00    +0.000 A 
ATOM     15  N   UNL     1      -1.263  11.494  21.358  0.00  0.00    +0.000 NA
ATOM     16  H   UNL     1      -0.783  14.125  23.040  0.00  0.00    +0.000 HD
BRANCH  14  17
ATOM     17  C   UNL     1      -3.154  12.598  22.559  0.00  0.00    +0.000 A 
ATOM     18  C   UNL     1      -3.500  12.559  23.920  0.00  0.00    +0.000 A 
ATOM     19  C   UNL     1      -4.829  12.722  24.321  0.00  0.00    +0.000 A 
ATOM     20  C   UNL     1      -5.827  12.923  23.371  0.00  0.00    +0.000 A 
ATOM     21  C   UNL     1      -5.499  12.964  22.018  0.00  0.00    +0.000 A 
ATOM     22  C   UNL     1      -4.170  12.807  21.616  0.00  0.00    +0.000 A 
ENDBRANCH  14  17
ENDBRANCH   8  11
BRANCH   3  23
ATOM     23  C   UNL     1       3.455   5.822  19.293  0.00  0.00    +0.000 C 
BRANCH  23  24
ATOM     24  C   UNL     1       4.627   5.518  18.398  0.00  0.00    +0.000 A 
ATOM     25  C   UNL     1       5.901   5.282  18.969  0.00  0.00    +0.000 A 
ATOM     26  C   UNL     1       7.012   5.004  18.169  0.00  0.00    +0.000 A 
ATOM     27  C   UNL     1       6.821   4.956  16.806  0.00  0.00    +0.000 A 
ATOM     28  C   UNL     1       5.585   5.167  16.240  0.00  0.00    +0.000 A 
ATOM     29  C   UNL     1       4.470   5.445  17.003  0.00  0.00    +0.000 A 
ATOM     30  O   UNL     1       5.615   5.073  14.883  0.00  0.00    +0.000 OA
ATOM     31  C   UNL     1       7.015   4.805  14.661  0.00  0.00    +0.000 C 
ATOM     32  O   UNL     1       7.783   4.707  15.878  0.00  0.00    +0.000 OA
ENDBRANCH  23  24
ENDBRANCH   3  23
TORSDOF 4
ENDMDL
MODEL 2
REMARK VINA RESULT:      -8.9      3.286     11.045
REMARK  Name = 
REMARK  4 active torsions:
REMARK  status: ('A' for Active; 'I' for Inactive)
REMARK    1  A    between atoms: N_3  and  C_4
REMARK    2  A    between atoms: C_4  and  C_5
REMARK    3  A    between atoms: C_18  and  C_19
REMARK    4  A    between atoms: C_22  and  C_23
REMARK                            x       y       z     vdW  Elec       q    Type
REMARK                         _______ _______ _______ _____ _____    ______ ____
ROOT
ATOM      1  O   UNL     1       2.575   9.232  18.299  0.00  0.00    +0.000 OA
ATOM      2  C   UNL     1       2.008   8.427  19.034  0.00  0.00    +0.000 C 
ATOM      3  N   UNL     1       1.078   8.832  19.952  0.00  0.00    +0.000 N 
ATOM      4  N   UNL     1       2.248   7.067  18.978  0.00  0.00    +0.000 N 
ATOM      5  C   UNL     1       1.584   6.018  19.751  0.00  0.00    +0.000 C 
ATOM      6  C   UNL     1       2.623   5.233  20.547  0.00  0.00    +0.000 C 
ATOM      7  C   UNL     1       3.714   4.667  19.632  0.00  0.00    +0.000 C 
ATOM      8  C   UNL     1       4.336   5.759  18.739  0.00  0.00    +0.000 C 
ATOM      9  C   UNL     1       3.243   6.565  18.023  0.00  0.00    +0.000 C 
ATOM     10  H   UNL     1       0.998   8.279  20.786  0.00  0.00    +0.000 HD
ENDROOT
BRANCH   8  11
ATOM     11  C   UNL     1       5.299   5.179  17.757  0.00  0.00    +0.000 A 
ATOM     12  N   UNL     1       6.344   4.430  18.127  0.00  0.00    +0.000 NA
ATOM     13  N   UNL     1       6.898   4.142  16.939  0.00  0.00    +0.000 N 
ATOM     14  C   UNL     1       6.181   4.666  15.896  0.00  0.00    +0.000 A 
ATOM     15  N   UNL     1       5.176   5.358  16.401  0.00  0.00    +0.000 NA
ATOM     16  H   UNL     1       7.751   3.600  16.909  0.00  0.00    +0.000 HD
BRANCH  14  17
ATOM     17  C   UNL     1       6.514   4.477  14.484  0.00  0.00    +0.000 A 
ATOM     18  C   UNL     1       5.831   3.547  13.684  0.00  0.00    +0.000 A 
ATOM     19  C   UNL     1       6.154   3.399  12.332  0.00  0.00    +0.000 A 
ATOM     20  C   UNL     1       7.162   4.174  11.764  0.00  0.00    +0.000 A 
ATOM     21  C   UNL     1       7.847   5.101  12.546  0.00  0.00    +0.000 A 
ATOM     22  C   UNL     1       7.522   5.254  13.896  0.00  0.00    +0.000 A 
ENDBRANCH  14  17
ENDBRANCH   8  11
BRANCH   3  23
ATOM     23  C   UNL     1       0.782  10.237  20.116  0.00  0.00    +0.000 C 
BRANCH  23  24
ATOM     24  C   UNL     1      -0.464  10.618  19.359  0.00  0.00    +0.000 A 
ATOM     25  C   UNL     1      -1.353  11.571  19.911  0.00  0.00    +0.000 A 
ATOM     26  C   UNL     1      -2.521  11.943  19.240  0.00  0.00    +0.000 A 
ATOM     27  C   UNL     1      -2.770  11.358  18.020  0.00  0.00    +0.000 A 
ATOM     28  C   UNL     1      -1.905  10.443  17.465  0.00  0.00    +0.000 A 
ATOM     29  C   UNL     1      -0.746  10.055  18.103  0.00  0.00    +0.000 A 
ATOM     30  O   UNL     1      -2.337   9.990  16.257  0.00  0.00    +0.000 OA
ATOM     31  C   UNL     1      -3.583  10.705  16.129  0.00  0.00    +0.000 C 
ATOM     32  O   UNL     1      -3.854  11.593  17.232  0.00  0.00    +0.000 OA
ENDBRANCH  23  24
ENDBRANCH   3  23
TORSDOF 4
ENDMDL
MODEL 3
REMARK VINA RESULT:      -8.7      3.581     11.066
REMARK  Name = 
REMARK  4 active torsions:
REMARK  status: ('A' for Active; 'I' for Inactive)
REMARK    1  A    between atoms: N_3  and  C_4
REMARK    2  A    between atoms: C_4  and  C_5
REMARK    3  A    between atoms: C_18  and  C_19
REMARK    4  A    between atoms: C_22  and  C_23
REMARK                            x       y       z     vdW  Elec       q    Type
REMARK                         _______ _______ _______ _____ _____    ______ ____
ROOT
ATOM      1  O   UNL     1      -0.437  11.089  23.235  0.00  0.00    +0.000 OA
ATOM      2  C   UNL     1      -0.611  11.794  22.244  0.00  0.00    +0.000 C 
ATOM      3  N   UNL     1      -1.441  12.880  22.278  0.00  0.00    +0.000 N 
ATOM      4  N   UNL     1       0.024  11.556  21.039  0.00  0.00    +0.000 N 
ATOM      5  C   UNL     1      -0.054  12.365  19.824  0.00  0.00    +0.000 C 
ATOM      6  C   UNL     1      -0.561  11.506  18.668  0.00  0.00    +0.000 C 
ATOM      7  C   UNL     1       0.313  10.263  18.475  0.00  0.00    +0.000 C 
ATOM      8  C   UNL     1       0.483   9.472  19.787  0.00  0.00    +0.000 C 
ATOM      9  C   UNL     1       0.920  10.399  20.929  0.00  0.00    +0.000 C 
ATOM     10  H   UNL     1      -1.899  13.125  21.418  0.00  0.00    +0.000 HD
ENDROOT
BRANCH   8  11
ATOM     11  C   UNL     1       1.443   8.341  19.623  0.00  0.00    +0.000 A 
ATOM     12  N   UNL     1       1.753   7.506  20.622  0.00  0.00    +0.000 NA
ATOM     13  N   UNL     1       2.621   6.680  20.017  0.00  0.00    +0.000 N 
ATOM     14  C   UNL     1       2.788   6.987  18.693  0.00  0.00    +0.000 A 
ATOM     15  N   UNL     1       2.070   8.064  18.433  0.00  0.00    +0.000 NA
ATOM     16  H   UNL     1       3.060   5.944  20.555  0.00  0.00    +0.000 HD
BRANCH  14  17
ATOM     17  C   UNL     1       3.633   6.233  17.768  0.00  0.00    +0.000 A 
ATOM     18  C   UNL     1       4.597   6.867  16.967  0.00  0.00    +0.000 A 
ATOM     19  C   UNL     1       5.407   6.122  16.104  0.00  0.00    +0.000 A 
ATOM     20  C   UNL     1       5.263   4.739  16.029  0.00  0.00    +0.000 A 
ATOM     21  C   UNL     1       4.312   4.097  16.818  0.00  0.00    +0.000 A 
ATOM     22  C   UNL     1       3.505   4.839  17.685  0.00  0.00    +0.000 A 
ENDBRANCH  14  17
ENDBRANCH   8  11
BRANCH   3  23
ATOM     23  C   UNL     1      -2.181  13.193  23.479  0.00  0.00    +0.000 C 
BRANCH  23  24
ATOM     24  C   UNL     1      -3.662  13.016  23.262  0.00  0.00    +0.000 A 
ATOM     25  C   UNL     1      -4.512  12.811  24.375  0.00  0.00    +0.000 A 
ATOM     26  C   UNL     1      -5.889  12.637  24.211  0.00  0.00    +0.000 A 
ATOM     27  C   UNL     1      -6.389  12.682  22.929  0.00  0.00    +0.000 A 
ATOM     28  C   UNL     1      -5.576  12.898  21.841  0.00  0.00    +0.000 A 
ATOM     29  C   UNL     1      -4.213  13.072  21.971  0.00  0.00    +0.000 A 
ATOM     30  O   UNL     1      -6.269  12.908  20.671  0.00  0.00    +0.000 OA
ATOM     31  C   UNL     1      -7.606  12.649  21.146  0.00  0.00    +0.000 C 
ATOM     32  O   UNL     1      -7.694  12.527  22.580  0.00  0.00    +0.000 OA
ENDBRANCH  23  24
ENDBRANCH   3  23
TORSDOF 4
ENDMDL
MODEL 4
REMARK VINA RESULT:      -8.6      3.189     11.315
REMARK  Name = 
REMARK  4 active torsions:
REMARK  status: ('A' for Active; 'I' for Inactive)
REMARK    1  A    between atoms: N_3  and  C_4
REMARK    2  A    between atoms: C_4  and  C_5
REMARK    3  A    between atoms: C_18  and  C_19
REMARK    4  A    between atoms: C_22  and  C_23
REMARK                            x       y       z     vdW  Elec       q    Type
REMARK                         _______ _______ _______ _____ _____    ______ ____
ROOT
ATOM      1  O   UNL     1       2.538   9.310  18.026  0.00  0.00    +0.000 OA
ATOM      2  C   UNL     1       2.011   8.552  18.836  0.00  0.00    +0.000 C 
ATOM      3  N   UNL     1       1.105   9.010  19.754  0.00  0.00    +0.000 N 
ATOM      4  N   UNL     1       2.274   7.196  18.871  0.00  0.00    +0.000 N 
ATOM      5  C   UNL     1       1.656   6.197  19.741  0.00  0.00    +0.000 C 
ATOM      6  C   UNL     1       2.734   5.488  20.556  0.00  0.00    +0.000 C 
ATOM      7  C   UNL     1       3.804   4.875  19.647  0.00  0.00    +0.000 C 
ATOM      8  C   UNL     1       4.376   5.907  18.656  0.00  0.00    +0.000 C 
ATOM      9  C   UNL     1       3.246   6.641  17.921  0.00  0.00    +0.000 C 
ATOM     10  H   UNL     1       1.063   8.518  20.629  0.00  0.00    +0.000 HD
ENDROOT
BRANCH   8  11
ATOM     11  C   UNL     1       5.317   5.272  17.687  0.00  0.00    +0.000 A 
ATOM     12  N   UNL     1       6.312   4.465  18.069  0.00  0.00    +0.000 NA
ATOM     13  N   UNL     1       6.863   4.145  16.888  0.00  0.00    +0.000 N 
ATOM     14  C   UNL     1       6.191   4.709  15.837  0.00  0.00    +0.000 A 
ATOM     15  N   UNL     1       5.222   5.458  16.329  0.00  0.00    +0.000 NA
ATOM     16  H   UNL     1       7.684   3.554  16.869  0.00  0.00    +0.000 HD
BRANCH  14  17
ATOM     17  C   UNL     1       6.530   4.500  14.429  0.00  0.00    +0.000 A 
ATOM     18  C   UNL     1       5.851   3.559  13.639  0.00  0.00    +0.000 A 
ATOM     19  C   UNL     1       6.181   3.392  12.290  0.00  0.00    +0.000 A 
ATOM     20  C   UNL     1       7.191   4.159  11.717  0.00  0.00    +0.000 A 
ATOM     21  C   UNL     1       7.872   5.097  12.488  0.00  0.00    +0.000 A 
ATOM     22  C   UNL     1       7.541   5.269  13.835  0.00  0.00    +0.000 A 
ENDBRANCH  14  17
ENDBRANCH   8  11
BRANCH   3  23
ATOM     23  C   UNL     1       0.789  10.418  19.825  0.00  0.00    +0.000 C 
BRANCH  23  24
ATOM     24  C   UNL     1      -0.576  10.694  19.250  0.00  0.00    +0.000 A 
ATOM     25  C   UNL     1      -0.948  10.104  18.018  0.00  0.00    +0.000 A 
ATOM     26  C   UNL     1      -2.202  10.343  17.451  0.00  0.00    +0.000 A 
ATOM     27  C   UNL     1      -3.068  11.163  18.139  0.00  0.00    +0.000 A 
ATOM     28  C   UNL     1      -2.725  11.729  19.345  0.00  0.00    +0.000 A 
ATOM     29  C   UNL     1      -1.493  11.513  19.929  0.00  0.00    +0.000 A 
ATOM     30  O   UNL     1      -3.722  12.501  19.857  0.00  0.00    +0.000 OA
ATOM     31  C   UNL     1      -4.718  12.377  18.821  0.00  0.00    +0.000 C 
ATOM     32  O   UNL     1      -4.320  11.511  17.739  0.00  0.00    +0.000 OA
ENDBRANCH  23  24
ENDBRANCH   3  23
TORSDOF 4
ENDMDL
MODEL 5
REMARK VINA RESULT:      -8.5      3.458     11.365
REMARK  Name = 
REMARK  4 active torsions:
REMARK  status: ('A' for Active; 'I' for Inactive)
REMARK    1  A    between atoms: N_3  and  C_4
REMARK    2  A    between atoms: C_4  and  C_5
REMARK    3  A    between atoms: C_18  and  C_19
REMARK    4  A    between atoms: C_22  and  C_23
REMARK                            x       y       z     vdW  Elec       q    Type
REMARK                         _______ _______ _______ _____ _____    ______ ____
ROOT
ATOM      1  O   UNL     1       2.248   9.782  17.489  0.00  0.00    +0.000 OA
ATOM      2  C   UNL     1       1.869   8.962  18.321  0.00  0.00    +0.000 C 
ATOM      3  N   UNL     1       0.944   9.289  19.274  0.00  0.00    +0.000 N 
ATOM      4  N   UNL     1       2.329   7.659  18.348  0.00  0.00    +0.000 N 
ATOM      5  C   UNL     1       1.898   6.586  19.244  0.00  0.00    +0.000 C 
ATOM      6  C   UNL     1       3.100   6.049  20.016  0.00  0.00    +0.000 C 
ATOM      7  C   UNL     1       4.211   5.591  19.065  0.00  0.00    +0.000 C 
ATOM      8  C   UNL     1       4.586   6.688  18.050  0.00  0.00    +0.000 C 
ATOM      9  C   UNL     1       3.332   7.244  17.360  0.00  0.00    +0.000 C 
ATOM     10  H   UNL     1       1.009   8.803  20.151  0.00  0.00    +0.000 HD
ENDROOT
BRANCH   8  11
ATOM     11  C   UNL     1       5.569   6.189  17.044  0.00  0.00    +0.000 A 
ATOM     12  N   UNL     1       6.887   6.163  17.273  0.00  0.00    +0.000 NA
ATOM     13  N   UNL     1       7.346   5.647  16.122  0.00  0.00    +0.000 N 
ATOM     14  C   UNL     1       6.332   5.337  15.256  0.00  0.00    +0.000 A 
ATOM     15  N   UNL     1       5.194   5.706  15.814  0.00  0.00    +0.000 NA
ATOM     16  H   UNL     1       8.344   5.540  15.992  0.00  0.00    +0.000 HD
BRANCH  14  17
ATOM     17  C   UNL     1       6.523   4.717  13.945  0.00  0.00    +0.000 A 
ATOM     18  C   UNL     1       7.560   5.113  13.085  0.00  0.00    +0.000 A 
ATOM     19  C   UNL     1       7.733   4.491  11.845  0.00  0.00    +0.000 A 
ATOM     20  C   UNL     1       6.874   3.470  11.448  0.00  0.00    +0.000 A 
ATOM     21  C   UNL     1       5.841   3.066  12.291  0.00  0.00    +0.000 A 
ATOM     22  C   UNL     1       5.670   3.683  13.533  0.00  0.00    +0.000 A 
ENDBRANCH  14  17
ENDBRANCH   8  11
BRANCH   3  23
ATOM     23  C   UNL     1       0.429  10.637  19.356  0.00  0.00    +0.000 C 
BRANCH  23  24
ATOM     24  C   UNL     1      -0.946  10.727  18.745  0.00  0.00    +0.000 A 
ATOM     25  C   UNL     1      -1.250   9.963  17.593  0.00  0.00    +0.000 A 
ATOM     26  C   UNL     1      -2.512  10.027  16.996  0.00  0.00    +0.000 A 
ATOM     27  C   UNL     1      -3.451  10.850  17.575  0.00  0.00    +0.000 A 
ATOM     28  C   UNL     1      -3.173  11.584  18.704  0.00  0.00    +0.000 A 
ATOM     29  C   UNL     1      -1.936  11.544  19.316  0.00  0.00    +0.000 A 
ATOM     30  O   UNL     1      -4.237  12.328  19.113  0.00  0.00    +0.000 OA
ATOM     31  C   UNL     1      -5.205  11.996  18.096  0.00  0.00    +0.000 C 
ATOM     32  O   UNL     1      -4.722  11.041  17.130  0.00  0.00    +0.000 OA
ENDBRANCH  23  24
ENDBRANCH   3  23
TORSDOF 4
ENDMDL
MODEL 6
REMARK VINA RESULT:      -8.5      2.826     11.466
REMARK  Name = 
REMARK  4 active torsions:
REMARK  status: ('A' for Active; 'I' for Inactive)
REMARK    1  A    between atoms: N_3  and  C_4
REMARK    2  A    between atoms: C_4  and  C_5
REMARK    3  A    between atoms: C_18  and  C_19
REMARK    4  A    between atoms: C_22  and  C_23
REMARK                            x       y       z     vdW  Elec       q    Type
REMARK                         _______ _______ _______ _____ _____    ______ ____
ROOT
ATOM      1  O   UNL     1       2.484   9.387  17.879  0.00  0.00    +0.000 OA
ATOM      2  C   UNL     1       1.966   8.672  18.733  0.00  0.00    +0.000 C 
ATOM      3  N   UNL     1       1.091   9.181  19.653  0.00  0.00    +0.000 N 
ATOM      4  N   UNL     1       2.209   7.314  18.818  0.00  0.00    +0.000 N 
ATOM      5  C   UNL     1       1.598   6.362  19.743  0.00  0.00    +0.000 C 
ATOM      6  C   UNL     1       2.686   5.670  20.560  0.00  0.00    +0.000 C 
ATOM      7  C   UNL     1       3.723   5.002  19.651  0.00  0.00    +0.000 C 
ATOM      8  C   UNL     1       4.285   5.984  18.604  0.00  0.00    +0.000 C 
ATOM      9  C   UNL     1       3.148   6.705  17.868  0.00  0.00    +0.000 C 
ATOM     10  H   UNL     1       1.063   8.726  20.548  0.00  0.00    +0.000 HD
ENDROOT
BRANCH   8  11
ATOM     11  C   UNL     1       5.191   5.294  17.638  0.00  0.00    +0.000 A 
ATOM     12  N   UNL     1       6.118   4.410  18.023  0.00  0.00    +0.000 NA
ATOM     13  N   UNL     1       6.662   4.067  16.845  0.00  0.00    +0.000 N 
ATOM     14  C   UNL     1       6.049   4.693  15.793  0.00  0.00    +0.000 A 
ATOM     15  N   UNL     1       5.130   5.504  16.282  0.00  0.00    +0.000 NA
ATOM     16  H   UNL     1       7.437   3.417  16.829  0.00  0.00    +0.000 HD
BRANCH  14  17
ATOM     17  C   UNL     1       6.393   4.479  14.387  0.00  0.00    +0.000 A 
ATOM     18  C   UNL     1       7.464   5.152  13.779  0.00  0.00    +0.000 A 
ATOM     19  C   UNL     1       7.785   4.916  12.439  0.00  0.00    +0.000 A 
ATOM     20  C   UNL     1       7.039   4.009  11.690  0.00  0.00    +0.000 A 
ATOM     21  C   UNL     1       5.974   3.333  12.281  0.00  0.00    +0.000 A 
ATOM     22  C   UNL     1       5.655   3.564  13.622  0.00  0.00    +0.000 A 
ENDBRANCH  14  17
ENDBRANCH   8  11
BRANCH   3  23
ATOM     23  C   UNL     1       0.798  10.596  19.674  0.00  0.00    +0.000 C 
BRANCH  23  24
ATOM     24  C   UNL     1      -0.164  10.932  20.784  0.00  0.00    +0.000 A 
ATOM     25  C   UNL     1      -0.035  10.288  22.039  0.00  0.00    +0.000 A 
ATOM     26  C   UNL     1      -0.912  10.569  23.089  0.00  0.00    +0.000 A 
ATOM     27  C   UNL     1      -1.899  11.503  22.864  0.00  0.00    +0.000 A 
ATOM     28  C   UNL     1      -2.023  12.148  21.655  0.00  0.00    +0.000 A 
ATOM     29  C   UNL     1      -1.174  11.891  20.599  0.00  0.00    +0.000 A 
ATOM     30  O   UNL     1      -3.058  13.031  21.645  0.00  0.00    +0.000 OA
ATOM     31  C   UNL     1      -3.585  12.848  22.975  0.00  0.00    +0.000 C 
ATOM     32  O   UNL     1      -2.840  11.896  23.763  0.00  0.00    +0.000 OA
ENDBRANCH  23  24
ENDBRANCH   3  23
TORSDOF 4
ENDMDL
MODEL 7
REMARK VINA RESULT:      -8.4      3.023      4.498
REMARK  Name = 
REMARK  4 active torsions:
REMARK  status: ('A' for Active; 'I' for Inactive)
REMARK    1  A    between atoms: N_3  and  C_4
REMARK    2  A    between atoms: C_4  and  C_5
REMARK    3  A    between atoms: C_18  and  C_19
REMARK    4  A    between atoms: C_22  and  C_23
REMARK                            x       y       z     vdW  Elec       q    Type
REMARK                         _______ _______ _______ _____ _____    ______ ____
ROOT
ATOM      1  O   UNL     1       2.072   7.397  17.735  0.00  0.00    +0.000 OA
ATOM      2  C   UNL     1       1.892   7.270  18.944  0.00  0.00    +0.000 C 
ATOM      3  N   UNL     1       2.048   6.060  19.564  0.00  0.00    +0.000 N 
ATOM      4  N   UNL     1       1.540   8.327  19.762  0.00  0.00    +0.000 N 
ATOM      5  C   UNL     1       1.370   8.304  21.214  0.00  0.00    +0.000 C 
ATOM      6  C   UNL     1      -0.041   8.762  21.572  0.00  0.00    +0.000 C 
ATOM      7  C   UNL     1      -0.344  10.143  20.980  0.00  0.00    +0.000 C 
ATOM      8  C   UNL     1      -0.057  10.194  19.467  0.00  0.00    +0.000 C 
ATOM      9  C   UNL     1       1.345   9.651  19.159  0.00  0.00    +0.000 C 
ATOM     10  H   UNL     1       1.479   5.893  20.375  0.00  0.00    +0.000 HD
ENDROOT
BRANCH   8  11
ATOM     11  C   UNL     1      -0.224  11.575  18.925  0.00  0.00    +0.000 A 
ATOM     12  N   UNL     1      -1.175  11.893  18.041  0.00  0.00    +0.000 NA
ATOM     13  N   UNL     1      -0.941  13.203  17.860  0.00  0.00    +0.000 N 
ATOM     14  C   UNL     1       0.087  13.655  18.642  0.00  0.00    +0.000 A 
ATOM     15  N   UNL     1       0.578  12.624  19.304  0.00  0.00    +0.000 NA
ATOM     16  H   UNL     1      -1.504  13.718  17.196  0.00  0.00    +0.000 HD
BRANCH  14  17
ATOM     17  C   UNL     1       0.538  15.046  18.696  0.00  0.00    +0.000 A 
ATOM     18  C   UNL     1      -0.367  16.118  18.624  0.00  0.00    +0.000 A 
ATOM     19  C   UNL     1       0.087  17.438  18.697  0.00  0.00    +0.000 A 
ATOM     20  C   UNL     1       1.446  17.704  18.840  0.00  0.00    +0.000 A 
ATOM     21  C   UNL     1       2.355  16.650  18.913  0.00  0.00    +0.000 A 
ATOM     22  C   UNL     1       1.903  15.330  18.845  0.00  0.00    +0.000 A 
ENDBRANCH  14  17
ENDBRANCH   8  11
BRANCH   3  23
ATOM     23  C   UNL     1       2.378   4.884  18.793  0.00  0.00    +0.000 C 
BRANCH  23  24
ATOM     24  C   UNL     1       3.851   4.839  18.479  0.00  0.00    +0.000 A 
ATOM     25  C   UNL     1       4.280   4.417  17.198  0.00  0.00    +0.000 A 
ATOM     26  C   UNL     1       5.638   4.358  16.874  0.00  0.00    +0.000 A 
ATOM     27  C   UNL     1       6.542   4.734  17.842  0.00  0.00    +0.000 A 
ATOM     28  C   UNL     1       6.137   5.163  19.085  0.00  0.00    +0.000 A 
ATOM     29  C   UNL     1       4.804   5.231  19.434  0.00  0.00    +0.000 A 
ATOM     30  O   UNL     1       7.186   5.489  19.887  0.00  0.00    +0.000 OA
ATOM     31  C   UNL     1       8.296   5.192  19.016  0.00  0.00    +0.000 C 
ATOM     32  O   UNL     1       7.896   4.734  17.708  0.00  0.00    +0.000 OA
ENDBRANCH  23  24
ENDBRANCH   3  23
TORSDOF 4
ENDMDL
MODEL 8
REMARK VINA RESULT:      -8.4      2.819     11.500
REMARK  Name = 
REMARK  4 active torsions:
REMARK  status: ('A' for Active; 'I' for Inactive)
REMARK    1  A    between atoms: N_3  and  C_4
REMARK    2  A    between atoms: C_4  and  C_5
REMARK    3  A    between atoms: C_18  and  C_19
REMARK    4  A    between atoms: C_22  and  C_23
REMARK                            x       y       z     vdW  Elec       q    Type
REMARK                         _______ _______ _______ _____ _____    ______ ____
ROOT
ATOM      1  O   UNL     1       2.258   9.080  17.950  0.00  0.00    +0.000 OA
ATOM      2  C   UNL     1       1.836   8.440  18.911  0.00  0.00    +0.000 C 
ATOM      3  N   UNL     1       1.141   9.047  19.920  0.00  0.00    +0.000 N 
ATOM      4  N   UNL     1       2.014   7.076  19.035  0.00  0.00    +0.000 N 
ATOM      5  C   UNL     1       1.498   6.209  20.094  0.00  0.00    +0.000 C 
ATOM      6  C   UNL     1       2.658   5.489  20.778  0.00  0.00    +0.000 C 
ATOM      7  C   UNL     1       3.506   4.714  19.764  0.00  0.00    +0.000 C 
ATOM      8  C   UNL     1       3.956   5.607  18.591  0.00  0.00    +0.000 C 
ATOM      9  C   UNL     1       2.762   6.363  17.992  0.00  0.00    +0.000 C 
ATOM     10  H   UNL     1       1.225   8.638  20.834  0.00  0.00    +0.000 HD
ENDROOT
BRANCH   8  11
ATOM     11  C   UNL     1       4.665   4.816  17.542  0.00  0.00    +0.000 A 
ATOM     12  N   UNL     1       4.915   3.508  17.670  0.00  0.00    +0.000 NA
ATOM     13  N   UNL     1       5.544   3.245  16.514  0.00  0.00    +0.000 N 
ATOM     14  C   UNL     1       5.627   4.349  15.709  0.00  0.00    +0.000 A 
ATOM     15  N   UNL     1       5.100   5.368  16.362  0.00  0.00    +0.000 NA
ATOM     16  H   UNL     1       5.892   2.310  16.342  0.00  0.00    +0.000 HD
BRANCH  14  17
ATOM     17  C   UNL     1       6.215   4.356  14.369  0.00  0.00    +0.000 A 
ATOM     18  C   UNL     1       5.725   3.530  13.345  0.00  0.00    +0.000 A 
ATOM     19  C   UNL     1       6.292   3.569  12.067  0.00  0.00    +0.000 A 
ATOM     20  C   UNL     1       7.353   4.430  11.798  0.00  0.00    +0.000 A 
ATOM     21  C   UNL     1       7.848   5.255  12.805  0.00  0.00    +0.000 A 
ATOM     22  C   UNL     1       7.280   5.221  14.081  0.00  0.00    +0.000 A 
ENDBRANCH  14  17
ENDBRANCH   8  11
BRANCH   3  23
ATOM     23  C   UNL     1       0.934  10.478  19.904  0.00  0.00    +0.000 C 
BRANCH  23  24
ATOM     24  C   UNL     1      -0.076  10.888  20.944  0.00  0.00    +0.000 A 
ATOM     25  C   UNL     1      -0.113  10.213  22.188  0.00  0.00    +0.000 A 
ATOM     26  C   UNL     1      -1.040  10.563  23.173  0.00  0.00    +0.000 A 
ATOM     27  C   UNL     1      -1.909  11.593  22.895  0.00  0.00    +0.000 A 
ATOM     28  C   UNL     1      -1.873  12.268  21.696  0.00  0.00    +0.000 A 
ATOM     29  C   UNL     1      -0.970  11.945  20.704  0.00  0.00    +0.000 A 
ATOM     30  O   UNL     1      -2.812  13.249  21.626  0.00  0.00    +0.000 OA
ATOM     31  C   UNL     1      -3.460  13.097  22.907  0.00  0.00    +0.000 C 
ATOM     32  O   UNL     1      -2.877  12.063  23.727  0.00  0.00    +0.000 OA
ENDBRANCH  23  24
ENDBRANCH   3  23
TORSDOF 4
ENDMDL
MODEL 9
REMARK VINA RESULT:      -8.4      2.916      4.216
REMARK  Name = 
REMARK  4 active torsions:
REMARK  status: ('A' for Active; 'I' for Inactive)
REMARK    1  A    between atoms: N_3  and  C_4
REMARK    2  A    between atoms: C_4  and  C_5
REMARK    3  A    between atoms: C_18  and  C_19
REMARK    4  A    between atoms: C_22  and  C_23
REMARK                            x       y       z     vdW  Elec       q    Type
REMARK                         _______ _______ _______ _____ _____    ______ ____
ROOT
ATOM      1  O   UNL     1       2.122   7.225  17.950  0.00  0.00    +0.000 OA
ATOM      2  C   UNL     1       1.977   7.158  19.169  0.00  0.00    +0.000 C 
ATOM      3  N   UNL     1       2.162   5.983  19.844  0.00  0.00    +0.000 N 
ATOM      4  N   UNL     1       1.639   8.252  19.942  0.00  0.00    +0.000 N 
ATOM      5  C   UNL     1       1.510   8.302  21.397  0.00  0.00    +0.000 C 
ATOM      6  C   UNL     1       0.105   8.766  21.773  0.00  0.00    +0.000 C 
ATOM      7  C   UNL     1      -0.227  10.113  21.121  0.00  0.00    +0.000 C 
ATOM      8  C   UNL     1       0.016  10.089  19.599  0.00  0.00    +0.000 C 
ATOM      9  C   UNL     1       1.414   9.543  19.279  0.00  0.00    +0.000 C 
ATOM     10  H   UNL     1       1.619   5.853  20.679  0.00  0.00    +0.000 HD
ENDROOT
BRANCH   8  11
ATOM     11  C   UNL     1      -0.179  11.439  18.993  0.00  0.00    +0.000 A 
ATOM     12  N   UNL     1      -1.131  11.694  18.088  0.00  0.00    +0.000 NA
ATOM     13  N   UNL     1      -0.926  12.999  17.849  0.00  0.00    +0.000 N 
ATOM     14  C   UNL     1       0.084  13.512  18.618  0.00  0.00    +0.000 A 
ATOM     15  N   UNL     1       0.594  12.524  19.330  0.00  0.00    +0.000 NA
ATOM     16  H   UNL     1      -1.496  13.470  17.158  0.00  0.00    +0.000 HD
BRANCH  14  17
ATOM     17  C   UNL     1       0.500  14.914  18.611  0.00  0.00    +0.000 A 
ATOM     18  C   UNL     1      -0.435  15.961  18.615  0.00  0.00    +0.000 A 
ATOM     19  C   UNL     1      -0.012  17.294  18.628  0.00  0.00    +0.000 A 
ATOM     20  C   UNL     1       1.347  17.596  18.636  0.00  0.00    +0.000 A 
ATOM     21  C   UNL     1       2.286  16.567  18.633  0.00  0.00    +0.000 A 
ATOM     22  C   UNL     1       1.865  15.235  18.625  0.00  0.00    +0.000 A 
ENDBRANCH  14  17
ENDBRANCH   8  11
BRANCH   3  23
ATOM     23  C   UNL     1       2.481   4.772  19.124  0.00  0.00    +0.000 C 
BRANCH  23  24
ATOM     24  C   UNL     1       3.865   4.844  18.532  0.00  0.00    +0.000 A 
ATOM     25  C   UNL     1       4.960   5.201  19.356  0.00  0.00    +0.000 A 
ATOM     26  C   UNL     1       6.256   5.284  18.840  0.00  0.00    +0.000 A 
ATOM     27  C   UNL     1       6.431   4.996  17.505  0.00  0.00    +0.000 A 
ATOM     28  C   UNL     1       5.378   4.632  16.698  0.00  0.00    +0.000 A 
ATOM     29  C   UNL     1       4.087   4.542  17.178  0.00  0.00    +0.000 A 
ATOM     30  O   UNL     1       5.767   4.389  15.417  0.00  0.00    +0.000 OA
ATOM     31  C   UNL     1       7.180   4.668  15.506  0.00  0.00    +0.000 C 
ATOM     32  O   UNL     1       7.613   5.031  16.833  0.00  0.00    +0.000 OA
ENDBRANCH  23  24
ENDBRANCH   3  23
TORSDOF 4
ENDMDL
