MODEL 1
REMARK VINA RESULT:      -8.7      0.000      0.000
REMARK  Name = 
REMARK  6 active torsions:
REMARK  status: ('A' for Active; 'I' for Inactive)
REMARK    1  A    between atoms: C_1  and  C_2
REMARK    2  A    between atoms: C_4  and  C_5
REMARK    3  A    between atoms: C_9  and  N_10
REMARK    4  A    between atoms: C_11  and  C_13
REMARK    5  A    between atoms: C_13  and  C_14
REMARK    6  A    between atoms: C_19  and  C_20
REMARK                            x       y       z     vdW  Elec       q    Type
REMARK                         _______ _______ _______ _____ _____    ______ ____
ROOT
ATOM      1  N   UNL     1       3.126   6.422  19.093  0.00  0.00    +0.000 N 
ATOM      2  C   UNL     1       2.845   5.273  18.388  0.00  0.00    +0.000 C 
ATOM      3  O   UNL     1       1.830   5.073  17.722  0.00  0.00    +0.000 OA
ATOM      4  H   UNL     1       3.917   6.406  19.723  0.00  0.00    +0.000 HD
ENDROOT
BRANCH   1   9
ATOM      5  C   UNL     1       0.862   9.159  20.200  0.00  0.00    +0.000 A 
ATOM      6  C   UNL     1       0.819   9.963  19.051  0.00  0.00    +0.000 A 
ATOM      7  C   UNL     1       1.519   9.594  17.913  0.00  0.00    +0.000 A 
ATOM      8  C   UNL     1       2.269   8.420  17.916  0.00  0.00    +0.000 A 
ATOM      9  C   UNL     1       2.335   7.598  19.047  0.00  0.00    +0.000 A 
ATOM     10  C   UNL     1       1.622   7.974  20.189  0.00  0.00    +0.000 A 
BRANCH   5  14
ATOM     11  C   UNL     1      -1.812  11.890  23.302  0.00  0.00    +0.000 C 
ATOM     12  C   UNL     1      -0.993  10.830  22.677  0.00  0.00    +0.000 A 
ATOM     13  N   UNL     1      -0.568  10.763  21.438  0.00  0.00    +0.000 NA
ATOM     14  C   UNL     1       0.147   9.585  21.393  0.00  0.00    +0.000 A 
ATOM     15  N   UNL     1       0.161   8.916  22.561  0.00  0.00    +0.000 NA
ATOM     16  N   UNL     1      -0.545   9.736  23.355  0.00  0.00    +0.000 N 
ATOM     17  H   UNL     1      -0.669   9.493  24.328  0.00  0.00    +0.000 HD
ENDBRANCH   5  14
ENDBRANCH   1   9
BRANCH   2  18
ATOM     18  C   UNL     1       3.839   4.152  18.475  0.00  0.00    +0.000 C 
ATOM     19  C   UNL     1       3.170   2.762  18.596  0.00  0.00    +0.000 C 
ATOM     20  C   UNL     1       3.955   3.289  19.745  0.00  0.00    +0.000 C 
BRANCH  18  21
ATOM     21  C   UNL     1       5.074   4.211  17.559  0.00  0.00    +0.000 A 
ATOM     22  C   UNL     1       4.991   3.658  16.264  0.00  0.00    +0.000 A 
ATOM     23  C   UNL     1       5.937   3.946  15.282  0.00  0.00    +0.000 A 
ATOM     24  C   UNL     1       7.021   4.757  15.585  0.00  0.00    +0.000 A 
ATOM     25  C   UNL     1       7.206   5.195  16.894  0.00  0.00    +0.000 A 
ATOM     26  C   UNL     1       6.263   4.907  17.894  0.00  0.00    +0.000 A 
ATOM     27  C   UNL     1       6.571   5.344  19.303  0.00  0.00    +0.000 C 
ENDBRANCH  18  21
ENDBRANCH   2  18
TORSDOF 4
ENDMDL
MODEL 2
REMARK VINA RESULT:      -8.2      2.417      4.646
REMARK  Name = 
REMARK  6 active torsions:
REMARK  status: ('A' for Active; 'I' for Inactive)
REMARK    1  A    between atoms: C_1  and  C_2
REMARK    2  A    between atoms: C_4  and  C_5
REMARK    3  A    between atoms: C_9  and  N_10
REMARK    4  A    between atoms: C_11  and  C_13
REMARK    5  A    between atoms: C_13  and  C_14
REMARK    6  A    between atoms: C_19  and  C_20
REMARK                            x       y       z     vdW  Elec       q    Type
REMARK                         _______ _______ _______ _____ _____    ______ ____
ROOT
ATOM      1  N   UNL     1       1.934   7.200  20.308  0.00  0.00    +0.000 N 
ATOM      2  C   UNL     1       2.705   7.012  19.183  0.00  0.00    +0.000 C 
ATOM      3  O   UNL     1       2.831   7.815  18.260  0.00  0.00    +0.000 OA
ATOM      4  H   UNL     1       1.791   6.406  20.919  0.00  0.00    +0.000 HD
ENDROOT
BRANCH   1   9
ATOM      5  C   UNL     1      -0.185  10.233  19.911  0.00  0.00    +0.000 A 
ATOM      6  C   UNL     1      -0.146  10.768  21.207  0.00  0.00    +0.000 A 
ATOM      7  C   UNL     1       0.590  10.141  22.201  0.00  0.00    +0.000 A 
ATOM      8  C   UNL     1       1.290   8.972  21.906  0.00  0.00    +0.000 A 
ATOM      9  C   UNL     1       1.268   8.412  20.624  0.00  0.00    +0.000 A 
ATOM     10  C   UNL     1       0.528   9.053  19.626  0.00  0.00    +0.000 A 
BRANCH   5  14
ATOM     11  C   UNL     1      -2.867  10.965  15.850  0.00  0.00    +0.000 C 
ATOM     12  C   UNL     1      -2.121  11.128  17.115  0.00  0.00    +0.000 A 
ATOM     13  N   UNL     1      -1.542  10.198  17.836  0.00  0.00    +0.000 NA
ATOM     14  C   UNL     1      -0.993  10.889  18.895  0.00  0.00    +0.000 A 
ATOM     15  N   UNL     1      -1.230  12.213  18.857  0.00  0.00    +0.000 NA
ATOM     16  N   UNL     1      -1.922  12.336  17.714  0.00  0.00    +0.000 N 
ATOM     17  H   UNL     1      -2.210  13.255  17.409  0.00  0.00    +0.000 HD
ENDBRANCH   5  14
ENDBRANCH   1   9
BRANCH   2  18
ATOM     18  C   UNL     1       3.418   5.697  19.049  0.00  0.00    +0.000 C 
ATOM     19  C   UNL     1       4.935   5.804  19.332  0.00  0.00    +0.000 C 
ATOM     20  C   UNL     1       4.478   5.476  17.955  0.00  0.00    +0.000 C 
BRANCH  18  21
ATOM     21  C   UNL     1       2.728   4.443  19.613  0.00  0.00    +0.000 A 
ATOM     22  C   UNL     1       3.087   3.986  20.899  0.00  0.00    +0.000 A 
ATOM     23  C   UNL     1       2.303   3.069  21.596  0.00  0.00    +0.000 A 
ATOM     24  C   UNL     1       1.163   2.545  21.004  0.00  0.00    +0.000 A 
ATOM     25  C   UNL     1       0.867   2.866  19.682  0.00  0.00    +0.000 A 
ATOM     26  C   UNL     1       1.652   3.785  18.966  0.00  0.00    +0.000 A 
ATOM     27  C   UNL     1       1.319   4.020  17.515  0.00  0.00    +0.000 C 
ENDBRANCH  18  21
ENDBRANCH   2  18
TORSDOF 4
ENDMDL
MODEL 3
REMARK VINA RESULT:      -8.2      2.373      3.625
REMARK  Name = 
REMARK  6 active torsions:
REMARK  status: ('A' for Active; 'I' for Inactive)
REMARK    1  A    between atoms: C_1  and  C_2
REMARK    2  A    between atoms: C_4  and  C_5
REMARK    3  A    between atoms: C_9  and  N_10
REMARK    4  A    between atoms: C_11  and  C_13
REMARK    5  A    between atoms: C_13  and  C_14
REMARK    6  A    between atoms: C_19  and  C_20
REMARK                            x       y       z     vdW  Elec       q    Type
REMARK                         _______ _______ _______ _____ _____    ______ ____
ROOT
ATOM      1  N   UNL     1       2.599   7.338  19.086  0.00  0.00    +0.000 N 
ATOM      2  C   UNL     1       2.609   5.997  19.394  0.00  0.00    +0.000 C 
ATOM      3  O   UNL     1       1.885   5.448  20.224  0.00  0.00    +0.000 OA
ATOM      4  H   UNL     1       3.345   7.693  18.502  0.00  0.00    +0.000 HD
ENDROOT
BRANCH   1   9
ATOM      5  C   UNL     1      -0.112   9.886  19.166  0.00  0.00    +0.000 A 
ATOM      6  C   UNL     1      -0.291  10.054  20.547  0.00  0.00    +0.000 A 
ATOM      7  C   UNL     1       0.490   9.344  21.446  0.00  0.00    +0.000 A 
ATOM      8  C   UNL     1       1.455   8.458  20.970  0.00  0.00    +0.000 A 
ATOM      9  C   UNL     1       1.656   8.266  19.598  0.00  0.00    +0.000 A 
ATOM     10  C   UNL     1       0.868   8.989  18.699  0.00  0.00    +0.000 A 
BRANCH   5  14
ATOM     11  C   UNL     1      -3.139  10.874  15.413  0.00  0.00    +0.000 C 
ATOM     12  C   UNL     1      -2.254  10.963  16.594  0.00  0.00    +0.000 A 
ATOM     13  N   UNL     1      -1.677   9.982  17.245  0.00  0.00    +0.000 NA
ATOM     14  C   UNL     1      -0.968  10.615  18.244  0.00  0.00    +0.000 A 
ATOM     15  N   UNL     1      -1.104  11.954  18.238  0.00  0.00    +0.000 NA
ATOM     16  N   UNL     1      -1.901  12.144  17.175  0.00  0.00    +0.000 N 
ATOM     17  H   UNL     1      -2.147  13.087  16.906  0.00  0.00    +0.000 HD
ENDBRANCH   5  14
ENDBRANCH   1   9
BRANCH   2  18
ATOM     18  C   UNL     1       3.619   5.136  18.691  0.00  0.00    +0.000 C 
ATOM     19  C   UNL     1       3.035   4.409  17.457  0.00  0.00    +0.000 C 
ATOM     20  C   UNL     1       3.458   3.606  18.636  0.00  0.00    +0.000 C 
BRANCH  18  21
ATOM     21  C   UNL     1       5.042   5.693  18.517  0.00  0.00    +0.000 A 
ATOM     22  C   UNL     1       6.017   5.393  19.492  0.00  0.00    +0.000 A 
ATOM     23  C   UNL     1       7.376   5.587  19.255  0.00  0.00    +0.000 A 
ATOM     24  C   UNL     1       7.794   6.134  18.050  0.00  0.00    +0.000 A 
ATOM     25  C   UNL     1       6.846   6.575  17.130  0.00  0.00    +0.000 A 
ATOM     26  C   UNL     1       5.473   6.391  17.361  0.00  0.00    +0.000 A 
ATOM     27  C   UNL     1       4.505   6.967  16.360  0.00  0.00    +0.000 C 
ENDBRANCH  18  21
ENDBRANCH   2  18
TORSDOF 4
ENDMDL
MODEL 4
REMARK VINA RESULT:      -8.0      0.577      1.528
REMARK  Name = 
REMARK  6 active torsions:
REMARK  status: ('A' for Active; 'I' for Inactive)
REMARK    1  A    between atoms: C_1  and  C_2
REMARK    2  A    between atoms: C_4  and  C_5
REMARK    3  A    between atoms: C_9  and  N_10
REMARK    4  A    between atoms: C_11  and  C_13
REMARK    5  A    between atoms: C_13  and  C_14
REMARK    6  A    between atoms: C_19  and  C_20
REMARK                            x       y       z     vdW  Elec       q    Type
REMARK                         _______ _______ _______ _____ _____    ______ ____
ROOT
ATOM      1  N   UNL     1       2.983   6.643  19.295  0.00  0.00    +0.000 N 
ATOM      2  C   UNL     1       2.777   5.452  18.636  0.00  0.00    +0.000 C 
ATOM      3  O   UNL     1       1.786   5.170  17.962  0.00  0.00    +0.000 OA
ATOM      4  H   UNL     1       3.762   6.696  19.938  0.00  0.00    +0.000 HD
ENDROOT
BRANCH   1   9
ATOM      5  C   UNL     1       0.602   9.333  20.262  0.00  0.00    +0.000 A 
ATOM      6  C   UNL     1       0.495  10.052  19.063  0.00  0.00    +0.000 A 
ATOM      7  C   UNL     1       1.191   9.640  17.936  0.00  0.00    +0.000 A 
ATOM      8  C   UNL     1       2.001   8.508  18.003  0.00  0.00    +0.000 A 
ATOM      9  C   UNL     1       2.131   7.771  19.187  0.00  0.00    +0.000 A 
ATOM     10  C   UNL     1       1.422   8.190  20.316  0.00  0.00    +0.000 A 
BRANCH   5  14
ATOM     11  C   UNL     1      -2.013  12.209  23.282  0.00  0.00    +0.000 C 
ATOM     12  C   UNL     1      -1.223  11.111  22.687  0.00  0.00    +0.000 A 
ATOM     13  N   UNL     1      -0.788  11.006  21.454  0.00  0.00    +0.000 NA
ATOM     14  C   UNL     1      -0.110   9.806  21.440  0.00  0.00    +0.000 A 
ATOM     15  N   UNL     1      -0.128   9.160  22.620  0.00  0.00    +0.000 NA
ATOM     16  N   UNL     1      -0.816  10.017  23.391  0.00  0.00    +0.000 N 
ATOM     17  H   UNL     1      -0.957   9.798  24.368  0.00  0.00    +0.000 HD
ENDBRANCH   5  14
ENDBRANCH   1   9
BRANCH   2  18
ATOM     18  C   UNL     1       3.827   4.390  18.786  0.00  0.00    +0.000 C 
ATOM     19  C   UNL     1       3.325   2.984  18.381  0.00  0.00    +0.000 C 
ATOM     20  C   UNL     1       3.663   3.249  19.806  0.00  0.00    +0.000 C 
BRANCH  18  21
ATOM     21  C   UNL     1       5.262   4.730  18.347  0.00  0.00    +0.000 A 
ATOM     22  C   UNL     1       6.180   5.195  19.313  0.00  0.00    +0.000 A 
ATOM     23  C   UNL     1       7.552   5.221  19.069  0.00  0.00    +0.000 A 
ATOM     24  C   UNL     1       8.039   4.829  17.830  0.00  0.00    +0.000 A 
ATOM     25  C   UNL     1       7.146   4.506  16.812  0.00  0.00    +0.000 A 
ATOM     26  C   UNL     1       5.760   4.481  17.044  0.00  0.00    +0.000 A 
ATOM     27  C   UNL     1       4.853   4.204  15.873  0.00  0.00    +0.000 C 
ENDBRANCH  18  21
ENDBRANCH   2  18
TORSDOF 4
ENDMDL
MODEL 5
REMARK VINA RESULT:      -7.8      1.428      3.385
REMARK  Name = 
REMARK  6 active torsions:
REMARK  status: ('A' for Active; 'I' for Inactive)
REMARK    1  A    between atoms: C_1  and  C_2
REMARK    2  A    between atoms: C_4  and  C_5
REMARK    3  A    between atoms: C_9  and  N_10
REMARK    4  A    between atoms: C_11  and  C_13
REMARK    5  A    between atoms: C_13  and  C_14
REMARK    6  A    between atoms: C_19  and  C_20
REMARK                            x       y       z     vdW  Elec       q    Type
REMARK                         _______ _______ _______ _____ _____    ______ ____
ROOT
ATOM      1  N   UNL     1       2.558   6.824  19.221  0.00  0.00    +0.000 N 
ATOM      2  C   UNL     1       3.622   6.392  18.463  0.00  0.00    +0.000 C 
ATOM      3  O   UNL     1       4.150   7.020  17.546  0.00  0.00    +0.000 OA
ATOM      4  H   UNL     1       2.117   6.155  19.839  0.00  0.00    +0.000 HD
ENDROOT
BRANCH   1   9
ATOM      5  C   UNL     1       0.714   9.909  20.186  0.00  0.00    +0.000 A 
ATOM      6  C   UNL     1       0.922  10.718  19.059  0.00  0.00    +0.000 A 
ATOM      7  C   UNL     1       1.651  10.242  17.980  0.00  0.00    +0.000 A 
ATOM      8  C   UNL     1       2.180   8.953  18.022  0.00  0.00    +0.000 A 
ATOM      9  C   UNL     1       1.993   8.122  19.133  0.00  0.00    +0.000 A 
ATOM     10  C   UNL     1       1.252   8.608  20.214  0.00  0.00    +0.000 A 
BRANCH   5  14
ATOM     11  C   UNL     1      -1.442  13.097  23.254  0.00  0.00    +0.000 C 
ATOM     12  C   UNL     1      -0.911  11.882  22.601  0.00  0.00    +0.000 A 
ATOM     13  N   UNL     1      -0.319  11.786  21.435  0.00  0.00    +0.000 NA
ATOM     14  C   UNL     1      -0.024  10.444  21.320  0.00  0.00    +0.000 A 
ATOM     15  N   UNL     1      -0.432   9.708  22.370  0.00  0.00    +0.000 NA
ATOM     16  N   UNL     1      -0.966  10.645  23.170  0.00  0.00    +0.000 N 
ATOM     17  H   UNL     1      -1.331  10.372  24.072  0.00  0.00    +0.000 HD
ENDBRANCH   5  14
ENDBRANCH   1   9
BRANCH   2  18
ATOM     18  C   UNL     1       4.158   5.019  18.748  0.00  0.00    +0.000 C 
ATOM     19  C   UNL     1       5.610   5.038  19.283  0.00  0.00    +0.000 C 
ATOM     20  C   UNL     1       5.339   4.444  17.945  0.00  0.00    +0.000 C 
BRANCH  18  21
ATOM     21  C   UNL     1       3.219   4.006  19.425  0.00  0.00    +0.000 A 
ATOM     22  C   UNL     1       3.187   3.940  20.834  0.00  0.00    +0.000 A 
ATOM     23  C   UNL     1       2.159   3.291  21.516  0.00  0.00    +0.000 A 
ATOM     24  C   UNL     1       1.160   2.645  20.802  0.00  0.00    +0.000 A 
ATOM     25  C   UNL     1       1.246   2.568  19.414  0.00  0.00    +0.000 A 
ATOM     26  C   UNL     1       2.281   3.214  18.716  0.00  0.00    +0.000 A 
ATOM     27  C   UNL     1       2.356   3.018  17.224  0.00  0.00    +0.000 C 
ENDBRANCH  18  21
ENDBRANCH   2  18
TORSDOF 4
ENDMDL
MODEL 6
REMARK VINA RESULT:      -7.8      2.288      8.130
REMARK  Name = 
REMARK  6 active torsions:
REMARK  status: ('A' for Active; 'I' for Inactive)
REMARK    1  A    between atoms: C_1  and  C_2
REMARK    2  A    between atoms: C_4  and  C_5
REMARK    3  A    between atoms: C_9  and  N_10
REMARK    4  A    between atoms: C_11  and  C_13
REMARK    5  A    between atoms: C_13  and  C_14
REMARK    6  A    between atoms: C_19  and  C_20
REMARK                            x       y       z     vdW  Elec       q    Type
REMARK                         _______ _______ _______ _____ _____    ______ ____
ROOT
ATOM      1  N   UNL     1       1.389   6.940  21.015  0.00  0.00    +0.000 N 
ATOM      2  C   UNL     1       1.380   8.160  20.378  0.00  0.00    +0.000 C 
ATOM      3  O   UNL     1       1.882   8.397  19.279  0.00  0.00    +0.000 OA
ATOM      4  H   UNL     1       1.080   6.910  21.978  0.00  0.00    +0.000 HD
ENDROOT
BRANCH   1   9
ATOM      5  C   UNL     1       3.644   4.583  19.225  0.00  0.00    +0.000 A 
ATOM      6  C   UNL     1       2.930   3.381  19.335  0.00  0.00    +0.000 A 
ATOM      7  C   UNL     1       1.703   3.352  19.981  0.00  0.00    +0.000 A 
ATOM      8  C   UNL     1       1.183   4.526  20.524  0.00  0.00    +0.000 A 
ATOM      9  C   UNL     1       1.873   5.741  20.433  0.00  0.00    +0.000 A 
ATOM     10  C   UNL     1       3.107   5.762  19.776  0.00  0.00    +0.000 A 
BRANCH   5  14
ATOM     11  C   UNL     1       7.100   4.689  15.722  0.00  0.00    +0.000 C 
ATOM     12  C   UNL     1       6.373   4.612  17.006  0.00  0.00    +0.000 A 
ATOM     13  N   UNL     1       5.085   4.750  17.213  0.00  0.00    +0.000 NA
ATOM     14  C   UNL     1       4.945   4.580  18.575  0.00  0.00    +0.000 A 
ATOM     15  N   UNL     1       6.109   4.361  19.214  0.00  0.00    +0.000 NA
ATOM     16  N   UNL     1       6.985   4.364  18.198  0.00  0.00    +0.000 N 
ATOM     17  H   UNL     1       7.961   4.183  18.388  0.00  0.00    +0.000 HD
ENDBRANCH   5  14
ENDBRANCH   1   9
BRANCH   2  18
ATOM     18  C   UNL     1       0.744   9.311  21.102  0.00  0.00    +0.000 C 
ATOM     19  C   UNL     1       1.153   9.384  22.592  0.00  0.00    +0.000 C 
ATOM     20  C   UNL     1      -0.260   9.074  22.244  0.00  0.00    +0.000 C 
BRANCH  18  21
ATOM     21  C   UNL     1       0.662  10.664  20.373  0.00  0.00    +0.000 A 
ATOM     22  C   UNL     1       1.583  11.678  20.710  0.00  0.00    +0.000 A 
ATOM     23  C   UNL     1       1.777  12.793  19.897  0.00  0.00    +0.000 A 
ATOM     24  C   UNL     1       1.016  12.947  18.747  0.00  0.00    +0.000 A 
ATOM     25  C   UNL     1      -0.001  12.038  18.469  0.00  0.00    +0.000 A 
ATOM     26  C   UNL     1      -0.210  10.913  19.284  0.00  0.00    +0.000 A 
ATOM     27  C   UNL     1      -1.381  10.019  18.968  0.00  0.00    +0.000 C 
ENDBRANCH  18  21
ENDBRANCH   2  18
TORSDOF 4
ENDMDL
MODEL 7
REMARK VINA RESULT:      -7.7      2.527      4.663
REMARK  Name = 
REMARK  6 active torsions:
REMARK  status: ('A' for Active; 'I' for Inactive)
REMARK    1  A    between atoms: C_1  and  C_2
REMARK    2  A    between atoms: C_4  and  C_5
REMARK    3  A    between atoms: C_9  and  N_10
REMARK    4  A    between atoms: C_11  and  C_13
REMARK    5  A    between atoms: C_13  and  C_14
REMARK    6  A    between atoms: C_19  and  C_20
REMARK                            x       y       z     vdW  Elec       q    Type
REMARK                         _______ _______ _______ _____ _____    ______ ____
ROOT
ATOM      1  N   UNL     1       1.746   7.512  20.537  0.00  0.00    +0.000 N 
ATOM      2  C   UNL     1       2.297   7.370  19.283  0.00  0.00    +0.000 C 
ATOM      3  O   UNL     1       2.201   8.183  18.364  0.00  0.00    +0.000 OA
ATOM      4  H   UNL     1       1.764   6.709  21.152  0.00  0.00    +0.000 HD
ENDROOT
BRANCH   1   9
ATOM      5  C   UNL     1       0.180  10.886  20.485  0.00  0.00    +0.000 A 
ATOM      6  C   UNL     1      -0.282  10.997  21.804  0.00  0.00    +0.000 A 
ATOM      7  C   UNL     1      -0.062   9.970  22.710  0.00  0.00    +0.000 A 
ATOM      8  C   UNL     1       0.619   8.825  22.302  0.00  0.00    +0.000 A 
ATOM      9  C   UNL     1       1.090   8.684  20.991  0.00  0.00    +0.000 A 
ATOM     10  C   UNL     1       0.868   9.725  20.085  0.00  0.00    +0.000 A 
BRANCH   5  14
ATOM     11  C   UNL     1      -0.166  15.390  18.528  0.00  0.00    +0.000 C 
ATOM     12  C   UNL     1      -0.230  13.935  18.778  0.00  0.00    +0.000 A 
ATOM     13  N   UNL     1       0.237  13.272  19.810  0.00  0.00    +0.000 NA
ATOM     14  C   UNL     1      -0.095  11.961  19.543  0.00  0.00    +0.000 A 
ATOM     15  N   UNL     1      -0.736  11.793  18.372  0.00  0.00    +0.000 NA
ATOM     16  N   UNL     1      -0.826  13.055  17.925  0.00  0.00    +0.000 N 
ATOM     17  H   UNL     1      -1.307  13.237  17.055  0.00  0.00    +0.000 HD
ENDBRANCH   5  14
ENDBRANCH   1   9
BRANCH   2  18
ATOM     18  C   UNL     1       3.039   6.097  18.997  0.00  0.00    +0.000 C 
ATOM     19  C   UNL     1       4.575   6.267  19.068  0.00  0.00    +0.000 C 
ATOM     20  C   UNL     1       3.941   5.965  17.756  0.00  0.00    +0.000 C 
BRANCH  18  21
ATOM     21  C   UNL     1       2.491   4.793  19.600  0.00  0.00    +0.000 A 
ATOM     22  C   UNL     1       2.836   4.456  20.926  0.00  0.00    +0.000 A 
ATOM     23  C   UNL     1       2.143   3.479  21.639  0.00  0.00    +0.000 A 
ATOM     24  C   UNL     1       1.116   2.776  21.025  0.00  0.00    +0.000 A 
ATOM     25  C   UNL     1       0.853   2.985  19.674  0.00  0.00    +0.000 A 
ATOM     26  C   UNL     1       1.548   3.963  18.943  0.00  0.00    +0.000 A 
ATOM     27  C   UNL     1       1.267   4.075  17.467  0.00  0.00    +0.000 C 
ENDBRANCH  18  21
ENDBRANCH   2  18
TORSDOF 4
ENDMDL
MODEL 8
REMARK VINA RESULT:      -7.7      3.263      5.008
REMARK  Name = 
REMARK  6 active torsions:
REMARK  status: ('A' for Active; 'I' for Inactive)
REMARK    1  A    between atoms: C_1  and  C_2
REMARK    2  A    between atoms: C_4  and  C_5
REMARK    3  A    between atoms: C_9  and  N_10
REMARK    4  A    between atoms: C_11  and  C_13
REMARK    5  A    between atoms: C_13  and  C_14
REMARK    6  A    between atoms: C_19  and  C_20
REMARK                            x       y       z     vdW  Elec       q    Type
REMARK                         _______ _______ _______ _____ _____    ______ ____
ROOT
ATOM      1  N   UNL     1       1.878   8.381  18.258  0.00  0.00    +0.000 N 
ATOM      2  C   UNL     1       2.155   7.487  19.268  0.00  0.00    +0.000 C 
ATOM      3  O   UNL     1       1.892   7.649  20.459  0.00  0.00    +0.000 OA
ATOM      4  H   UNL     1       2.280   8.202  17.347  0.00  0.00    +0.000 HD
ENDROOT
BRANCH   1   9
ATOM      5  C   UNL     1      -0.910  10.831  17.999  0.00  0.00    +0.000 A 
ATOM      6  C   UNL     1      -0.439  11.873  18.812  0.00  0.00    +0.000 A 
ATOM      7  C   UNL     1       0.800  11.774  19.428  0.00  0.00    +0.000 A 
ATOM      8  C   UNL     1       1.574  10.631  19.236  0.00  0.00    +0.000 A 
ATOM      9  C   UNL     1       1.130   9.573  18.433  0.00  0.00    +0.000 A 
ATOM     10  C   UNL     1      -0.117   9.683  17.812  0.00  0.00    +0.000 A 
BRANCH   5  14
ATOM     11  C   UNL     1      -5.683  11.866  17.388  0.00  0.00    +0.000 C 
ATOM     12  C   UNL     1      -4.290  11.403  17.215  0.00  0.00    +0.000 A 
ATOM     13  N   UNL     1      -3.276  11.573  18.029  0.00  0.00    +0.000 NA
ATOM     14  C   UNL     1      -2.228  10.943  17.393  0.00  0.00    +0.000 A 
ATOM     15  N   UNL     1      -2.560  10.406  16.205  0.00  0.00    +0.000 NA
ATOM     16  N   UNL     1      -3.870  10.692  16.131  0.00  0.00    +0.000 N 
ATOM     17  H   UNL     1      -4.401  10.368  15.335  0.00  0.00    +0.000 HD
ENDBRANCH   5  14
ENDBRANCH   1   9
BRANCH   2  18
ATOM     18  C   UNL     1       2.878   6.226  18.892  0.00  0.00    +0.000 C 
ATOM     19  C   UNL     1       4.413   6.409  18.825  0.00  0.00    +0.000 C 
ATOM     20  C   UNL     1       3.663   6.123  17.572  0.00  0.00    +0.000 C 
BRANCH  18  21
ATOM     21  C   UNL     1       2.398   4.906  19.520  0.00  0.00    +0.000 A 
ATOM     22  C   UNL     1       2.754   4.615  20.854  0.00  0.00    +0.000 A 
ATOM     23  C   UNL     1       2.112   3.617  21.585  0.00  0.00    +0.000 A 
ATOM     24  C   UNL     1       1.127   2.848  20.981  0.00  0.00    +0.000 A 
ATOM     25  C   UNL     1       0.860   3.014  19.625  0.00  0.00    +0.000 A 
ATOM     26  C   UNL     1       1.505   4.014  18.877  0.00  0.00    +0.000 A 
ATOM     27  C   UNL     1       1.225   4.080  17.398  0.00  0.00    +0.000 C 
ENDBRANCH  18  21
ENDBRANCH   2  18
TORSDOF 4
ENDMDL
MODEL 9
REMARK VINA RESULT:      -7.6      2.324      4.346
REMARK  Name = 
REMARK  6 active torsions:
REMARK  status: ('A' for Active; 'I' for Inactive)
REMARK    1  A    between atoms: C_1  and  C_2
REMARK    2  A    between atoms: C_4  and  C_5
REMARK    3  A    between atoms: C_9  and  N_10
REMARK    4  A    between atoms: C_11  and  C_13
REMARK    5  A    between atoms: C_13  and  C_14
REMARK    6  A    between atoms: C_19  and  C_20
REMARK                            x       y       z     vdW  Elec       q    Type
REMARK                         _______ _______ _______ _____ _____    ______ ____
ROOT
ATOM      1  N   UNL     1       2.088   7.304  20.214  0.00  0.00    +0.000 N 
ATOM      2  C   UNL     1       2.543   7.027  18.945  0.00  0.00    +0.000 C 
ATOM      3  O   UNL     1       2.276   7.674  17.932  0.00  0.00    +0.000 OA
ATOM      4  H   UNL     1       2.251   6.612  20.934  0.00  0.00    +0.000 HD
ENDROOT
BRANCH   1   9
ATOM      5  C   UNL     1      -0.135  10.267  19.856  0.00  0.00    +0.000 A 
ATOM      6  C   UNL     1      -0.230  10.702  21.186  0.00  0.00    +0.000 A 
ATOM      7  C   UNL     1       0.449  10.032  22.192  0.00  0.00    +0.000 A 
ATOM      8  C   UNL     1       1.227   8.920  21.875  0.00  0.00    +0.000 A 
ATOM      9  C   UNL     1       1.340   8.459  20.558  0.00  0.00    +0.000 A 
ATOM     10  C   UNL     1       0.656   9.143  19.549  0.00  0.00    +0.000 A 
BRANCH   5  14
ATOM     11  C   UNL     1      -3.223  11.129  16.122  0.00  0.00    +0.000 C 
ATOM     12  C   UNL     1      -2.221  11.251  17.201  0.00  0.00    +0.000 A 
ATOM     13  N   UNL     1      -1.829  10.327  18.046  0.00  0.00    +0.000 NA
ATOM     14  C   UNL     1      -0.886  10.965  18.824  0.00  0.00    +0.000 A 
ATOM     15  N   UNL     1      -0.697  12.256  18.496  0.00  0.00    +0.000 NA
ATOM     16  N   UNL     1      -1.535  12.400  17.457  0.00  0.00    +0.000 N 
ATOM     17  H   UNL     1      -1.576  13.289  16.977  0.00  0.00    +0.000 HD
ENDBRANCH   5  14
ENDBRANCH   1   9
BRANCH   2  18
ATOM     18  C   UNL     1       3.402   5.808  18.772  0.00  0.00    +0.000 C 
ATOM     19  C   UNL     1       4.781   5.941  19.459  0.00  0.00    +0.000 C 
ATOM     20  C   UNL     1       4.717   5.869  17.974  0.00  0.00    +0.000 C 
BRANCH  18  21
ATOM     21  C   UNL     1       2.730   4.430  18.902  0.00  0.00    +0.000 A 
ATOM     22  C   UNL     1       1.831   4.206  19.966  0.00  0.00    +0.000 A 
ATOM     23  C   UNL     1       0.959   3.119  19.973  0.00  0.00    +0.000 A 
ATOM     24  C   UNL     1       0.998   2.197  18.937  0.00  0.00    +0.000 A 
ATOM     25  C   UNL     1       1.974   2.313  17.951  0.00  0.00    +0.000 A 
ATOM     26  C   UNL     1       2.863   3.401  17.936  0.00  0.00    +0.000 A 
ATOM     27  C   UNL     1       3.944   3.416  16.886  0.00  0.00    +0.000 C 
ENDBRANCH  18  21
ENDBRANCH   2  18
TORSDOF 4
ENDMDL
