MODEL 1
REMARK VINA RESULT:      -8.6      0.000      0.000
REMARK  Name = 
REMARK  3 active torsions:
REMARK  status: ('A' for Active; 'I' for Inactive)
REMARK    1  A    between atoms: C_1  and  C_2
REMARK    2  A    between atoms: C_12  and  C_13
REMARK    3  A    between atoms: C_15  and  C_16
REMARK                            x       y       z     vdW  Elec       q    Type
REMARK                         _______ _______ _______ _____ _____    ______ ____
ROOT
ATOM      1  C   UNL     1       0.061  12.807  19.769  0.00  0.00    +0.000 C 
ATOM      2  C   UNL     1       0.577  11.433  19.883  0.00  0.00    +0.000 A 
ATOM      3  C   UNL     1       1.137  10.526  19.016  0.00  0.00    +0.000 A 
ATOM      4  C   UNL     1       1.355   9.366  19.805  0.00  0.00    +0.000 A 
ATOM      5  N   UNL     1       1.872   8.172  19.319  0.00  0.00    +0.000 N 
ATOM      6  C   UNL     1       1.771   6.988  20.004  0.00  0.00    +0.000 C 
ATOM      7  O   UNL     1       1.178   6.850  21.073  0.00  0.00    +0.000 OA
ATOM      8  N   UNL     1       2.350   5.885  19.380  0.00  0.00    +0.000 N 
ATOM      9  C   UNL     1       2.091   4.568  19.963  0.00  0.00    +0.000 C 
ATOM     10  C   UNL     1       3.357   4.025  20.609  0.00  0.00    +0.000 C 
ATOM     11  C   UNL     1       4.471   3.931  19.572  0.00  0.00    +0.000 C 
ATOM     12  C   UNL     1       4.709   5.276  18.859  0.00  0.00    +0.000 C 
ATOM     13  C   UNL     1       3.392   5.899  18.347  0.00  0.00    +0.000 C 
ATOM     14  N   UNL     1       0.999   9.596  21.072  0.00  0.00    +0.000 NA
ATOM     15  O   UNL     1       0.501  10.876  21.117  0.00  0.00    +0.000 OA
ATOM     16  H   UNL     1       2.050   8.137  18.331  0.00  0.00    +0.000 HD
ENDROOT
BRANCH  12  17
ATOM     17  C   UNL     1       5.653   5.065  17.730  0.00  0.00    +0.000 A 
ATOM     18  N   UNL     1       5.424   5.103  16.438  0.00  0.00    +0.000 NA
ATOM     19  C   UNL     1       6.633   4.704  15.907  0.00  0.00    +0.000 A 
ATOM     20  N   UNL     1       7.573   4.453  16.833  0.00  0.00    +0.000 NA
ATOM     21  O   UNL     1       6.924   4.688  18.043  0.00  0.00    +0.000 OA
BRANCH  19  22
ATOM     22  C   UNL     1       6.837   4.571  14.470  0.00  0.00    +0.000 A 
ATOM     23  C   UNL     1       7.715   5.425  13.781  0.00  0.00    +0.000 A 
ATOM     24  C   UNL     1       7.897   5.300  12.400  0.00  0.00    +0.000 A 
ATOM     25  C   UNL     1       7.203   4.319  11.696  0.00  0.00    +0.000 A 
ATOM     26  C   UNL     1       6.340   3.469  12.377  0.00  0.00    +0.000 A 
ATOM     27  F   UNL     1       5.674   2.526  11.698  0.00  0.00    +0.000 F 
ATOM     28  C   UNL     1       6.153   3.582  13.750  0.00  0.00    +0.000 A 
ENDBRANCH  19  22
ENDBRANCH  12  17
TORSDOF 2
ENDMDL
MODEL 2
REMARK VINA RESULT:      -8.6      1.172      1.502
REMARK  Name = 
REMARK  3 active torsions:
REMARK  status: ('A' for Active; 'I' for Inactive)
REMARK    1  A    between atoms: C_1  and  C_2
REMARK    2  A    between atoms: C_12  and  C_13
REMARK    3  A    between atoms: C_15  and  C_16
REMARK                            x       y       z     vdW  Elec       q    Type
REMARK                         _______ _______ _______ _____ _____    ______ ____
ROOT
ATOM      1  C   UNL     1      -0.204  11.888  20.715  0.00  0.00    +0.000 C 
ATOM      2  C   UNL     1       0.383  10.540  20.662  0.00  0.00    +0.000 A 
ATOM      3  C   UNL     1       0.972   9.769  19.688  0.00  0.00    +0.000 A 
ATOM      4  C   UNL     1       1.264   8.539  20.334  0.00  0.00    +0.000 A 
ATOM      5  N   UNL     1       1.831   7.438  19.705  0.00  0.00    +0.000 N 
ATOM      6  C   UNL     1       1.804   6.180  20.250  0.00  0.00    +0.000 C 
ATOM      7  O   UNL     1       1.241   5.889  21.304  0.00  0.00    +0.000 OA
ATOM      8  N   UNL     1       2.426   5.188  19.494  0.00  0.00    +0.000 N 
ATOM      9  C   UNL     1       2.246   3.801  19.924  0.00  0.00    +0.000 C 
ATOM     10  C   UNL     1       3.550   3.255  20.485  0.00  0.00    +0.000 C 
ATOM     11  C   UNL     1       4.647   3.339  19.429  0.00  0.00    +0.000 C 
ATOM     12  C   UNL     1       4.802   4.768  18.874  0.00  0.00    +0.000 C 
ATOM     13  C   UNL     1       3.446   5.376  18.456  0.00  0.00    +0.000 C 
ATOM     14  N   UNL     1       0.921   8.603  21.624  0.00  0.00    +0.000 NA
ATOM     15  O   UNL     1       0.360   9.841  21.824  0.00  0.00    +0.000 OA
ATOM     16  H   UNL     1       1.991   7.527  18.718  0.00  0.00    +0.000 HD
ENDROOT
BRANCH  12  17
ATOM     17  C   UNL     1       5.733   4.739  17.715  0.00  0.00    +0.000 A 
ATOM     18  N   UNL     1       5.466   4.821  16.433  0.00  0.00    +0.000 NA
ATOM     19  C   UNL     1       6.699   4.604  15.854  0.00  0.00    +0.000 A 
ATOM     20  N   UNL     1       7.688   4.419  16.744  0.00  0.00    +0.000 NA
ATOM     21  O   UNL     1       7.049   4.504  17.979  0.00  0.00    +0.000 OA
BRANCH  19  22
ATOM     22  C   UNL     1       6.878   4.579  14.408  0.00  0.00    +0.000 A 
ATOM     23  C   UNL     1       6.261   3.594  13.619  0.00  0.00    +0.000 A 
ATOM     24  C   UNL     1       6.447   3.568  12.232  0.00  0.00    +0.000 A 
ATOM     25  C   UNL     1       7.253   4.528  11.624  0.00  0.00    +0.000 A 
ATOM     26  C   UNL     1       7.859   5.507  12.403  0.00  0.00    +0.000 A 
ATOM     27  F   UNL     1       8.633   6.428  11.816  0.00  0.00    +0.000 F 
ATOM     28  C   UNL     1       7.678   5.544  13.781  0.00  0.00    +0.000 A 
ENDBRANCH  19  22
ENDBRANCH  12  17
TORSDOF 2
ENDMDL
MODEL 3
REMARK VINA RESULT:      -7.8      1.393      1.701
REMARK  Name = 
REMARK  3 active torsions:
REMARK  status: ('A' for Active; 'I' for Inactive)
REMARK    1  A    between atoms: C_1  and  C_2
REMARK    2  A    between atoms: C_12  and  C_13
REMARK    3  A    between atoms: C_15  and  C_16
REMARK                            x       y       z     vdW  Elec       q    Type
REMARK                         _______ _______ _______ _____ _____    ______ ____
ROOT
ATOM      1  C   UNL     1      -1.065  12.091  18.717  0.00  0.00    +0.000 C 
ATOM      2  C   UNL     1      -0.141  10.958  18.891  0.00  0.00    +0.000 A 
ATOM      3  C   UNL     1       0.359   9.973  18.074  0.00  0.00    +0.000 A 
ATOM      4  C   UNL     1       1.168   9.178  18.928  0.00  0.00    +0.000 A 
ATOM      5  N   UNL     1       1.842   8.031  18.526  0.00  0.00    +0.000 N 
ATOM      6  C   UNL     1       2.338   7.115  19.417  0.00  0.00    +0.000 C 
ATOM      7  O   UNL     1       2.197   7.181  20.637  0.00  0.00    +0.000 OA
ATOM      8  N   UNL     1       2.995   6.025  18.850  0.00  0.00    +0.000 N 
ATOM      9  C   UNL     1       3.359   4.920  19.738  0.00  0.00    +0.000 C 
ATOM     10  C   UNL     1       4.867   4.878  19.928  0.00  0.00    +0.000 C 
ATOM     11  C   UNL     1       5.558   4.716  18.578  0.00  0.00    +0.000 C 
ATOM     12  C   UNL     1       5.125   5.803  17.577  0.00  0.00    +0.000 C 
ATOM     13  C   UNL     1       3.589   5.949  17.511  0.00  0.00    +0.000 C 
ATOM     14  N   UNL     1       1.187   9.696  20.159  0.00  0.00    +0.000 NA
ATOM     15  O   UNL     1       0.361  10.794  20.140  0.00  0.00    +0.000 OA
ATOM     16  H   UNL     1       1.692   7.741  17.577  0.00  0.00    +0.000 HD
ENDROOT
BRANCH  12  17
ATOM     17  C   UNL     1       5.669   5.470  16.233  0.00  0.00    +0.000 A 
ATOM     18  N   UNL     1       5.185   4.663  15.318  0.00  0.00    +0.000 NA
ATOM     19  C   UNL     1       6.180   4.660  14.363  0.00  0.00    +0.000 A 
ATOM     20  N   UNL     1       7.224   5.450  14.669  0.00  0.00    +0.000 NA
ATOM     21  O   UNL     1       6.889   5.984  15.911  0.00  0.00    +0.000 OA
BRANCH  19  22
ATOM     22  C   UNL     1       6.082   3.860  13.149  0.00  0.00    +0.000 A 
ATOM     23  C   UNL     1       7.234   3.399  12.490  0.00  0.00    +0.000 A 
ATOM     24  C   UNL     1       7.132   2.642  11.319  0.00  0.00    +0.000 A 
ATOM     25  C   UNL     1       5.877   2.339  10.796  0.00  0.00    +0.000 A 
ATOM     26  C   UNL     1       4.736   2.788  11.451  0.00  0.00    +0.000 A 
ATOM     27  F   UNL     1       3.530   2.496  10.947  0.00  0.00    +0.000 F 
ATOM     28  C   UNL     1       4.825   3.539  12.618  0.00  0.00    +0.000 A 
ENDBRANCH  19  22
ENDBRANCH  12  17
TORSDOF 2
ENDMDL
MODEL 4
REMARK VINA RESULT:      -7.8      6.833      7.643
REMARK  Name = 
REMARK  3 active torsions:
REMARK  status: ('A' for Active; 'I' for Inactive)
REMARK    1  A    between atoms: C_1  and  C_2
REMARK    2  A    between atoms: C_12  and  C_13
REMARK    3  A    between atoms: C_15  and  C_16
REMARK                            x       y       z     vdW  Elec       q    Type
REMARK                         _______ _______ _______ _____ _____    ______ ____
ROOT
ATOM      1  C   UNL     1       7.763  13.643  26.853  0.00  0.00    +0.000 C 
ATOM      2  C   UNL     1       8.144  13.400  25.452  0.00  0.00    +0.000 A 
ATOM      3  C   UNL     1       8.420  12.287  24.694  0.00  0.00    +0.000 A 
ATOM      4  C   UNL     1       8.767  12.802  23.417  0.00  0.00    +0.000 A 
ATOM      5  N   UNL     1       9.166  12.022  22.340  0.00  0.00    +0.000 N 
ATOM      6  C   UNL     1       9.799  12.546  21.242  0.00  0.00    +0.000 C 
ATOM      7  O   UNL     1      10.122  13.727  21.120  0.00  0.00    +0.000 OA
ATOM      8  N   UNL     1      10.125  11.628  20.245  0.00  0.00    +0.000 N 
ATOM      9  C   UNL     1      10.981  12.095  19.153  0.00  0.00    +0.000 C 
ATOM     10  C   UNL     1      10.176  12.195  17.866  0.00  0.00    +0.000 C 
ATOM     11  C   UNL     1       9.576  10.836  17.520  0.00  0.00    +0.000 C 
ATOM     12  C   UNL     1       8.748  10.260  18.684  0.00  0.00    +0.000 C 
ATOM     13  C   UNL     1       9.517  10.312  20.021  0.00  0.00    +0.000 C 
ATOM     14  N   UNL     1       8.648  14.132  23.408  0.00  0.00    +0.000 NA
ATOM     15  O   UNL     1       8.275  14.506  24.678  0.00  0.00    +0.000 OA
ATOM     16  H   UNL     1       9.253  11.037  22.515  0.00  0.00    +0.000 HD
ENDROOT
BRANCH  12  17
ATOM     17  C   UNL     1       8.368   8.859  18.361  0.00  0.00    +0.000 A 
ATOM     18  N   UNL     1       7.484   8.416  17.498  0.00  0.00    +0.000 NA
ATOM     19  C   UNL     1       7.482   7.059  17.740  0.00  0.00    +0.000 A 
ATOM     20  N   UNL     1       8.345   6.679  18.697  0.00  0.00    +0.000 NA
ATOM     21  O   UNL     1       8.930   7.873  19.113  0.00  0.00    +0.000 OA
BRANCH  19  22
ATOM     22  C   UNL     1       6.608   6.147  17.012  0.00  0.00    +0.000 A 
ATOM     23  C   UNL     1       7.089   5.395  15.927  0.00  0.00    +0.000 A 
ATOM     24  C   UNL     1       6.242   4.530  15.225  0.00  0.00    +0.000 A 
ATOM     25  C   UNL     1       4.906   4.413  15.602  0.00  0.00    +0.000 A 
ATOM     26  C   UNL     1       4.430   5.151  16.679  0.00  0.00    +0.000 A 
ATOM     27  F   UNL     1       3.146   5.036  17.040  0.00  0.00    +0.000 F 
ATOM     28  C   UNL     1       5.264   6.011  17.386  0.00  0.00    +0.000 A 
ENDBRANCH  19  22
ENDBRANCH  12  17
TORSDOF 2
ENDMDL
MODEL 5
REMARK VINA RESULT:      -7.8      3.784      6.217
REMARK  Name = 
REMARK  3 active torsions:
REMARK  status: ('A' for Active; 'I' for Inactive)
REMARK    1  A    between atoms: C_1  and  C_2
REMARK    2  A    between atoms: C_12  and  C_13
REMARK    3  A    between atoms: C_15  and  C_16
REMARK                            x       y       z     vdW  Elec       q    Type
REMARK                         _______ _______ _______ _____ _____    ______ ____
ROOT
ATOM      1  C   UNL     1      -0.900  18.333  20.005  0.00  0.00    +0.000 C 
ATOM      2  C   UNL     1      -0.728  16.962  20.511  0.00  0.00    +0.000 A 
ATOM      3  C   UNL     1      -0.760  15.705  19.955  0.00  0.00    +0.000 A 
ATOM      4  C   UNL     1      -0.558  14.825  21.051  0.00  0.00    +0.000 A 
ATOM      5  N   UNL     1      -0.561  13.440  20.955  0.00  0.00    +0.000 N 
ATOM      6  C   UNL     1      -0.690  12.622  22.049  0.00  0.00    +0.000 C 
ATOM      7  O   UNL     1      -0.867  13.020  23.199  0.00  0.00    +0.000 OA
ATOM      8  N   UNL     1      -0.665  11.255  21.780  0.00  0.00    +0.000 N 
ATOM      9  C   UNL     1      -1.005  10.347  22.875  0.00  0.00    +0.000 C 
ATOM     10  C   UNL     1       0.236   9.599  23.338  0.00  0.00    +0.000 C 
ATOM     11  C   UNL     1       0.838   8.818  22.174  0.00  0.00    +0.000 C 
ATOM     12  C   UNL     1       1.119   9.721  20.959  0.00  0.00    +0.000 C 
ATOM     13  C   UNL     1      -0.100  10.597  20.596  0.00  0.00    +0.000 C 
ATOM     14  N   UNL     1      -0.362  15.523  22.173  0.00  0.00    +0.000 NA
ATOM     15  O   UNL     1      -0.483  16.851  21.841  0.00  0.00    +0.000 OA
ATOM     16  H   UNL     1      -0.769  13.060  20.049  0.00  0.00    +0.000 HD
ENDROOT
BRANCH  12  17
ATOM     17  C   UNL     1       1.506   8.871  19.802  0.00  0.00    +0.000 A 
ATOM     18  N   UNL     1       2.017   7.663  19.794  0.00  0.00    +0.000 NA
ATOM     19  C   UNL     1       2.282   7.457  18.456  0.00  0.00    +0.000 A 
ATOM     20  N   UNL     1       1.927   8.488  17.670  0.00  0.00    +0.000 NA
ATOM     21  O   UNL     1       1.415   9.428  18.562  0.00  0.00    +0.000 OA
BRANCH  19  22
ATOM     22  C   UNL     1       2.895   6.227  17.972  0.00  0.00    +0.000 A 
ATOM     23  C   UNL     1       4.214   6.217  17.488  0.00  0.00    +0.000 A 
ATOM     24  C   UNL     1       4.793   5.036  17.013  0.00  0.00    +0.000 A 
ATOM     25  C   UNL     1       4.057   3.853  17.018  0.00  0.00    +0.000 A 
ATOM     26  C   UNL     1       2.754   3.860  17.503  0.00  0.00    +0.000 A 
ATOM     27  F   UNL     1       2.048   2.722  17.507  0.00  0.00    +0.000 F 
ATOM     28  C   UNL     1       2.170   5.028  17.981  0.00  0.00    +0.000 A 
ENDBRANCH  19  22
ENDBRANCH  12  17
TORSDOF 2
ENDMDL
MODEL 6
REMARK VINA RESULT:      -7.7      3.566      6.528
REMARK  Name = 
REMARK  3 active torsions:
REMARK  status: ('A' for Active; 'I' for Inactive)
REMARK    1  A    between atoms: C_1  and  C_2
REMARK    2  A    between atoms: C_12  and  C_13
REMARK    3  A    between atoms: C_15  and  C_16
REMARK                            x       y       z     vdW  Elec       q    Type
REMARK                         _______ _______ _______ _____ _____    ______ ____
ROOT
ATOM      1  C   UNL     1      -5.751  13.227  23.844  0.00  0.00    +0.000 C 
ATOM      2  C   UNL     1      -4.572  13.164  22.965  0.00  0.00    +0.000 A 
ATOM      3  C   UNL     1      -3.448  12.377  22.895  0.00  0.00    +0.000 A 
ATOM      4  C   UNL     1      -2.702  12.916  21.814  0.00  0.00    +0.000 A 
ATOM      5  N   UNL     1      -1.457  12.450  21.410  0.00  0.00    +0.000 N 
ATOM      6  C   UNL     1      -0.624  13.175  20.597  0.00  0.00    +0.000 C 
ATOM      7  O   UNL     1      -0.862  14.311  20.190  0.00  0.00    +0.000 OA
ATOM      8  N   UNL     1       0.586  12.560  20.279  0.00  0.00    +0.000 N 
ATOM      9  C   UNL     1       1.592  13.368  19.591  0.00  0.00    +0.000 C 
ATOM     10  C   UNL     1       1.744  12.899  18.152  0.00  0.00    +0.000 C 
ATOM     11  C   UNL     1       2.143  11.427  18.124  0.00  0.00    +0.000 C 
ATOM     12  C   UNL     1       1.161  10.550  18.925  0.00  0.00    +0.000 C 
ATOM     13  C   UNL     1       0.888  11.125  20.331  0.00  0.00    +0.000 C 
ATOM     14  N   UNL     1      -3.373  13.923  21.247  0.00  0.00    +0.000 NA
ATOM     15  O   UNL     1      -4.529  14.087  21.972  0.00  0.00    +0.000 OA
ATOM     16  H   UNL     1      -1.059  11.715  21.966  0.00  0.00    +0.000 HD
ENDROOT
BRANCH  12  17
ATOM     17  C   UNL     1       1.716   9.174  19.029  0.00  0.00    +0.000 A 
ATOM     18  N   UNL     1       2.278   8.433  18.104  0.00  0.00    +0.000 NA
ATOM     19  C   UNL     1       2.462   7.230  18.752  0.00  0.00    +0.000 A 
ATOM     20  N   UNL     1       2.050   7.237  20.031  0.00  0.00    +0.000 NA
ATOM     21  O   UNL     1       1.550   8.524  20.215  0.00  0.00    +0.000 OA
BRANCH  19  22
ATOM     22  C   UNL     1       3.047   6.075  18.083  0.00  0.00    +0.000 A 
ATOM     23  C   UNL     1       4.338   6.133  17.533  0.00  0.00    +0.000 A 
ATOM     24  C   UNL     1       4.889   5.024  16.882  0.00  0.00    +0.000 A 
ATOM     25  C   UNL     1       4.152   3.848  16.774  0.00  0.00    +0.000 A 
ATOM     26  C   UNL     1       2.877   3.786  17.324  0.00  0.00    +0.000 A 
ATOM     27  F   UNL     1       2.170   2.653  17.221  0.00  0.00    +0.000 F 
ATOM     28  C   UNL     1       2.321   4.881  17.977  0.00  0.00    +0.000 A 
ENDBRANCH  19  22
ENDBRANCH  12  17
TORSDOF 2
ENDMDL
MODEL 7
REMARK VINA RESULT:      -7.7      4.486      7.053
REMARK  Name = 
REMARK  3 active torsions:
REMARK  status: ('A' for Active; 'I' for Inactive)
REMARK    1  A    between atoms: C_1  and  C_2
REMARK    2  A    between atoms: C_12  and  C_13
REMARK    3  A    between atoms: C_15  and  C_16
REMARK                            x       y       z     vdW  Elec       q    Type
REMARK                         _______ _______ _______ _____ _____    ______ ____
ROOT
ATOM      1  C   UNL     1      -4.795  12.550  24.845  0.00  0.00    +0.000 C 
ATOM      2  C   UNL     1      -3.723  12.615  23.838  0.00  0.00    +0.000 A 
ATOM      3  C   UNL     1      -2.661  11.815  23.490  0.00  0.00    +0.000 A 
ATOM      4  C   UNL     1      -2.005  12.525  22.449  0.00  0.00    +0.000 A 
ATOM      5  N   UNL     1      -0.841  12.100  21.823  0.00  0.00    +0.000 N 
ATOM      6  C   UNL     1      -0.059  12.937  21.068  0.00  0.00    +0.000 C 
ATOM      7  O   UNL     1      -0.272  14.138  20.913  0.00  0.00    +0.000 OA
ATOM      8  N   UNL     1       1.071  12.350  20.501  0.00  0.00    +0.000 N 
ATOM      9  C   UNL     1       2.043  13.238  19.864  0.00  0.00    +0.000 C 
ATOM     10  C   UNL     1       2.011  13.050  18.355  0.00  0.00    +0.000 C 
ATOM     11  C   UNL     1       2.317  11.598  18.004  0.00  0.00    +0.000 C 
ATOM     12  C   UNL     1       1.378  10.620  18.736  0.00  0.00    +0.000 C 
ATOM     13  C   UNL     1       1.292  10.922  20.247  0.00  0.00    +0.000 C 
ATOM     14  N   UNL     1      -2.673  13.646  22.164  0.00  0.00    +0.000 NA
ATOM     15  O   UNL     1      -3.733  13.710  23.037  0.00  0.00    +0.000 OA
ATOM     16  H   UNL     1      -0.429  11.256  22.180  0.00  0.00    +0.000 HD
ENDROOT
BRANCH  12  17
ATOM     17  C   UNL     1       1.858   9.230  18.514  0.00  0.00    +0.000 A 
ATOM     18  N   UNL     1       1.814   8.197  19.323  0.00  0.00    +0.000 NA
ATOM     19  C   UNL     1       2.519   7.239  18.625  0.00  0.00    +0.000 A 
ATOM     20  N   UNL     1       2.960   7.658  17.426  0.00  0.00    +0.000 NA
ATOM     21  O   UNL     1       2.526   8.980  17.353  0.00  0.00    +0.000 OA
BRANCH  19  22
ATOM     22  C   UNL     1       2.753   5.907  19.167  0.00  0.00    +0.000 A 
ATOM     23  C   UNL     1       3.882   5.160  18.792  0.00  0.00    +0.000 A 
ATOM     24  C   UNL     1       4.094   3.876  19.307  0.00  0.00    +0.000 A 
ATOM     25  C   UNL     1       3.177   3.330  20.202  0.00  0.00    +0.000 A 
ATOM     26  C   UNL     1       2.063   4.070  20.580  0.00  0.00    +0.000 A 
ATOM     27  F   UNL     1       1.184   3.542  21.441  0.00  0.00    +0.000 F 
ATOM     28  C   UNL     1       1.845   5.348  20.077  0.00  0.00    +0.000 A 
ENDBRANCH  19  22
ENDBRANCH  12  17
TORSDOF 2
ENDMDL
MODEL 8
REMARK VINA RESULT:      -7.7      3.312      5.828
REMARK  Name = 
REMARK  3 active torsions:
REMARK  status: ('A' for Active; 'I' for Inactive)
REMARK    1  A    between atoms: C_1  and  C_2
REMARK    2  A    between atoms: C_12  and  C_13
REMARK    3  A    between atoms: C_15  and  C_16
REMARK                            x       y       z     vdW  Elec       q    Type
REMARK                         _______ _______ _______ _____ _____    ______ ____
ROOT
ATOM      1  C   UNL     1       3.183  16.900  17.617  0.00  0.00    +0.000 C 
ATOM      2  C   UNL     1       2.615  15.811  18.427  0.00  0.00    +0.000 A 
ATOM      3  C   UNL     1       2.325  14.484  18.213  0.00  0.00    +0.000 A 
ATOM      4  C   UNL     1       1.741  14.046  19.432  0.00  0.00    +0.000 A 
ATOM      5  N   UNL     1       1.252  12.765  19.650  0.00  0.00    +0.000 N 
ATOM      6  C   UNL     1       0.414  12.461  20.693  0.00  0.00    +0.000 C 
ATOM      7  O   UNL     1      -0.026  13.283  21.496  0.00  0.00    +0.000 OA
ATOM      8  N   UNL     1       0.021  11.127  20.775  0.00  0.00    +0.000 N 
ATOM      9  C   UNL     1      -1.030  10.791  21.736  0.00  0.00    +0.000 C 
ATOM     10  C   UNL     1      -0.445   9.994  22.891  0.00  0.00    +0.000 C 
ATOM     11  C   UNL     1       0.212   8.721  22.366  0.00  0.00    +0.000 C 
ATOM     12  C   UNL     1       1.257   9.022  21.275  0.00  0.00    +0.000 C 
ATOM     13  C   UNL     1       0.701   9.967  20.187  0.00  0.00    +0.000 C 
ATOM     14  N   UNL     1       1.741  15.038  20.326  0.00  0.00    +0.000 NA
ATOM     15  O   UNL     1       2.270  16.140  19.697  0.00  0.00    +0.000 OA
ATOM     16  H   UNL     1       1.280  12.141  18.864  0.00  0.00    +0.000 HD
ENDROOT
BRANCH  12  17
ATOM     17  C   UNL     1       1.704   7.742  20.666  0.00  0.00    +0.000 A 
ATOM     18  N   UNL     1       2.537   7.541  19.671  0.00  0.00    +0.000 NA
ATOM     19  C   UNL     1       2.451   6.178  19.478  0.00  0.00    +0.000 A 
ATOM     20  N   UNL     1       1.617   5.562  20.333  0.00  0.00    +0.000 NA
ATOM     21  O   UNL     1       1.118   6.599  21.119  0.00  0.00    +0.000 OA
BRANCH  19  22
ATOM     22  C   UNL     1       3.204   5.499  18.430  0.00  0.00    +0.000 A 
ATOM     23  C   UNL     1       3.133   4.105  18.275  0.00  0.00    +0.000 A 
ATOM     24  C   UNL     1       3.867   3.458  17.276  0.00  0.00    +0.000 A 
ATOM     25  C   UNL     1       4.680   4.202  16.423  0.00  0.00    +0.000 A 
ATOM     26  C   UNL     1       4.746   5.582  16.570  0.00  0.00    +0.000 A 
ATOM     27  F   UNL     1       5.527   6.295  15.749  0.00  0.00    +0.000 F 
ATOM     28  C   UNL     1       4.017   6.236  17.559  0.00  0.00    +0.000 A 
ENDBRANCH  19  22
ENDBRANCH  12  17
TORSDOF 2
ENDMDL
MODEL 9
REMARK VINA RESULT:      -7.7      4.326      6.130
REMARK  Name = 
REMARK  3 active torsions:
REMARK  status: ('A' for Active; 'I' for Inactive)
REMARK    1  A    between atoms: C_1  and  C_2
REMARK    2  A    between atoms: C_12  and  C_13
REMARK    3  A    between atoms: C_15  and  C_16
REMARK                            x       y       z     vdW  Elec       q    Type
REMARK                         _______ _______ _______ _____ _____    ______ ____
ROOT
ATOM      1  C   UNL     1       0.393  17.470  18.055  0.00  0.00    +0.000 C 
ATOM      2  C   UNL     1       0.379  16.216  18.826  0.00  0.00    +0.000 A 
ATOM      3  C   UNL     1       0.264  14.881  18.517  0.00  0.00    +0.000 A 
ATOM      4  C   UNL     1       0.279  14.222  19.775  0.00  0.00    +0.000 A 
ATOM      5  N   UNL     1       0.142  12.850  19.942  0.00  0.00    +0.000 N 
ATOM      6  C   UNL     1      -0.164  12.279  21.151  0.00  0.00    +0.000 C 
ATOM      7  O   UNL     1      -0.397  12.911  22.181  0.00  0.00    +0.000 OA
ATOM      8  N   UNL     1      -0.257  10.889  21.150  0.00  0.00    +0.000 N 
ATOM      9  C   UNL     1      -0.782  10.247  22.355  0.00  0.00    +0.000 C 
ATOM     10  C   UNL     1       0.331   9.504  23.078  0.00  0.00    +0.000 C 
ATOM     11  C   UNL     1       0.946   8.460  22.152  0.00  0.00    +0.000 C 
ATOM     12  C   UNL     1       1.422   9.078  20.824  0.00  0.00    +0.000 C 
ATOM     13  C   UNL     1       0.336   9.964  20.177  0.00  0.00    +0.000 C 
ATOM     14  N   UNL     1       0.450  15.109  20.759  0.00  0.00    +0.000 NA
ATOM     15  O   UNL     1       0.496  16.350  20.170  0.00  0.00    +0.000 OA
ATOM     16  H   UNL     1      -0.026  12.317  19.108  0.00  0.00    +0.000 HD
ENDROOT
BRANCH  12  17
ATOM     17  C   UNL     1       1.817   7.985  19.895  0.00  0.00    +0.000 A 
ATOM     18  N   UNL     1       1.894   6.694  20.117  0.00  0.00    +0.000 NA
ATOM     19  C   UNL     1       2.434   6.219  18.941  0.00  0.00    +0.000 A 
ATOM     20  N   UNL     1       2.660   7.176  18.024  0.00  0.00    +0.000 NA
ATOM     21  O   UNL     1       2.254   8.349  18.657  0.00  0.00    +0.000 OA
BRANCH  19  22
ATOM     22  C   UNL     1       2.728   4.805  18.743  0.00  0.00    +0.000 A 
ATOM     23  C   UNL     1       2.088   4.067  17.733  0.00  0.00    +0.000 A 
ATOM     24  C   UNL     1       2.366   2.707  17.557  0.00  0.00    +0.000 A 
ATOM     25  C   UNL     1       3.286   2.075  18.389  0.00  0.00    +0.000 A 
ATOM     26  C   UNL     1       3.926   2.805  19.383  0.00  0.00    +0.000 A 
ATOM     27  F   UNL     1       4.810   2.195  20.182  0.00  0.00    +0.000 F 
ATOM     28  C   UNL     1       3.660   4.158  19.566  0.00  0.00    +0.000 A 
ENDBRANCH  19  22
ENDBRANCH  12  17
TORSDOF 2
ENDMDL
