MODEL 1
REMARK VINA RESULT:      -8.9      0.000      0.000
REMARK  Name = 
REMARK  4 active torsions:
REMARK  status: ('A' for Active; 'I' for Inactive)
REMARK    1  A    between atoms: C_2  and  C_16
REMARK    2  A    between atoms: N_3  and  C_4
REMARK    3  A    between atoms: C_7  and  N_8
REMARK    4  A    between atoms: C_20  and  N_21
REMARK                            x       y       z     vdW  Elec       q    Type
REMARK                         _______ _______ _______ _____ _____    ______ ____
ROOT
ATOM      1  O   UNL     1       1.710   8.385  19.129  0.00  0.00    +0.000 OA
ATOM      2  C   UNL     1       1.707   7.641  20.099  0.00  0.00    +0.000 C 
ATOM      3  N   UNL     1       1.183   7.912  21.351  0.00  0.00    +0.000 N 
ATOM      4  H   UNL     1       1.405   7.282  22.117  0.00  0.00    +0.000 HD
ENDROOT
BRANCH   3   5
ATOM      5  C   UNL     1       0.514   9.110  21.694  0.00  0.00    +0.000 A 
ATOM      6  C   UNL     1       0.684  10.289  20.975  0.00  0.00    +0.000 A 
ATOM      7  C   UNL     1       0.054  11.469  21.366  0.00  0.00    +0.000 A 
ATOM      8  C   UNL     1      -0.747  11.518  22.506  0.00  0.00    +0.000 A 
ATOM      9  C   UNL     1      -0.947  10.320  23.211  0.00  0.00    +0.000 A 
ATOM     10  C   UNL     1      -0.337   9.121  22.800  0.00  0.00    +0.000 A 
BRANCH   8  11
ATOM     11  N   UNL     1      -1.298  12.746  22.957  0.00  0.00    +0.000 N 
ATOM     12  C   UNL     1      -0.595  13.996  22.797  0.00  0.00    +0.000 C 
ATOM     13  C   UNL     1      -1.455  15.008  23.521  0.00  0.00    +0.000 C 
ATOM     14  C   UNL     1      -2.858  14.460  23.377  0.00  0.00    +0.000 C 
ATOM     15  C   UNL     1      -2.646  12.971  23.284  0.00  0.00    +0.000 C 
ATOM     16  O   UNL     1      -3.554  12.167  23.441  0.00  0.00    +0.000 OA
ENDBRANCH   8  11
ENDBRANCH   3   5
BRANCH   2  17
ATOM     17  C   UNL     1       2.425   6.353  19.946  0.00  0.00    +0.000 A 
ATOM     18  C   UNL     1       1.841   5.234  20.551  0.00  0.00    +0.000 A 
ATOM     19  C   UNL     1       2.468   4.000  20.468  0.00  0.00    +0.000 A 
ATOM     20  C   UNL     1       3.669   3.882  19.769  0.00  0.00    +0.000 A 
ATOM     21  C   UNL     1       4.270   4.987  19.140  0.00  0.00    +0.000 A 
ATOM     22  C   UNL     1       3.647   6.239  19.271  0.00  0.00    +0.000 A 
BRANCH  21  23
ATOM     23  N   UNL     1       5.450   4.816  18.357  0.00  0.00    +0.000 N 
ATOM     24  C   UNL     1       5.441   4.434  17.032  0.00  0.00    +0.000 C 
ATOM     25  O   UNL     1       4.491   4.220  16.291  0.00  0.00    +0.000 OA
ATOM     26  C   UNL     1       6.850   4.324  16.547  0.00  0.00    +0.000 C 
ATOM     27  C   UNL     1       7.652   5.043  17.602  0.00  0.00    +0.000 C 
ATOM     28  C   UNL     1       6.730   5.096  18.783  0.00  0.00    +0.000 C 
ATOM     29  O   UNL     1       7.126   5.379  19.907  0.00  0.00    +0.000 OA
ENDBRANCH  21  23
ENDBRANCH   2  17
TORSDOF 4
ENDMDL
MODEL 2
REMARK VINA RESULT:      -8.9      0.888      1.159
REMARK  Name = 
REMARK  4 active torsions:
REMARK  status: ('A' for Active; 'I' for Inactive)
REMARK    1  A    between atoms: C_2  and  C_16
REMARK    2  A    between atoms: N_3  and  C_4
REMARK    3  A    between atoms: C_7  and  N_8
REMARK    4  A    between atoms: C_20  and  N_21
REMARK                            x       y       z     vdW  Elec       q    Type
REMARK                         _______ _______ _______ _____ _____    ______ ____
ROOT
ATOM      1  O   UNL     1       1.876   8.496  19.198  0.00  0.00    +0.000 OA
ATOM      2  C   UNL     1       1.656   7.659  20.061  0.00  0.00    +0.000 C 
ATOM      3  N   UNL     1       0.899   7.828  21.208  0.00  0.00    +0.000 N 
ATOM      4  H   UNL     1       0.944   7.113  21.928  0.00  0.00    +0.000 HD
ENDROOT
BRANCH   3   5
ATOM      5  C   UNL     1       0.209   9.016  21.541  0.00  0.00    +0.000 A 
ATOM      6  C   UNL     1      -0.054  10.011  20.604  0.00  0.00    +0.000 A 
ATOM      7  C   UNL     1      -0.688  11.196  20.970  0.00  0.00    +0.000 A 
ATOM      8  C   UNL     1      -1.058  11.442  22.292  0.00  0.00    +0.000 A 
ATOM      9  C   UNL     1      -0.824  10.422  23.230  0.00  0.00    +0.000 A 
ATOM     10  C   UNL     1      -0.212   9.212  22.856  0.00  0.00    +0.000 A 
BRANCH   8  11
ATOM     11  N   UNL     1      -1.605  12.693  22.675  0.00  0.00    +0.000 N 
ATOM     12  C   UNL     1      -2.941  12.805  23.209  0.00  0.00    +0.000 C 
ATOM     13  C   UNL     1      -3.168  14.294  23.351  0.00  0.00    +0.000 C 
ATOM     14  C   UNL     1      -1.783  14.848  23.609  0.00  0.00    +0.000 C 
ATOM     15  C   UNL     1      -0.876  13.873  22.903  0.00  0.00    +0.000 C 
ATOM     16  O   UNL     1       0.291  14.130  22.647  0.00  0.00    +0.000 OA
ENDBRANCH   8  11
ENDBRANCH   3   5
BRANCH   2  17
ATOM     17  C   UNL     1       2.352   6.359  19.913  0.00  0.00    +0.000 A 
ATOM     18  C   UNL     1       1.746   5.250  20.513  0.00  0.00    +0.000 A 
ATOM     19  C   UNL     1       2.351   4.005  20.435  0.00  0.00    +0.000 A 
ATOM     20  C   UNL     1       3.555   3.866  19.743  0.00  0.00    +0.000 A 
ATOM     21  C   UNL     1       4.179   4.961  19.118  0.00  0.00    +0.000 A 
ATOM     22  C   UNL     1       3.576   6.224  19.245  0.00  0.00    +0.000 A 
BRANCH  21  23
ATOM     23  N   UNL     1       5.361   4.769  18.341  0.00  0.00    +0.000 N 
ATOM     24  C   UNL     1       5.353   4.365  17.024  0.00  0.00    +0.000 C 
ATOM     25  O   UNL     1       4.404   4.144  16.283  0.00  0.00    +0.000 OA
ATOM     26  C   UNL     1       6.764   4.238  16.546  0.00  0.00    +0.000 C 
ATOM     27  C   UNL     1       7.566   4.970  17.591  0.00  0.00    +0.000 C 
ATOM     28  C   UNL     1       6.640   5.049  18.767  0.00  0.00    +0.000 C 
ATOM     29  O   UNL     1       7.034   5.348  19.888  0.00  0.00    +0.000 OA
ENDBRANCH  21  23
ENDBRANCH   2  17
TORSDOF 4
ENDMDL
MODEL 3
REMARK VINA RESULT:      -8.8      0.888      1.434
REMARK  Name = 
REMARK  4 active torsions:
REMARK  status: ('A' for Active; 'I' for Inactive)
REMARK    1  A    between atoms: C_2  and  C_16
REMARK    2  A    between atoms: N_3  and  C_4
REMARK    3  A    between atoms: C_7  and  N_8
REMARK    4  A    between atoms: C_20  and  N_21
REMARK                            x       y       z     vdW  Elec       q    Type
REMARK                         _______ _______ _______ _____ _____    ______ ____
ROOT
ATOM      1  O   UNL     1       1.866   8.586  19.222  0.00  0.00    +0.000 OA
ATOM      2  C   UNL     1       1.647   7.756  20.093  0.00  0.00    +0.000 C 
ATOM      3  N   UNL     1       0.905   7.941  21.247  0.00  0.00    +0.000 N 
ATOM      4  H   UNL     1       0.952   7.231  21.972  0.00  0.00    +0.000 HD
ENDROOT
BRANCH   3   5
ATOM      5  C   UNL     1       0.231   9.138  21.580  0.00  0.00    +0.000 A 
ATOM      6  C   UNL     1      -0.140   9.445  22.885  0.00  0.00    +0.000 A 
ATOM      7  C   UNL     1      -0.851  10.606  23.179  0.00  0.00    +0.000 A 
ATOM      8  C   UNL     1      -1.240  11.491  22.173  0.00  0.00    +0.000 A 
ATOM      9  C   UNL     1      -0.834  11.198  20.861  0.00  0.00    +0.000 A 
ATOM     10  C   UNL     1      -0.090  10.042  20.566  0.00  0.00    +0.000 A 
BRANCH   8  11
ATOM     11  N   UNL     1      -2.054  12.615  22.467  0.00  0.00    +0.000 N 
ATOM     12  C   UNL     1      -3.494  12.541  22.421  0.00  0.00    +0.000 C 
ATOM     13  C   UNL     1      -3.954  13.962  22.661  0.00  0.00    +0.000 C 
ATOM     14  C   UNL     1      -2.867  14.552  23.534  0.00  0.00    +0.000 C 
ATOM     15  C   UNL     1      -1.636  13.781  23.132  0.00  0.00    +0.000 C 
ATOM     16  O   UNL     1      -0.506  14.156  23.411  0.00  0.00    +0.000 OA
ENDBRANCH   8  11
ENDBRANCH   3   5
BRANCH   2  17
ATOM     17  C   UNL     1       2.329   6.448  19.946  0.00  0.00    +0.000 A 
ATOM     18  C   UNL     1       1.713   5.348  20.553  0.00  0.00    +0.000 A 
ATOM     19  C   UNL     1       2.305   4.096  20.476  0.00  0.00    +0.000 A 
ATOM     20  C   UNL     1       3.504   3.943  19.780  0.00  0.00    +0.000 A 
ATOM     21  C   UNL     1       4.137   5.028  19.148  0.00  0.00    +0.000 A 
ATOM     22  C   UNL     1       3.549   6.298  19.273  0.00  0.00    +0.000 A 
BRANCH  21  23
ATOM     23  N   UNL     1       5.313   4.821  18.367  0.00  0.00    +0.000 N 
ATOM     24  C   UNL     1       5.295   4.415  17.050  0.00  0.00    +0.000 C 
ATOM     25  O   UNL     1       4.341   4.203  16.313  0.00  0.00    +0.000 OA
ATOM     26  C   UNL     1       6.702   4.271  16.566  0.00  0.00    +0.000 C 
ATOM     27  C   UNL     1       7.517   4.995  17.607  0.00  0.00    +0.000 C 
ATOM     28  C   UNL     1       6.598   5.087  18.787  0.00  0.00    +0.000 C 
ATOM     29  O   UNL     1       7.000   5.384  19.905  0.00  0.00    +0.000 OA
ENDBRANCH  21  23
ENDBRANCH   2  17
TORSDOF 4
ENDMDL
MODEL 4
REMARK VINA RESULT:      -8.8      0.457      1.505
REMARK  Name = 
REMARK  4 active torsions:
REMARK  status: ('A' for Active; 'I' for Inactive)
REMARK    1  A    between atoms: C_2  and  C_16
REMARK    2  A    between atoms: N_3  and  C_4
REMARK    3  A    between atoms: C_7  and  N_8
REMARK    4  A    between atoms: C_20  and  N_21
REMARK                            x       y       z     vdW  Elec       q    Type
REMARK                         _______ _______ _______ _____ _____    ______ ____
ROOT
ATOM      1  O   UNL     1       1.885   8.637  19.262  0.00  0.00    +0.000 OA
ATOM      2  C   UNL     1       1.641   7.766  20.085  0.00  0.00    +0.000 C 
ATOM      3  N   UNL     1       0.842   7.887  21.209  0.00  0.00    +0.000 N 
ATOM      4  H   UNL     1       0.867   7.146  21.903  0.00  0.00    +0.000 HD
ENDROOT
BRANCH   3   5
ATOM      5  C   UNL     1       0.132   9.058  21.561  0.00  0.00    +0.000 A 
ATOM      6  C   UNL     1      -0.230  10.019  20.622  0.00  0.00    +0.000 A 
ATOM      7  C   UNL     1      -0.882  11.189  21.003  0.00  0.00    +0.000 A 
ATOM      8  C   UNL     1      -1.172  11.454  22.341  0.00  0.00    +0.000 A 
ATOM      9  C   UNL     1      -0.838  10.468  23.283  0.00  0.00    +0.000 A 
ATOM     10  C   UNL     1      -0.208   9.271  22.897  0.00  0.00    +0.000 A 
BRANCH   8  11
ATOM     11  N   UNL     1      -1.740  12.694  22.732  0.00  0.00    +0.000 N 
ATOM     12  C   UNL     1      -0.935  13.881  22.888  0.00  0.00    +0.000 C 
ATOM     13  C   UNL     1      -1.892  14.917  23.435  0.00  0.00    +0.000 C 
ATOM     14  C   UNL     1      -3.232  14.513  22.859  0.00  0.00    +0.000 C 
ATOM     15  C   UNL     1      -3.107  13.020  22.692  0.00  0.00    +0.000 C 
ATOM     16  O   UNL     1      -4.076  12.296  22.517  0.00  0.00    +0.000 OA
ENDBRANCH   8  11
ENDBRANCH   3   5
BRANCH   2  17
ATOM     17  C   UNL     1       2.352   6.477  19.913  0.00  0.00    +0.000 A 
ATOM     18  C   UNL     1       1.769   5.354  20.510  0.00  0.00    +0.000 A 
ATOM     19  C   UNL     1       2.389   4.118  20.411  0.00  0.00    +0.000 A 
ATOM     20  C   UNL     1       3.585   4.002  19.701  0.00  0.00    +0.000 A 
ATOM     21  C   UNL     1       4.185   5.112  19.079  0.00  0.00    +0.000 A 
ATOM     22  C   UNL     1       3.568   6.365  19.227  0.00  0.00    +0.000 A 
BRANCH  21  23
ATOM     23  N   UNL     1       5.359   4.943  18.284  0.00  0.00    +0.000 N 
ATOM     24  C   UNL     1       6.640   5.104  18.768  0.00  0.00    +0.000 C 
ATOM     25  O   UNL     1       7.016   5.361  19.904  0.00  0.00    +0.000 OA
ATOM     26  C   UNL     1       7.612   4.883  17.654  0.00  0.00    +0.000 C 
ATOM     27  C   UNL     1       6.788   4.213  16.584  0.00  0.00    +0.000 C 
ATOM     28  C   UNL     1       5.373   4.514  16.976  0.00  0.00    +0.000 C 
ATOM     29  O   UNL     1       4.435   4.349  16.206  0.00  0.00    +0.000 OA
ENDBRANCH  21  23
ENDBRANCH   2  17
TORSDOF 4
ENDMDL
MODEL 5
REMARK VINA RESULT:      -8.7      0.874      2.031
REMARK  Name = 
REMARK  4 active torsions:
REMARK  status: ('A' for Active; 'I' for Inactive)
REMARK    1  A    between atoms: C_2  and  C_16
REMARK    2  A    between atoms: N_3  and  C_4
REMARK    3  A    between atoms: C_7  and  N_8
REMARK    4  A    between atoms: C_20  and  N_21
REMARK                            x       y       z     vdW  Elec       q    Type
REMARK                         _______ _______ _______ _____ _____    ______ ____
ROOT
ATOM      1  O   UNL     1       1.977   8.661  19.311  0.00  0.00    +0.000 OA
ATOM      2  C   UNL     1       1.720   7.778  20.116  0.00  0.00    +0.000 C 
ATOM      3  N   UNL     1       0.950   7.896  21.261  0.00  0.00    +0.000 N 
ATOM      4  H   UNL     1       0.964   7.136  21.935  0.00  0.00    +0.000 HD
ENDROOT
BRANCH   3   5
ATOM      5  C   UNL     1       0.288   9.080  21.658  0.00  0.00    +0.000 A 
ATOM      6  C   UNL     1      -0.103   9.308  22.975  0.00  0.00    +0.000 A 
ATOM      7  C   UNL     1      -0.801  10.459  23.330  0.00  0.00    +0.000 A 
ATOM      8  C   UNL     1      -1.159  11.413  22.378  0.00  0.00    +0.000 A 
ATOM      9  C   UNL     1      -0.734  11.199  21.056  0.00  0.00    +0.000 A 
ATOM     10  C   UNL     1      -0.001  10.053  20.701  0.00  0.00    +0.000 A 
BRANCH   8  11
ATOM     11  N   UNL     1      -1.961  12.529  22.730  0.00  0.00    +0.000 N 
ATOM     12  C   UNL     1      -3.368  12.391  23.016  0.00  0.00    +0.000 C 
ATOM     13  C   UNL     1      -3.857  13.810  23.205  0.00  0.00    +0.000 C 
ATOM     14  C   UNL     1      -2.646  14.540  23.747  0.00  0.00    +0.000 C 
ATOM     15  C   UNL     1      -1.485  13.780  23.160  0.00  0.00    +0.000 C 
ATOM     16  O   UNL     1      -0.349  14.231  23.138  0.00  0.00    +0.000 OA
ENDBRANCH   8  11
ENDBRANCH   3   5
BRANCH   2  17
ATOM     17  C   UNL     1       2.382   6.470  19.896  0.00  0.00    +0.000 A 
ATOM     18  C   UNL     1       1.744   5.346  20.430  0.00  0.00    +0.000 A 
ATOM     19  C   UNL     1       2.317   4.091  20.282  0.00  0.00    +0.000 A 
ATOM     20  C   UNL     1       3.519   3.961  19.588  0.00  0.00    +0.000 A 
ATOM     21  C   UNL     1       4.175   5.072  19.029  0.00  0.00    +0.000 A 
ATOM     22  C   UNL     1       3.606   6.341  19.226  0.00  0.00    +0.000 A 
BRANCH  21  23
ATOM     23  N   UNL     1       5.356   4.894  18.247  0.00  0.00    +0.000 N 
ATOM     24  C   UNL     1       6.632   5.055  18.741  0.00  0.00    +0.000 C 
ATOM     25  O   UNL     1       6.999   5.321  19.879  0.00  0.00    +0.000 OA
ATOM     26  C   UNL     1       7.614   4.822  17.639  0.00  0.00    +0.000 C 
ATOM     27  C   UNL     1       6.799   4.145  16.567  0.00  0.00    +0.000 C 
ATOM     28  C   UNL     1       5.381   4.453  16.943  0.00  0.00    +0.000 C 
ATOM     29  O   UNL     1       4.450   4.285  16.165  0.00  0.00    +0.000 OA
ENDBRANCH  21  23
ENDBRANCH   2  17
TORSDOF 4
ENDMDL
MODEL 6
REMARK VINA RESULT:      -8.7      1.362      1.624
REMARK  Name = 
REMARK  4 active torsions:
REMARK  status: ('A' for Active; 'I' for Inactive)
REMARK    1  A    between atoms: C_2  and  C_16
REMARK    2  A    between atoms: N_3  and  C_4
REMARK    3  A    between atoms: C_7  and  N_8
REMARK    4  A    between atoms: C_20  and  N_21
REMARK                            x       y       z     vdW  Elec       q    Type
REMARK                         _______ _______ _______ _____ _____    ______ ____
ROOT
ATOM      1  O   UNL     1       0.302   5.840  20.710  0.00  0.00    +0.000 OA
ATOM      2  C   UNL     1       1.473   6.186  20.660  0.00  0.00    +0.000 C 
ATOM      3  N   UNL     1       1.967   7.470  20.816  0.00  0.00    +0.000 N 
ATOM      4  H   UNL     1       2.937   7.649  20.572  0.00  0.00    +0.000 HD
ENDROOT
BRANCH   3   5
ATOM      5  C   UNL     1       1.171   8.600  21.110  0.00  0.00    +0.000 A 
ATOM      6  C   UNL     1       0.844   9.550  20.146  0.00  0.00    +0.000 A 
ATOM      7  C   UNL     1       0.103  10.684  20.474  0.00  0.00    +0.000 A 
ATOM      8  C   UNL     1      -0.315  10.922  21.783  0.00  0.00    +0.000 A 
ATOM      9  C   UNL     1      -0.015   9.946  22.747  0.00  0.00    +0.000 A 
ATOM     10  C   UNL     1       0.706   8.785  22.412  0.00  0.00    +0.000 A 
BRANCH   8  11
ATOM     11  N   UNL     1      -0.976  12.129  22.127  0.00  0.00    +0.000 N 
ATOM     12  C   UNL     1      -2.325  12.136  22.640  0.00  0.00    +0.000 C 
ATOM     13  C   UNL     1      -2.683  13.602  22.742  0.00  0.00    +0.000 C 
ATOM     14  C   UNL     1      -1.356  14.281  23.007  0.00  0.00    +0.000 C 
ATOM     15  C   UNL     1      -0.356  13.374  22.338  0.00  0.00    +0.000 C 
ATOM     16  O   UNL     1       0.788  13.726  22.092  0.00  0.00    +0.000 OA
ENDBRANCH   8  11
ENDBRANCH   3   5
BRANCH   2  17
ATOM     17  C   UNL     1       2.457   5.137  20.297  0.00  0.00    +0.000 A 
ATOM     18  C   UNL     1       2.181   3.839  20.739  0.00  0.00    +0.000 A 
ATOM     19  C   UNL     1       3.067   2.811  20.457  0.00  0.00    +0.000 A 
ATOM     20  C   UNL     1       4.221   3.078  19.720  0.00  0.00    +0.000 A 
ATOM     21  C   UNL     1       4.516   4.371  19.251  0.00  0.00    +0.000 A 
ATOM     22  C   UNL     1       3.631   5.411  19.584  0.00  0.00    +0.000 A 
BRANCH  21  23
ATOM     23  N   UNL     1       5.656   4.595  18.423  0.00  0.00    +0.000 N 
ATOM     24  C   UNL     1       5.681   4.338  17.069  0.00  0.00    +0.000 C 
ATOM     25  O   UNL     1       4.786   3.936  16.337  0.00  0.00    +0.000 OA
ATOM     26  C   UNL     1       7.041   4.658  16.538  0.00  0.00    +0.000 C 
ATOM     27  C   UNL     1       7.673   5.476  17.635  0.00  0.00    +0.000 C 
ATOM     28  C   UNL     1       6.834   5.176  18.839  0.00  0.00    +0.000 C 
ATOM     29  O   UNL     1       7.197   5.460  19.974  0.00  0.00    +0.000 OA
ENDBRANCH  21  23
ENDBRANCH   2  17
TORSDOF 4
ENDMDL
MODEL 7
REMARK VINA RESULT:      -8.7      0.745      1.815
REMARK  Name = 
REMARK  4 active torsions:
REMARK  status: ('A' for Active; 'I' for Inactive)
REMARK    1  A    between atoms: C_2  and  C_16
REMARK    2  A    between atoms: N_3  and  C_4
REMARK    3  A    between atoms: C_7  and  N_8
REMARK    4  A    between atoms: C_20  and  N_21
REMARK                            x       y       z     vdW  Elec       q    Type
REMARK                         _______ _______ _______ _____ _____    ______ ____
ROOT
ATOM      1  O   UNL     1       1.892   8.727  19.208  0.00  0.00    +0.000 OA
ATOM      2  C   UNL     1       1.647   7.885  20.060  0.00  0.00    +0.000 C 
ATOM      3  N   UNL     1       0.865   8.052  21.190  0.00  0.00    +0.000 N 
ATOM      4  H   UNL     1       0.890   7.332  21.907  0.00  0.00    +0.000 HD
ENDROOT
BRANCH   3   5
ATOM      5  C   UNL     1       0.177   9.243  21.516  0.00  0.00    +0.000 A 
ATOM      6  C   UNL     1      -0.090   9.612  22.831  0.00  0.00    +0.000 A 
ATOM      7  C   UNL     1      -0.817  10.764  23.123  0.00  0.00    +0.000 A 
ATOM      8  C   UNL     1      -1.328  11.574  22.110  0.00  0.00    +0.000 A 
ATOM      9  C   UNL     1      -1.029  11.220  20.784  0.00  0.00    +0.000 A 
ATOM     10  C   UNL     1      -0.268  10.075  20.488  0.00  0.00    +0.000 A 
BRANCH   8  11
ATOM     11  N   UNL     1      -2.157  12.685  22.414  0.00  0.00    +0.000 N 
ATOM     12  C   UNL     1      -2.099  13.907  21.649  0.00  0.00    +0.000 C 
ATOM     13  C   UNL     1      -3.025  14.854  22.379  0.00  0.00    +0.000 C 
ATOM     14  C   UNL     1      -4.062  13.942  22.998  0.00  0.00    +0.000 C 
ATOM     15  C   UNL     1      -3.311  12.653  23.216  0.00  0.00    +0.000 C 
ATOM     16  O   UNL     1      -3.726  11.768  23.950  0.00  0.00    +0.000 OA
ENDBRANCH   8  11
ENDBRANCH   3   5
BRANCH   2  17
ATOM     17  C   UNL     1       2.337   6.581  19.918  0.00  0.00    +0.000 A 
ATOM     18  C   UNL     1       1.743   5.485  20.552  0.00  0.00    +0.000 A 
ATOM     19  C   UNL     1       2.344   4.237  20.482  0.00  0.00    +0.000 A 
ATOM     20  C   UNL     1       3.531   4.083  19.765  0.00  0.00    +0.000 A 
ATOM     21  C   UNL     1       4.142   5.165  19.105  0.00  0.00    +0.000 A 
ATOM     22  C   UNL     1       3.545   6.432  19.224  0.00  0.00    +0.000 A 
BRANCH  21  23
ATOM     23  N   UNL     1       5.305   4.958  18.305  0.00  0.00    +0.000 N 
ATOM     24  C   UNL     1       6.592   5.095  18.777  0.00  0.00    +0.000 C 
ATOM     25  O   UNL     1       6.984   5.361  19.906  0.00  0.00    +0.000 OA
ATOM     26  C   UNL     1       7.550   4.835  17.659  0.00  0.00    +0.000 C 
ATOM     27  C   UNL     1       6.703   4.167  16.607  0.00  0.00    +0.000 C 
ATOM     28  C   UNL     1       5.299   4.507  17.004  0.00  0.00    +0.000 C 
ATOM     29  O   UNL     1       4.351   4.353  16.244  0.00  0.00    +0.000 OA
ENDBRANCH  21  23
ENDBRANCH   2  17
TORSDOF 4
ENDMDL
MODEL 8
REMARK VINA RESULT:      -8.7      1.922      3.215
REMARK  Name = 
REMARK  4 active torsions:
REMARK  status: ('A' for Active; 'I' for Inactive)
REMARK    1  A    between atoms: C_2  and  C_16
REMARK    2  A    between atoms: N_3  and  C_4
REMARK    3  A    between atoms: C_7  and  N_8
REMARK    4  A    between atoms: C_20  and  N_21
REMARK                            x       y       z     vdW  Elec       q    Type
REMARK                         _______ _______ _______ _____ _____    ______ ____
ROOT
ATOM      1  O   UNL     1       0.962   9.330  18.216  0.00  0.00    +0.000 OA
ATOM      2  C   UNL     1       1.557   8.622  19.016  0.00  0.00    +0.000 C 
ATOM      3  N   UNL     1       1.540   8.735  20.396  0.00  0.00    +0.000 N 
ATOM      4  H   UNL     1       2.216   8.201  20.934  0.00  0.00    +0.000 HD
ENDROOT
BRANCH   3   5
ATOM      5  C   UNL     1       0.775   9.686  21.110  0.00  0.00    +0.000 A 
ATOM      6  C   UNL     1       0.075   9.359  22.267  0.00  0.00    +0.000 A 
ATOM      7  C   UNL     1      -0.715  10.302  22.922  0.00  0.00    +0.000 A 
ATOM      8  C   UNL     1      -0.854  11.599  22.428  0.00  0.00    +0.000 A 
ATOM      9  C   UNL     1      -0.119  11.937  21.280  0.00  0.00    +0.000 A 
ATOM     10  C   UNL     1       0.703  10.996  20.635  0.00  0.00    +0.000 A 
BRANCH   8  11
ATOM     11  N   UNL     1      -1.743  12.520  23.041  0.00  0.00    +0.000 N 
ATOM     12  C   UNL     1      -3.033  12.111  23.540  0.00  0.00    +0.000 C 
ATOM     13  C   UNL     1      -3.695  13.399  23.977  0.00  0.00    +0.000 C 
ATOM     14  C   UNL     1      -2.535  14.279  24.391  0.00  0.00    +0.000 C 
ATOM     15  C   UNL     1      -1.398  13.791  23.532  0.00  0.00    +0.000 C 
ATOM     16  O   UNL     1      -0.371  14.435  23.375  0.00  0.00    +0.000 OA
ENDBRANCH   8  11
ENDBRANCH   3   5
BRANCH   2  17
ATOM     17  C   UNL     1       2.466   7.600  18.446  0.00  0.00    +0.000 A 
ATOM     18  C   UNL     1       3.466   8.061  17.584  0.00  0.00    +0.000 A 
ATOM     19  C   UNL     1       4.340   7.159  16.995  0.00  0.00    +0.000 A 
ATOM     20  C   UNL     1       4.222   5.799  17.281  0.00  0.00    +0.000 A 
ATOM     21  C   UNL     1       3.235   5.309  18.155  0.00  0.00    +0.000 A 
ATOM     22  C   UNL     1       2.329   6.230  18.708  0.00  0.00    +0.000 A 
BRANCH  21  23
ATOM     23  N   UNL     1       3.198   3.925  18.498  0.00  0.00    +0.000 N 
ATOM     24  C   UNL     1       4.235   3.263  19.120  0.00  0.00    +0.000 C 
ATOM     25  O   UNL     1       5.307   3.697  19.519  0.00  0.00    +0.000 OA
ATOM     26  C   UNL     1       3.862   1.826  19.292  0.00  0.00    +0.000 C 
ATOM     27  C   UNL     1       2.373   1.810  19.056  0.00  0.00    +0.000 C 
ATOM     28  C   UNL     1       2.106   3.100  18.343  0.00  0.00    +0.000 C 
ATOM     29  O   UNL     1       1.049   3.318  17.763  0.00  0.00    +0.000 OA
ENDBRANCH  21  23
ENDBRANCH   2  17
TORSDOF 4
ENDMDL
MODEL 9
REMARK VINA RESULT:      -8.7      6.497      8.703
REMARK  Name = 
REMARK  4 active torsions:
REMARK  status: ('A' for Active; 'I' for Inactive)
REMARK    1  A    between atoms: C_2  and  C_16
REMARK    2  A    between atoms: N_3  and  C_4
REMARK    3  A    between atoms: C_7  and  N_8
REMARK    4  A    between atoms: C_20  and  N_21
REMARK                            x       y       z     vdW  Elec       q    Type
REMARK                         _______ _______ _______ _____ _____    ______ ____
ROOT
ATOM      1  O   UNL     1       8.519   6.854  19.008  0.00  0.00    +0.000 OA
ATOM      2  C   UNL     1       7.716   7.194  18.150  0.00  0.00    +0.000 C 
ATOM      3  N   UNL     1       7.513   8.474  17.665  0.00  0.00    +0.000 N 
ATOM      4  H   UNL     1       6.696   8.650  17.088  0.00  0.00    +0.000 HD
ENDROOT
BRANCH   3   5
ATOM      5  C   UNL     1       8.256   9.608  18.068  0.00  0.00    +0.000 A 
ATOM      6  C   UNL     1       9.137   9.575  19.145  0.00  0.00    +0.000 A 
ATOM      7  C   UNL     1       9.817  10.720  19.555  0.00  0.00    +0.000 A 
ATOM      8  C   UNL     1       9.619  11.946  18.921  0.00  0.00    +0.000 A 
ATOM      9  C   UNL     1       8.756  11.970  17.813  0.00  0.00    +0.000 A 
ATOM     10  C   UNL     1       8.093  10.809  17.377  0.00  0.00    +0.000 A 
BRANCH   8  11
ATOM     11  N   UNL     1      10.233  13.127  19.412  0.00  0.00    +0.000 N 
ATOM     12  C   UNL     1      10.142  13.508  20.800  0.00  0.00    +0.000 C 
ATOM     13  C   UNL     1      10.802  14.868  20.863  0.00  0.00    +0.000 C 
ATOM     14  C   UNL     1      11.833  14.822  19.755  0.00  0.00    +0.000 C 
ATOM     15  C   UNL     1      11.232  13.867  18.756  0.00  0.00    +0.000 C 
ATOM     16  O   UNL     1      11.632  13.785  17.604  0.00  0.00    +0.000 OA
ENDBRANCH   8  11
ENDBRANCH   3   5
BRANCH   2  17
ATOM     17  C   UNL     1       6.799   6.142  17.649  0.00  0.00    +0.000 A 
ATOM     18  C   UNL     1       7.058   5.643  16.369  0.00  0.00    +0.000 A 
ATOM     19  C   UNL     1       6.228   4.673  15.825  0.00  0.00    +0.000 A 
ATOM     20  C   UNL     1       5.150   4.193  16.569  0.00  0.00    +0.000 A 
ATOM     21  C   UNL     1       4.876   4.667  17.864  0.00  0.00    +0.000 A 
ATOM     22  C   UNL     1       5.698   5.682  18.383  0.00  0.00    +0.000 A 
BRANCH  21  23
ATOM     23  N   UNL     1       3.821   4.091  18.634  0.00  0.00    +0.000 N 
ATOM     24  C   UNL     1       2.501   4.472  18.528  0.00  0.00    +0.000 C 
ATOM     25  O   UNL     1       1.984   5.290  17.778  0.00  0.00    +0.000 OA
ATOM     26  C   UNL     1       1.687   3.683  19.503  0.00  0.00    +0.000 C 
ATOM     27  C   UNL     1       2.601   2.555  19.905  0.00  0.00    +0.000 C 
ATOM     28  C   UNL     1       3.963   3.031  19.501  0.00  0.00    +0.000 C 
ATOM     29  O   UNL     1       4.987   2.492  19.901  0.00  0.00    +0.000 OA
ENDBRANCH  21  23
ENDBRANCH   2  17
TORSDOF 4
ENDMDL
