MODEL 1
REMARK VINA RESULT:      -8.9      0.000      0.000
REMARK  Name = 
REMARK  4 active torsions:
REMARK  status: ('A' for Active; 'I' for Inactive)
REMARK    1  A    between atoms: C_5  and  C_6
REMARK    2  A    between atoms: C_9  and  C_10
REMARK    3  A    between atoms: C_10  and  N_11
REMARK    4  A    between atoms: C_14  and  C_15
REMARK                            x       y       z     vdW  Elec       q    Type
REMARK                         _______ _______ _______ _____ _____    ______ ____
ROOT
ATOM      1  N   UNL     1       0.818   9.698  19.275  0.00  0.00    +0.000 NA
ATOM      2  C   UNL     1       1.381   9.623  17.915  0.00  0.00    +0.000 C 
ATOM      3  C   UNL     1       2.171   8.399  17.575  0.00  0.00    +0.000 C 
ATOM      4  C   UNL     1       2.388   7.390  18.431  0.00  0.00    +0.000 C 
ATOM      5  C   UNL     1       1.809   7.430  19.813  0.00  0.00    +0.000 C 
ATOM      6  C   UNL     1       1.540   8.873  20.261  0.00  0.00    +0.000 C 
ENDROOT
BRANCH   4   7
ATOM      7  C   UNL     1       3.192   6.254  18.138  0.00  0.00    +0.000 A 
ATOM      8  C   UNL     1       4.520   6.313  17.783  0.00  0.00    +0.000 A 
ATOM      9  N   UNL     1       4.944   5.032  17.557  0.00  0.00    +0.000 N 
ATOM     10  C   UNL     1       3.912   4.140  17.754  0.00  0.00    +0.000 A 
ATOM     11  C   UNL     1       3.884   2.747  17.621  0.00  0.00    +0.000 A 
ATOM     12  C   UNL     1       2.680   2.093  17.897  0.00  0.00    +0.000 A 
ATOM     13  C   UNL     1       1.554   2.803  18.307  0.00  0.00    +0.000 A 
ATOM     14  C   UNL     1       1.598   4.196  18.436  0.00  0.00    +0.000 A 
ATOM     15  C   UNL     1       2.796   4.884  18.148  0.00  0.00    +0.000 A 
ATOM     16  H   UNL     1       5.876   4.768  17.274  0.00  0.00    +0.000 HD
ENDBRANCH   4   7
BRANCH   1  17
ATOM     17  C   UNL     1       0.804  11.102  19.755  0.00  0.00    +0.000 C 
BRANCH  17  21
ATOM     18  C   UNL     1      -1.678  11.904  22.192  0.00  0.00    +0.000 A 
ATOM     19  N   UNL     1      -0.627  11.748  23.010  0.00  0.00    +0.000 NA
ATOM     20  O   UNL     1       0.412  11.389  22.150  0.00  0.00    +0.000 OA
ATOM     21  C   UNL     1      -0.120  11.370  20.894  0.00  0.00    +0.000 A 
ATOM     22  N   UNL     1      -1.399  11.667  20.865  0.00  0.00    +0.000 NA
BRANCH  18  27
ATOM     23  F   UNL     1      -6.784  13.461  23.871  0.00  0.00    +0.000 F 
ATOM     24  C   UNL     1      -5.560  13.100  23.466  0.00  0.00    +0.000 A 
ATOM     25  C   UNL     1      -5.227  13.198  22.123  0.00  0.00    +0.000 A 
ATOM     26  C   UNL     1      -3.950  12.816  21.695  0.00  0.00    +0.000 A 
ATOM     27  C   UNL     1      -3.009  12.335  22.620  0.00  0.00    +0.000 A 
ATOM     28  C   UNL     1      -3.369  12.248  23.973  0.00  0.00    +0.000 A 
ATOM     29  C   UNL     1      -4.646  12.631  24.397  0.00  0.00    +0.000 A 
ENDBRANCH  18  27
ENDBRANCH  17  21
ENDBRANCH   1  17
TORSDOF 4
ENDMDL
MODEL 2
REMARK VINA RESULT:      -8.8      4.496     10.638
REMARK  Name = 
REMARK  4 active torsions:
REMARK  status: ('A' for Active; 'I' for Inactive)
REMARK    1  A    between atoms: C_5  and  C_6
REMARK    2  A    between atoms: C_9  and  C_10
REMARK    3  A    between atoms: C_10  and  N_11
REMARK    4  A    between atoms: C_14  and  C_15
REMARK                            x       y       z     vdW  Elec       q    Type
REMARK                         _______ _______ _______ _____ _____    ______ ____
ROOT
ATOM      1  N   UNL     1      -0.403  10.254  18.702  0.00  0.00    +0.000 NA
ATOM      2  C   UNL     1      -0.830  11.488  19.387  0.00  0.00    +0.000 C 
ATOM      3  C   UNL     1      -2.244  11.927  19.171  0.00  0.00    +0.000 C 
ATOM      4  C   UNL     1      -3.120  11.269  18.398  0.00  0.00    +0.000 C 
ATOM      5  C   UNL     1      -2.718  10.001  17.706  0.00  0.00    +0.000 C 
ATOM      6  C   UNL     1      -1.199   9.937  17.501  0.00  0.00    +0.000 C 
ENDROOT
BRANCH   4   7
ATOM      7  C   UNL     1      -4.444  11.715  18.134  0.00  0.00    +0.000 A 
ATOM      8  C   UNL     1      -5.012  11.765  16.881  0.00  0.00    +0.000 A 
ATOM      9  N   UNL     1      -6.277  12.268  17.021  0.00  0.00    +0.000 N 
ATOM     10  C   UNL     1      -6.540  12.551  18.344  0.00  0.00    +0.000 A 
ATOM     11  C   UNL     1      -7.685  13.090  18.942  0.00  0.00    +0.000 A 
ATOM     12  C   UNL     1      -7.672  13.266  20.329  0.00  0.00    +0.000 A 
ATOM     13  C   UNL     1      -6.564  12.899  21.089  0.00  0.00    +0.000 A 
ATOM     14  C   UNL     1      -5.426  12.360  20.476  0.00  0.00    +0.000 A 
ATOM     15  C   UNL     1      -5.406  12.188  19.076  0.00  0.00    +0.000 A 
ATOM     16  H   UNL     1      -6.929  12.423  16.267  0.00  0.00    +0.000 HD
ENDBRANCH   4   7
BRANCH   1  17
ATOM     17  C   UNL     1       1.025  10.346  18.310  0.00  0.00    +0.000 C 
BRANCH  17  21
ATOM     18  C   UNL     1       2.892   7.307  18.172  0.00  0.00    +0.000 A 
ATOM     19  N   UNL     1       2.431   7.209  19.427  0.00  0.00    +0.000 NA
ATOM     20  O   UNL     1       1.703   8.387  19.604  0.00  0.00    +0.000 OA
ATOM     21  C   UNL     1       1.796   9.075  18.431  0.00  0.00    +0.000 A 
ATOM     22  N   UNL     1       2.522   8.463  17.523  0.00  0.00    +0.000 NA
BRANCH  18  27
ATOM     23  F   UNL     1       5.885   3.418  15.484  0.00  0.00    +0.000 F 
ATOM     24  C   UNL     1       5.173   4.344  16.137  0.00  0.00    +0.000 A 
ATOM     25  C   UNL     1       4.125   3.949  16.956  0.00  0.00    +0.000 A 
ATOM     26  C   UNL     1       3.375   4.915  17.637  0.00  0.00    +0.000 A 
ATOM     27  C   UNL     1       3.680   6.278  17.492  0.00  0.00    +0.000 A 
ATOM     28  C   UNL     1       4.745   6.652  16.660  0.00  0.00    +0.000 A 
ATOM     29  C   UNL     1       5.494   5.684  15.982  0.00  0.00    +0.000 A 
ENDBRANCH  18  27
ENDBRANCH  17  21
ENDBRANCH   1  17
TORSDOF 4
ENDMDL
MODEL 3
REMARK VINA RESULT:      -8.5      5.209     10.964
REMARK  Name = 
REMARK  4 active torsions:
REMARK  status: ('A' for Active; 'I' for Inactive)
REMARK    1  A    between atoms: C_5  and  C_6
REMARK    2  A    between atoms: C_9  and  C_10
REMARK    3  A    between atoms: C_10  and  N_11
REMARK    4  A    between atoms: C_14  and  C_15
REMARK                            x       y       z     vdW  Elec       q    Type
REMARK                         _______ _______ _______ _____ _____    ______ ____
ROOT
ATOM      1  N   UNL     1       2.959   6.704  19.468  0.00  0.00    +0.000 NA
ATOM      2  C   UNL     1       2.754   7.590  18.308  0.00  0.00    +0.000 C 
ATOM      3  C   UNL     1       1.804   8.732  18.488  0.00  0.00    +0.000 C 
ATOM      4  C   UNL     1       1.143   8.980  19.628  0.00  0.00    +0.000 C 
ATOM      5  C   UNL     1       1.350   8.107  20.830  0.00  0.00    +0.000 C 
ATOM      6  C   UNL     1       1.837   6.710  20.425  0.00  0.00    +0.000 C 
ENDROOT
BRANCH   4   7
ATOM      7  C   UNL     1       0.190  10.022  19.787  0.00  0.00    +0.000 A 
ATOM      8  C   UNL     1       0.152  10.885  20.859  0.00  0.00    +0.000 A 
ATOM      9  N   UNL     1      -0.910  11.727  20.675  0.00  0.00    +0.000 N 
ATOM     10  C   UNL     1      -1.569  11.424  19.503  0.00  0.00    +0.000 A 
ATOM     11  C   UNL     1      -2.706  12.003  18.930  0.00  0.00    +0.000 A 
ATOM     12  C   UNL     1      -3.156  11.486  17.712  0.00  0.00    +0.000 A 
ATOM     13  C   UNL     1      -2.482  10.442  17.083  0.00  0.00    +0.000 A 
ATOM     14  C   UNL     1      -1.345   9.872  17.669  0.00  0.00    +0.000 A 
ATOM     15  C   UNL     1      -0.880  10.364  18.906  0.00  0.00    +0.000 A 
ATOM     16  H   UNL     1      -1.187  12.462  21.308  0.00  0.00    +0.000 HD
ENDBRANCH   4   7
BRANCH   1  17
ATOM     17  C   UNL     1       3.191   5.308  19.021  0.00  0.00    +0.000 C 
BRANCH  17  21
ATOM     18  C   UNL     1       5.671   4.794  16.506  0.00  0.00    +0.000 A 
ATOM     19  N   UNL     1       6.446   4.659  17.592  0.00  0.00    +0.000 NA
ATOM     20  O   UNL     1       5.569   4.882  18.654  0.00  0.00    +0.000 OA
ATOM     21  C   UNL     1       4.347   5.124  18.099  0.00  0.00    +0.000 A 
ATOM     22  N   UNL     1       4.357   5.093  16.786  0.00  0.00    +0.000 NA
BRANCH  18  27
ATOM     23  F   UNL     1       7.410   3.950  11.255  0.00  0.00    +0.000 F 
ATOM     24  C   UNL     1       6.992   4.163  12.509  0.00  0.00    +0.000 A 
ATOM     25  C   UNL     1       7.737   4.978  13.349  0.00  0.00    +0.000 A 
ATOM     26  C   UNL     1       7.307   5.200  14.662  0.00  0.00    +0.000 A 
ATOM     27  C   UNL     1       6.126   4.600  15.129  0.00  0.00    +0.000 A 
ATOM     28  C   UNL     1       5.389   3.782  14.260  0.00  0.00    +0.000 A 
ATOM     29  C   UNL     1       5.822   3.564  12.948  0.00  0.00    +0.000 A 
ENDBRANCH  18  27
ENDBRANCH  17  21
ENDBRANCH   1  17
TORSDOF 4
ENDMDL
MODEL 4
REMARK VINA RESULT:      -8.5      1.111      2.301
REMARK  Name = 
REMARK  4 active torsions:
REMARK  status: ('A' for Active; 'I' for Inactive)
REMARK    1  A    between atoms: C_5  and  C_6
REMARK    2  A    between atoms: C_9  and  C_10
REMARK    3  A    between atoms: C_10  and  N_11
REMARK    4  A    between atoms: C_14  and  C_15
REMARK                            x       y       z     vdW  Elec       q    Type
REMARK                         _______ _______ _______ _____ _____    ______ ____
ROOT
ATOM      1  N   UNL     1       1.055   9.274  19.745  0.00  0.00    +0.000 NA
ATOM      2  C   UNL     1       1.472   9.370  18.333  0.00  0.00    +0.000 C 
ATOM      3  C   UNL     1       2.150   8.173  17.745  0.00  0.00    +0.000 C 
ATOM      4  C   UNL     1       2.394   7.045  18.426  0.00  0.00    +0.000 C 
ATOM      5  C   UNL     1       1.962   6.912  19.855  0.00  0.00    +0.000 C 
ATOM      6  C   UNL     1       1.824   8.287  20.524  0.00  0.00    +0.000 C 
ENDROOT
BRANCH   4   7
ATOM      7  C   UNL     1       3.097   5.928  17.895  0.00  0.00    +0.000 A 
ATOM      8  C   UNL     1       2.562   4.667  17.758  0.00  0.00    +0.000 A 
ATOM      9  N   UNL     1       3.537   3.860  17.239  0.00  0.00    +0.000 N 
ATOM     10  C   UNL     1       4.700   4.573  17.040  0.00  0.00    +0.000 A 
ATOM     11  C   UNL     1       5.943   4.156  16.551  0.00  0.00    +0.000 A 
ATOM     12  C   UNL     1       6.955   5.114  16.451  0.00  0.00    +0.000 A 
ATOM     13  C   UNL     1       6.727   6.441  16.808  0.00  0.00    +0.000 A 
ATOM     14  C   UNL     1       5.477   6.843  17.296  0.00  0.00    +0.000 A 
ATOM     15  C   UNL     1       4.442   5.893  17.423  0.00  0.00    +0.000 A 
ATOM     16  H   UNL     1       3.433   2.877  17.037  0.00  0.00    +0.000 HD
ENDBRANCH   4   7
BRANCH   1  17
ATOM     17  C   UNL     1       1.170  10.595  20.411  0.00  0.00    +0.000 C 
BRANCH  17  21
ATOM     18  C   UNL     1      -1.592  11.601  22.436  0.00  0.00    +0.000 A 
ATOM     19  N   UNL     1      -0.802  11.101  23.397  0.00  0.00    +0.000 NA
ATOM     20  O   UNL     1       0.314  10.635  22.699  0.00  0.00    +0.000 OA
ATOM     21  C   UNL     1       0.084  10.909  21.383  0.00  0.00    +0.000 A 
ATOM     22  N   UNL     1      -1.073  11.490  21.165  0.00  0.00    +0.000 NA
BRANCH  18  27
ATOM     23  F   UNL     1      -6.464  14.212  23.304  0.00  0.00    +0.000 F 
ATOM     24  C   UNL     1      -5.304  13.577  23.099  0.00  0.00    +0.000 A 
ATOM     25  C   UNL     1      -4.657  12.973  24.167  0.00  0.00    +0.000 A 
ATOM     26  C   UNL     1      -3.440  12.312  23.958  0.00  0.00    +0.000 A 
ATOM     27  C   UNL     1      -2.876  12.261  22.673  0.00  0.00    +0.000 A 
ATOM     28  C   UNL     1      -3.550  12.877  21.609  0.00  0.00    +0.000 A 
ATOM     29  C   UNL     1      -4.766  13.535  21.821  0.00  0.00    +0.000 A 
ENDBRANCH  18  27
ENDBRANCH  17  21
ENDBRANCH   1  17
TORSDOF 4
ENDMDL
MODEL 5
REMARK VINA RESULT:      -8.4      3.701      4.918
REMARK  Name = 
REMARK  4 active torsions:
REMARK  status: ('A' for Active; 'I' for Inactive)
REMARK    1  A    between atoms: C_5  and  C_6
REMARK    2  A    between atoms: C_9  and  C_10
REMARK    3  A    between atoms: C_10  and  N_11
REMARK    4  A    between atoms: C_14  and  C_15
REMARK                            x       y       z     vdW  Elec       q    Type
REMARK                         _______ _______ _______ _____ _____    ______ ____
ROOT
ATOM      1  N   UNL     1       1.485   9.340  19.771  0.00  0.00    +0.000 NA
ATOM      2  C   UNL     1       1.576   8.095  20.556  0.00  0.00    +0.000 C 
ATOM      3  C   UNL     1       2.169   6.905  19.870  0.00  0.00    +0.000 C 
ATOM      4  C   UNL     1       2.609   6.916  18.604  0.00  0.00    +0.000 C 
ATOM      5  C   UNL     1       2.548   8.174  17.790  0.00  0.00    +0.000 C 
ATOM      6  C   UNL     1       1.460   9.122  18.314  0.00  0.00    +0.000 C 
ENDROOT
BRANCH   4   7
ATOM      7  C   UNL     1       3.113   5.774  17.923  0.00  0.00    +0.000 A 
ATOM      8  C   UNL     1       2.418   4.596  17.762  0.00  0.00    +0.000 A 
ATOM      9  N   UNL     1       3.230   3.728  17.084  0.00  0.00    +0.000 N 
ATOM     10  C   UNL     1       4.443   4.318  16.806  0.00  0.00    +0.000 A 
ATOM     11  C   UNL     1       5.570   3.804  16.154  0.00  0.00    +0.000 A 
ATOM     12  C   UNL     1       6.675   4.646  16.006  0.00  0.00    +0.000 A 
ATOM     13  C   UNL     1       6.647   5.957  16.476  0.00  0.00    +0.000 A 
ATOM     14  C   UNL     1       5.513   6.458  17.126  0.00  0.00    +0.000 A 
ATOM     15  C   UNL     1       4.389   5.624  17.303  0.00  0.00    +0.000 A 
ATOM     16  H   UNL     1       2.987   2.782  16.829  0.00  0.00    +0.000 HD
ENDBRANCH   4   7
BRANCH   1  17
ATOM     17  C   UNL     1       0.274  10.107  20.154  0.00  0.00    +0.000 C 
BRANCH  17  21
ATOM     18  C   UNL     1       0.768  13.640  20.028  0.00  0.00    +0.000 A 
ATOM     19  N   UNL     1       1.077  13.434  21.316  0.00  0.00    +0.000 NA
ATOM     20  O   UNL     1       0.878  12.064  21.489  0.00  0.00    +0.000 OA
ATOM     21  C   UNL     1       0.473  11.580  20.280  0.00  0.00    +0.000 A 
ATOM     22  N   UNL     1       0.379  12.505  19.353  0.00  0.00    +0.000 NA
BRANCH  18  27
ATOM     23  F   UNL     1       1.097  18.535  17.337  0.00  0.00    +0.000 F 
ATOM     24  C   UNL     1       1.023  17.369  17.990  0.00  0.00    +0.000 A 
ATOM     25  C   UNL     1       2.190  16.686  18.304  0.00  0.00    +0.000 A 
ATOM     26  C   UNL     1       2.117  15.464  18.982  0.00  0.00    +0.000 A 
ATOM     27  C   UNL     1       0.870  14.929  19.343  0.00  0.00    +0.000 A 
ATOM     28  C   UNL     1      -0.294  15.639  19.017  0.00  0.00    +0.000 A 
ATOM     29  C   UNL     1      -0.218  16.861  18.340  0.00  0.00    +0.000 A 
ENDBRANCH  18  27
ENDBRANCH  17  21
ENDBRANCH   1  17
TORSDOF 4
ENDMDL
MODEL 6
REMARK VINA RESULT:      -8.4      1.162      1.615
REMARK  Name = 
REMARK  4 active torsions:
REMARK  status: ('A' for Active; 'I' for Inactive)
REMARK    1  A    between atoms: C_5  and  C_6
REMARK    2  A    between atoms: C_9  and  C_10
REMARK    3  A    between atoms: C_10  and  N_11
REMARK    4  A    between atoms: C_14  and  C_15
REMARK                            x       y       z     vdW  Elec       q    Type
REMARK                         _______ _______ _______ _____ _____    ______ ____
ROOT
ATOM      1  N   UNL     1       1.076   9.525  19.186  0.00  0.00    +0.000 NA
ATOM      2  C   UNL     1       1.924   9.235  18.015  0.00  0.00    +0.000 C 
ATOM      3  C   UNL     1       2.629   7.916  18.000  0.00  0.00    +0.000 C 
ATOM      4  C   UNL     1       2.533   7.007  18.981  0.00  0.00    +0.000 C 
ATOM      5  C   UNL     1       1.662   7.268  20.174  0.00  0.00    +0.000 C 
ATOM      6  C   UNL     1       1.458   8.773  20.395  0.00  0.00    +0.000 C 
ENDROOT
BRANCH   4   7
ATOM      7  C   UNL     1       3.252   5.781  19.007  0.00  0.00    +0.000 A 
ATOM      8  C   UNL     1       4.615   5.682  19.168  0.00  0.00    +0.000 A 
ATOM      9  N   UNL     1       4.942   4.355  19.115  0.00  0.00    +0.000 N 
ATOM     10  C   UNL     1       3.815   3.587  18.917  0.00  0.00    +0.000 A 
ATOM     11  C   UNL     1       3.678   2.201  18.783  0.00  0.00    +0.000 A 
ATOM     12  C   UNL     1       2.390   1.691  18.594  0.00  0.00    +0.000 A 
ATOM     13  C   UNL     1       1.282   2.534  18.558  0.00  0.00    +0.000 A 
ATOM     14  C   UNL     1       1.435   3.919  18.694  0.00  0.00    +0.000 A 
ATOM     15  C   UNL     1       2.725   4.462  18.870  0.00  0.00    +0.000 A 
ATOM     16  H   UNL     1       5.876   3.981  19.198  0.00  0.00    +0.000 HD
ENDBRANCH   4   7
BRANCH   1  17
ATOM     17  C   UNL     1       1.108  10.975  19.502  0.00  0.00    +0.000 C 
BRANCH  17  21
ATOM     18  C   UNL     1      -2.028  12.214  20.673  0.00  0.00    +0.000 A 
ATOM     19  N   UNL     1      -2.182  12.464  19.365  0.00  0.00    +0.000 NA
ATOM     20  O   UNL     1      -0.976  12.045  18.803  0.00  0.00    +0.000 OA
ATOM     21  C   UNL     1      -0.215  11.577  19.835  0.00  0.00    +0.000 A 
ATOM     22  N   UNL     1      -0.809  11.667  21.003  0.00  0.00    +0.000 NA
BRANCH  18  27
ATOM     23  F   UNL     1      -5.972  13.164  24.528  0.00  0.00    +0.000 F 
ATOM     24  C   UNL     1      -5.029  12.925  23.609  0.00  0.00    +0.000 A 
ATOM     25  C   UNL     1      -3.776  12.486  24.011  0.00  0.00    +0.000 A 
ATOM     26  C   UNL     1      -2.785  12.240  23.054  0.00  0.00    +0.000 A 
ATOM     27  C   UNL     1      -3.056  12.437  21.690  0.00  0.00    +0.000 A 
ATOM     28  C   UNL     1      -4.331  12.879  21.307  0.00  0.00    +0.000 A 
ATOM     29  C   UNL     1      -5.319  13.123  22.267  0.00  0.00    +0.000 A 
ENDBRANCH  18  27
ENDBRANCH  17  21
ENDBRANCH   1  17
TORSDOF 4
ENDMDL
MODEL 7
REMARK VINA RESULT:      -8.4      1.598      2.017
REMARK  Name = 
REMARK  4 active torsions:
REMARK  status: ('A' for Active; 'I' for Inactive)
REMARK    1  A    between atoms: C_5  and  C_6
REMARK    2  A    between atoms: C_9  and  C_10
REMARK    3  A    between atoms: C_10  and  N_11
REMARK    4  A    between atoms: C_14  and  C_15
REMARK                            x       y       z     vdW  Elec       q    Type
REMARK                         _______ _______ _______ _____ _____    ______ ____
ROOT
ATOM      1  N   UNL     1       0.930   9.724  19.603  0.00  0.00    +0.000 NA
ATOM      2  C   UNL     1       1.159   8.602  20.532  0.00  0.00    +0.000 C 
ATOM      3  C   UNL     1       1.967   7.452  20.019  0.00  0.00    +0.000 C 
ATOM      4  C   UNL     1       2.479   7.393  18.781  0.00  0.00    +0.000 C 
ATOM      5  C   UNL     1       2.279   8.529  17.823  0.00  0.00    +0.000 C 
ATOM      6  C   UNL     1       1.030   9.345  18.181  0.00  0.00    +0.000 C 
ENDROOT
BRANCH   4   7
ATOM      7  C   UNL     1       3.191   6.276  18.264  0.00  0.00    +0.000 A 
ATOM      8  C   UNL     1       4.445   6.347  17.702  0.00  0.00    +0.000 A 
ATOM      9  N   UNL     1       4.789   5.086  17.300  0.00  0.00    +0.000 N 
ATOM     10  C   UNL     1       3.778   4.195  17.586  0.00  0.00    +0.000 A 
ATOM     11  C   UNL     1       3.687   2.820  17.340  0.00  0.00    +0.000 A 
ATOM     12  C   UNL     1       2.525   2.161  17.752  0.00  0.00    +0.000 A 
ATOM     13  C   UNL     1       1.502   2.848  18.401  0.00  0.00    +0.000 A 
ATOM     14  C   UNL     1       1.607   4.224  18.641  0.00  0.00    +0.000 A 
ATOM     15  C   UNL     1       2.762   4.917  18.221  0.00  0.00    +0.000 A 
ATOM     16  H   UNL     1       5.655   4.834  16.847  0.00  0.00    +0.000 HD
ENDBRANCH   4   7
BRANCH   1  17
ATOM     17  C   UNL     1      -0.405  10.328  19.837  0.00  0.00    +0.000 C 
BRANCH  17  21
ATOM     18  C   UNL     1      -0.911  12.894  22.266  0.00  0.00    +0.000 A 
ATOM     19  N   UNL     1       0.405  13.054  22.068  0.00  0.00    +0.000 NA
ATOM     20  O   UNL     1       0.724  12.057  21.145  0.00  0.00    +0.000 OA
ATOM     21  C   UNL     1      -0.439  11.398  20.875  0.00  0.00    +0.000 A 
ATOM     22  N   UNL     1      -1.469  11.864  21.543  0.00  0.00    +0.000 NA
BRANCH  18  27
ATOM     23  F   UNL     1      -4.110  16.184  25.470  0.00  0.00    +0.000 F 
ATOM     24  C   UNL     1      -3.340  15.393  24.713  0.00  0.00    +0.000 A 
ATOM     25  C   UNL     1      -1.964  15.569  24.718  0.00  0.00    +0.000 A 
ATOM     26  C   UNL     1      -1.155  14.746  23.925  0.00  0.00    +0.000 A 
ATOM     27  C   UNL     1      -1.733  13.747  23.125  0.00  0.00    +0.000 A 
ATOM     28  C   UNL     1      -3.127  13.587  23.139  0.00  0.00    +0.000 A 
ATOM     29  C   UNL     1      -3.931  14.410  23.934  0.00  0.00    +0.000 A 
ENDBRANCH  18  27
ENDBRANCH  17  21
ENDBRANCH   1  17
TORSDOF 4
ENDMDL
MODEL 8
REMARK VINA RESULT:      -8.3      1.235      1.880
REMARK  Name = 
REMARK  4 active torsions:
REMARK  status: ('A' for Active; 'I' for Inactive)
REMARK    1  A    between atoms: C_5  and  C_6
REMARK    2  A    between atoms: C_9  and  C_10
REMARK    3  A    between atoms: C_10  and  N_11
REMARK    4  A    between atoms: C_14  and  C_15
REMARK                            x       y       z     vdW  Elec       q    Type
REMARK                         _______ _______ _______ _____ _____    ______ ____
ROOT
ATOM      1  N   UNL     1       0.732   9.599  19.449  0.00  0.00    +0.000 NA
ATOM      2  C   UNL     1       1.333   9.408  18.116  0.00  0.00    +0.000 C 
ATOM      3  C   UNL     1       2.196   8.201  17.928  0.00  0.00    +0.000 C 
ATOM      4  C   UNL     1       2.447   7.307  18.895  0.00  0.00    +0.000 C 
ATOM      5  C   UNL     1       1.833   7.465  20.253  0.00  0.00    +0.000 C 
ATOM      6  C   UNL     1       1.473   8.930  20.533  0.00  0.00    +0.000 C 
ENDROOT
BRANCH   4   7
ATOM      7  C   UNL     1       3.319   6.193  18.745  0.00  0.00    +0.000 A 
ATOM      8  C   UNL     1       3.415   5.155  19.643  0.00  0.00    +0.000 A 
ATOM      9  N   UNL     1       4.369   4.292  19.177  0.00  0.00    +0.000 N 
ATOM     10  C   UNL     1       4.901   4.754  17.992  0.00  0.00    +0.000 A 
ATOM     11  C   UNL     1       5.903   4.213  17.180  0.00  0.00    +0.000 A 
ATOM     12  C   UNL     1       6.240   4.907  16.014  0.00  0.00    +0.000 A 
ATOM     13  C   UNL     1       5.586   6.087  15.667  0.00  0.00    +0.000 A 
ATOM     14  C   UNL     1       4.585   6.617  16.490  0.00  0.00    +0.000 A 
ATOM     15  C   UNL     1       4.237   5.945  17.681  0.00  0.00    +0.000 A 
ATOM     16  H   UNL     1       4.658   3.441  19.635  0.00  0.00    +0.000 HD
ENDBRANCH   4   7
BRANCH   1  17
ATOM     17  C   UNL     1       0.628  11.044  19.769  0.00  0.00    +0.000 C 
BRANCH  17  21
ATOM     18  C   UNL     1      -1.802  11.956  22.219  0.00  0.00    +0.000 A 
ATOM     19  N   UNL     1      -0.718  11.914  23.008  0.00  0.00    +0.000 NA
ATOM     20  O   UNL     1       0.305  11.523  22.144  0.00  0.00    +0.000 OA
ATOM     21  C   UNL     1      -0.267  11.374  20.915  0.00  0.00    +0.000 A 
ATOM     22  N   UNL     1      -1.557  11.616  20.908  0.00  0.00    +0.000 NA
BRANCH  18  27
ATOM     23  F   UNL     1      -6.914  13.446  23.941  0.00  0.00    +0.000 F 
ATOM     24  C   UNL     1      -5.689  13.100  23.526  0.00  0.00    +0.000 A 
ATOM     25  C   UNL     1      -5.377  13.175  22.176  0.00  0.00    +0.000 A 
ATOM     26  C   UNL     1      -4.099  12.810  21.737  0.00  0.00    +0.000 A 
ATOM     27  C   UNL     1      -3.135  12.369  22.658  0.00  0.00    +0.000 A 
ATOM     28  C   UNL     1      -3.473  12.304  24.018  0.00  0.00    +0.000 A 
ATOM     29  C   UNL     1      -4.751  12.671  24.453  0.00  0.00    +0.000 A 
ENDBRANCH  18  27
ENDBRANCH  17  21
ENDBRANCH   1  17
TORSDOF 4
ENDMDL
MODEL 9
REMARK VINA RESULT:      -8.3      1.313      1.677
REMARK  Name = 
REMARK  4 active torsions:
REMARK  status: ('A' for Active; 'I' for Inactive)
REMARK    1  A    between atoms: C_5  and  C_6
REMARK    2  A    between atoms: C_9  and  C_10
REMARK    3  A    between atoms: C_10  and  N_11
REMARK    4  A    between atoms: C_14  and  C_15
REMARK                            x       y       z     vdW  Elec       q    Type
REMARK                         _______ _______ _______ _____ _____    ______ ____
ROOT
ATOM      1  N   UNL     1       0.569  10.144  20.435  0.00  0.00    +0.000 NA
ATOM      2  C   UNL     1       1.100   9.980  19.069  0.00  0.00    +0.000 C 
ATOM      3  C   UNL     1       1.768   8.679  18.754  0.00  0.00    +0.000 C 
ATOM      4  C   UNL     1       1.907   7.679  19.636  0.00  0.00    +0.000 C 
ATOM      5  C   UNL     1       1.358   7.810  21.025  0.00  0.00    +0.000 C 
ATOM      6  C   UNL     1       1.229   9.284  21.434  0.00  0.00    +0.000 C 
ENDROOT
BRANCH   4   7
ATOM      7  C   UNL     1       2.599   6.466  19.366  0.00  0.00    +0.000 A 
ATOM      8  C   UNL     1       3.769   6.383  18.646  0.00  0.00    +0.000 A 
ATOM      9  N   UNL     1       4.117   5.061  18.575  0.00  0.00    +0.000 N 
ATOM     10  C   UNL     1       3.189   4.282  19.231  0.00  0.00    +0.000 A 
ATOM     11  C   UNL     1       3.130   2.894  19.397  0.00  0.00    +0.000 A 
ATOM     12  C   UNL     1       2.059   2.371  20.127  0.00  0.00    +0.000 A 
ATOM     13  C   UNL     1       1.095   3.207  20.684  0.00  0.00    +0.000 A 
ATOM     14  C   UNL     1       1.167   4.595  20.511  0.00  0.00    +0.000 A 
ATOM     15  C   UNL     1       2.229   5.147  19.764  0.00  0.00    +0.000 A 
ATOM     16  H   UNL     1       4.930   4.698  18.101  0.00  0.00    +0.000 HD
ENDBRANCH   4   7
BRANCH   1  17
ATOM     17  C   UNL     1       0.691  11.556  20.873  0.00  0.00    +0.000 C 
BRANCH  17  21
ATOM     18  C   UNL     1      -2.134  12.538  22.821  0.00  0.00    +0.000 A 
ATOM     19  N   UNL     1      -1.186  13.231  23.467  0.00  0.00    +0.000 NA
ATOM     20  O   UNL     1      -0.010  12.886  22.800  0.00  0.00    +0.000 OA
ATOM     21  C   UNL     1      -0.372  12.020  21.810  0.00  0.00    +0.000 A 
ATOM     22  N   UNL     1      -1.660  11.765  21.786  0.00  0.00    +0.000 NA
BRANCH  18  27
ATOM     23  F   UNL     1      -7.609  12.891  23.926  0.00  0.00    +0.000 F 
ATOM     24  C   UNL     1      -6.299  12.795  23.665  0.00  0.00    +0.000 A 
ATOM     25  C   UNL     1      -5.415  12.502  24.693  0.00  0.00    +0.000 A 
ATOM     26  C   UNL     1      -4.045  12.406  24.425  0.00  0.00    +0.000 A 
ATOM     27  C   UNL     1      -3.565  12.606  23.120  0.00  0.00    +0.000 A 
ATOM     28  C   UNL     1      -4.478  12.899  22.097  0.00  0.00    +0.000 A 
ATOM     29  C   UNL     1      -5.848  12.993  22.369  0.00  0.00    +0.000 A 
ENDBRANCH  18  27
ENDBRANCH  17  21
ENDBRANCH   1  17
TORSDOF 4
ENDMDL
