MODEL 1
REMARK VINA RESULT:      -8.6      0.000      0.000
REMARK  Name = 
REMARK  4 active torsions:
REMARK  status: ('A' for Active; 'I' for Inactive)
REMARK    1  A    between atoms: C_1  and  C_2
REMARK    2  A    between atoms: C_4  and  C_5
REMARK    3  A    between atoms: C_10  and  C_11
REMARK    4  A    between atoms: N_13  and  C_14
REMARK                            x       y       z     vdW  Elec       q    Type
REMARK                         _______ _______ _______ _____ _____    ______ ____
ROOT
ATOM      1  C   UNL     1       2.428   7.953  18.025  0.00  0.00    +0.000 C 
ATOM      2  O   UNL     1       2.987   8.415  17.031  0.00  0.00    +0.000 OA
ATOM      3  N   UNL     1       2.553   6.645  18.461  0.00  0.00    +0.000 N 
ATOM      4  H   UNL     1       1.915   6.285  19.170  0.00  0.00    +0.000 HD
ENDROOT
BRANCH   1  14
ATOM      5  C   UNL     1      -3.248  13.850  21.688  0.00  0.00    +0.000 C 
ATOM      6  C   UNL     1      -2.325  12.702  21.847  0.00  0.00    +0.000 A 
ATOM      7  C   UNL     1      -2.039  11.981  23.019  0.00  0.00    +0.000 A 
ATOM      8  C   UNL     1      -1.127  11.018  22.645  0.00  0.00    +0.000 A 
ATOM      9  C   UNL     1      -0.451   9.994  23.485  0.00  0.00    +0.000 C 
ATOM     10  N   UNL     1      -0.929  11.178  21.277  0.00  0.00    +0.000 N 
ATOM     11  C   UNL     1      -0.106  10.389  20.406  0.00  0.00    +0.000 A 
ATOM     12  C   UNL     1       0.039  10.750  19.064  0.00  0.00    +0.000 A 
ATOM     13  C   UNL     1       0.870   9.984  18.228  0.00  0.00    +0.000 A 
ATOM     14  C   UNL     1       1.526   8.874  18.756  0.00  0.00    +0.000 A 
ATOM     15  C   UNL     1       1.296   8.576  20.097  0.00  0.00    +0.000 A 
ATOM     16  N   UNL     1       0.513   9.302  20.925  0.00  0.00    +0.000 NA
ATOM     17  N   UNL     1      -1.644  12.236  20.796  0.00  0.00    +0.000 NA
ENDBRANCH   1  14
BRANCH   3  18
ATOM     18  C   UNL     1       3.396   5.674  17.854  0.00  0.00    +0.000 A 
ATOM     19  C   UNL     1       4.476   5.997  17.024  0.00  0.00    +0.000 A 
ATOM     20  C   UNL     1       5.257   5.005  16.400  0.00  0.00    +0.000 A 
ATOM     21  C   UNL     1       4.994   3.654  16.605  0.00  0.00    +0.000 A 
ATOM     22  C   UNL     1       3.945   3.320  17.442  0.00  0.00    +0.000 A 
ATOM     23  C   UNL     1       3.176   4.318  18.055  0.00  0.00    +0.000 A 
ATOM     24  C   UNL     1       2.144   3.644  18.847  0.00  0.00    +0.000 C 
ATOM     25  O   UNL     1       1.289   4.204  19.506  0.00  0.00    +0.000 OA
ATOM     26  N   UNL     1       2.334   2.287  18.687  0.00  0.00    +0.000 N 
ATOM     27  C   UNL     1       3.439   1.970  17.819  0.00  0.00    +0.000 C 
ATOM     28  H   UNL     1       1.719   1.609  19.123  0.00  0.00    +0.000 HD
ENDBRANCH   3  18
TORSDOF 2
ENDMDL
MODEL 2
REMARK VINA RESULT:      -8.5      1.501      2.120
REMARK  Name = 
REMARK  4 active torsions:
REMARK  status: ('A' for Active; 'I' for Inactive)
REMARK    1  A    between atoms: C_1  and  C_2
REMARK    2  A    between atoms: C_4  and  C_5
REMARK    3  A    between atoms: C_10  and  C_11
REMARK    4  A    between atoms: N_13  and  C_14
REMARK                            x       y       z     vdW  Elec       q    Type
REMARK                         _______ _______ _______ _____ _____    ______ ____
ROOT
ATOM      1  C   UNL     1       2.124   7.602  19.566  0.00  0.00    +0.000 C 
ATOM      2  O   UNL     1       2.499   7.901  18.433  0.00  0.00    +0.000 OA
ATOM      3  N   UNL     1       2.463   6.432  20.223  0.00  0.00    +0.000 N 
ATOM      4  H   UNL     1       1.964   6.165  21.071  0.00  0.00    +0.000 HD
ENDROOT
BRANCH   1  14
ATOM      5  C   UNL     1      -3.342  12.928  24.274  0.00  0.00    +0.000 C 
ATOM      6  C   UNL     1      -2.602  12.649  23.021  0.00  0.00    +0.000 A 
ATOM      7  C   UNL     1      -2.521  13.453  21.871  0.00  0.00    +0.000 A 
ATOM      8  C   UNL     1      -1.719  12.758  20.992  0.00  0.00    +0.000 A 
ATOM      9  C   UNL     1      -1.318  13.117  19.606  0.00  0.00    +0.000 C 
ATOM     10  N   UNL     1      -1.332  11.596  21.653  0.00  0.00    +0.000 N 
ATOM     11  C   UNL     1      -0.455  10.562  21.182  0.00  0.00    +0.000 A 
ATOM     12  C   UNL     1      -0.244   9.418  21.955  0.00  0.00    +0.000 A 
ATOM     13  C   UNL     1       0.595   8.401  21.469  0.00  0.00    +0.000 A 
ATOM     14  C   UNL     1       1.207   8.561  20.227  0.00  0.00    +0.000 A 
ATOM     15  C   UNL     1       0.960   9.748  19.543  0.00  0.00    +0.000 A 
ATOM     16  N   UNL     1       0.148  10.736  19.982  0.00  0.00    +0.000 NA
ATOM     17  N   UNL     1      -1.904  11.519  22.890  0.00  0.00    +0.000 NA
ENDBRANCH   1  14
BRANCH   3  18
ATOM     18  C   UNL     1       3.342   5.444  19.702  0.00  0.00    +0.000 A 
ATOM     19  C   UNL     1       4.673   5.701  19.350  0.00  0.00    +0.000 A 
ATOM     20  C   UNL     1       5.499   4.708  18.788  0.00  0.00    +0.000 A 
ATOM     21  C   UNL     1       5.024   3.417  18.580  0.00  0.00    +0.000 A 
ATOM     22  C   UNL     1       3.718   3.143  18.945  0.00  0.00    +0.000 A 
ATOM     23  C   UNL     1       2.908   4.141  19.501  0.00  0.00    +0.000 A 
ATOM     24  C   UNL     1       1.594   3.543  19.750  0.00  0.00    +0.000 C 
ATOM     25  O   UNL     1       0.636   4.127  20.220  0.00  0.00    +0.000 OA
ATOM     26  N   UNL     1       1.666   2.226  19.346  0.00  0.00    +0.000 N 
ATOM     27  C   UNL     1       2.958   1.868  18.818  0.00  0.00    +0.000 C 
ATOM     28  H   UNL     1       0.863   1.610  19.397  0.00  0.00    +0.000 HD
ENDBRANCH   3  18
TORSDOF 2
ENDMDL
MODEL 3
REMARK VINA RESULT:      -8.4      2.057      9.043
REMARK  Name = 
REMARK  4 active torsions:
REMARK  status: ('A' for Active; 'I' for Inactive)
REMARK    1  A    between atoms: C_1  and  C_2
REMARK    2  A    between atoms: C_4  and  C_5
REMARK    3  A    between atoms: C_10  and  C_11
REMARK    4  A    between atoms: N_13  and  C_14
REMARK                            x       y       z     vdW  Elec       q    Type
REMARK                         _______ _______ _______ _____ _____    ______ ____
ROOT
ATOM      1  C   UNL     1       1.106   8.863  20.221  0.00  0.00    +0.000 C 
ATOM      2  O   UNL     1       0.879   8.355  21.318  0.00  0.00    +0.000 OA
ATOM      3  N   UNL     1       0.565  10.058  19.779  0.00  0.00    +0.000 N 
ATOM      4  H   UNL     1       0.642  10.315  18.796  0.00  0.00    +0.000 HD
ENDROOT
BRANCH   1  14
ATOM      5  C   UNL     1       6.597   4.932  14.321  0.00  0.00    +0.000 C 
ATOM      6  C   UNL     1       5.754   4.838  15.536  0.00  0.00    +0.000 A 
ATOM      7  C   UNL     1       5.573   3.726  16.375  0.00  0.00    +0.000 A 
ATOM      8  C   UNL     1       4.703   4.145  17.358  0.00  0.00    +0.000 A 
ATOM      9  C   UNL     1       4.134   3.374  18.495  0.00  0.00    +0.000 C 
ATOM     10  N   UNL     1       4.426   5.482  17.089  0.00  0.00    +0.000 N 
ATOM     11  C   UNL     1       3.608   6.384  17.849  0.00  0.00    +0.000 A 
ATOM     12  C   UNL     1       3.373   7.679  17.379  0.00  0.00    +0.000 A 
ATOM     13  C   UNL     1       2.548   8.543  18.119  0.00  0.00    +0.000 A 
ATOM     14  C   UNL     1       1.987   8.091  19.313  0.00  0.00    +0.000 A 
ATOM     15  C   UNL     1       2.303   6.795  19.714  0.00  0.00    +0.000 A 
ATOM     16  N   UNL     1       3.083   5.941  19.016  0.00  0.00    +0.000 NA
ATOM     17  N   UNL     1       5.050   5.895  15.948  0.00  0.00    +0.000 NA
ENDBRANCH   1  14
BRANCH   3  18
ATOM     18  C   UNL     1      -0.280  10.893  20.560  0.00  0.00    +0.000 A 
ATOM     19  C   UNL     1      -0.048  11.181  21.910  0.00  0.00    +0.000 A 
ATOM     20  C   UNL     1      -0.936  11.973  22.665  0.00  0.00    +0.000 A 
ATOM     21  C   UNL     1      -2.076  12.520  22.083  0.00  0.00    +0.000 A 
ATOM     22  C   UNL     1      -2.305  12.263  20.744  0.00  0.00    +0.000 A 
ATOM     23  C   UNL     1      -1.413  11.473  20.007  0.00  0.00    +0.000 A 
ATOM     24  C   UNL     1      -1.947  11.374  18.646  0.00  0.00    +0.000 C 
ATOM     25  O   UNL     1      -1.434  10.751  17.735  0.00  0.00    +0.000 OA
ATOM     26  N   UNL     1      -3.117  12.103  18.616  0.00  0.00    +0.000 N 
ATOM     27  C   UNL     1      -3.440  12.703  19.885  0.00  0.00    +0.000 C 
ATOM     28  H   UNL     1      -3.686  12.162  17.779  0.00  0.00    +0.000 HD
ENDBRANCH   3  18
TORSDOF 2
ENDMDL
MODEL 4
REMARK VINA RESULT:      -8.3      2.181      2.666
REMARK  Name = 
REMARK  4 active torsions:
REMARK  status: ('A' for Active; 'I' for Inactive)
REMARK    1  A    between atoms: C_1  and  C_2
REMARK    2  A    between atoms: C_4  and  C_5
REMARK    3  A    between atoms: C_10  and  C_11
REMARK    4  A    between atoms: N_13  and  C_14
REMARK                            x       y       z     vdW  Elec       q    Type
REMARK                         _______ _______ _______ _____ _____    ______ ____
ROOT
ATOM      1  C   UNL     1       3.089   6.804  17.878  0.00  0.00    +0.000 C 
ATOM      2  O   UNL     1       2.690   5.640  17.911  0.00  0.00    +0.000 OA
ATOM      3  N   UNL     1       4.283   7.211  17.307  0.00  0.00    +0.000 N 
ATOM      4  H   UNL     1       4.636   8.150  17.488  0.00  0.00    +0.000 HD
ENDROOT
BRANCH   1  14
ATOM      5  C   UNL     1      -2.320  13.167  21.144  0.00  0.00    +0.000 C 
ATOM      6  C   UNL     1      -1.442  11.997  21.379  0.00  0.00    +0.000 A 
ATOM      7  C   UNL     1      -1.175  11.351  22.598  0.00  0.00    +0.000 A 
ATOM      8  C   UNL     1      -0.305  10.328  22.288  0.00  0.00    +0.000 A 
ATOM      9  C   UNL     1       0.338   9.340  23.195  0.00  0.00    +0.000 C 
ATOM     10  N   UNL     1      -0.112  10.383  20.911  0.00  0.00    +0.000 N 
ATOM     11  C   UNL     1       0.672   9.502  20.094  0.00  0.00    +0.000 A 
ATOM     12  C   UNL     1       0.820   9.761  18.728  0.00  0.00    +0.000 A 
ATOM     13  C   UNL     1       1.613   8.905  17.945  0.00  0.00    +0.000 A 
ATOM     14  C   UNL     1       2.230   7.810  18.547  0.00  0.00    +0.000 A 
ATOM     15  C   UNL     1       2.000   7.617  19.907  0.00  0.00    +0.000 A 
ATOM     16  N   UNL     1       1.252   8.430  20.685  0.00  0.00    +0.000 NA
ATOM     17  N   UNL     1      -0.789  11.432  20.360  0.00  0.00    +0.000 NA
ENDBRANCH   1  14
BRANCH   3  18
ATOM     18  C   UNL     1       5.182   6.346  16.627  0.00  0.00    +0.000 A 
ATOM     19  C   UNL     1       5.135   6.111  15.247  0.00  0.00    +0.000 A 
ATOM     20  C   UNL     1       6.012   5.207  14.616  0.00  0.00    +0.000 A 
ATOM     21  C   UNL     1       6.981   4.525  15.345  0.00  0.00    +0.000 A 
ATOM     22  C   UNL     1       7.055   4.765  16.705  0.00  0.00    +0.000 A 
ATOM     23  C   UNL     1       6.175   5.666  17.319  0.00  0.00    +0.000 A 
ATOM     24  C   UNL     1       6.494   5.676  18.749  0.00  0.00    +0.000 C 
ATOM     25  O   UNL     1       5.919   6.339  19.591  0.00  0.00    +0.000 OA
ATOM     26  N   UNL     1       7.543   4.799  18.935  0.00  0.00    +0.000 N 
ATOM     27  C   UNL     1       7.973   4.167  17.714  0.00  0.00    +0.000 C 
ATOM     28  H   UNL     1       7.925   4.616  19.856  0.00  0.00    +0.000 HD
ENDBRANCH   3  18
TORSDOF 2
ENDMDL
MODEL 5
REMARK VINA RESULT:      -8.3      2.318      9.053
REMARK  Name = 
REMARK  4 active torsions:
REMARK  status: ('A' for Active; 'I' for Inactive)
REMARK    1  A    between atoms: C_1  and  C_2
REMARK    2  A    between atoms: C_4  and  C_5
REMARK    3  A    between atoms: C_10  and  C_11
REMARK    4  A    between atoms: N_13  and  C_14
REMARK                            x       y       z     vdW  Elec       q    Type
REMARK                         _______ _______ _______ _____ _____    ______ ____
ROOT
ATOM      1  C   UNL     1       0.488  10.946  20.086  0.00  0.00    +0.000 C 
ATOM      2  O   UNL     1       0.953  12.041  19.771  0.00  0.00    +0.000 OA
ATOM      3  N   UNL     1      -0.593  10.764  20.931  0.00  0.00    +0.000 N 
ATOM      4  H   UNL     1      -0.797   9.835  21.299  0.00  0.00    +0.000 HD
ENDROOT
BRANCH   1  14
ATOM      5  C   UNL     1       4.981   4.250  16.164  0.00  0.00    +0.000 C 
ATOM      6  C   UNL     1       4.194   4.755  17.313  0.00  0.00    +0.000 A 
ATOM      7  C   UNL     1       3.875   4.079  18.503  0.00  0.00    +0.000 A 
ATOM      8  C   UNL     1       3.132   4.972  19.245  0.00  0.00    +0.000 A 
ATOM      9  C   UNL     1       2.501   4.784  20.578  0.00  0.00    +0.000 C 
ATOM     10  N   UNL     1       3.063   6.141  18.493  0.00  0.00    +0.000 N 
ATOM     11  C   UNL     1       2.439   7.383  18.849  0.00  0.00    +0.000 A 
ATOM     12  C   UNL     1       2.395   8.433  17.926  0.00  0.00    +0.000 A 
ATOM     13  C   UNL     1       1.757   9.634  18.278  0.00  0.00    +0.000 A 
ATOM     14  C   UNL     1       1.188   9.757  19.545  0.00  0.00    +0.000 A 
ATOM     15  C   UNL     1       1.309   8.668  20.405  0.00  0.00    +0.000 A 
ATOM     16  N   UNL     1       1.906   7.498  20.088  0.00  0.00    +0.000 NA
ATOM     17  N   UNL     1       3.690   5.992  17.291  0.00  0.00    +0.000 NA
ENDBRANCH   1  14
BRANCH   3  18
ATOM     18  C   UNL     1      -1.353  11.822  21.501  0.00  0.00    +0.000 A 
ATOM     19  C   UNL     1      -1.098  12.363  22.767  0.00  0.00    +0.000 A 
ATOM     20  C   UNL     1      -1.905  13.377  23.318  0.00  0.00    +0.000 A 
ATOM     21  C   UNL     1      -2.983  13.897  22.609  0.00  0.00    +0.000 A 
ATOM     22  C   UNL     1      -3.233  13.388  21.347  0.00  0.00    +0.000 A 
ATOM     23  C   UNL     1      -2.422  12.379  20.813  0.00  0.00    +0.000 A 
ATOM     24  C   UNL     1      -2.959  12.048  19.490  0.00  0.00    +0.000 C 
ATOM     25  O   UNL     1      -2.508  11.202  18.742  0.00  0.00    +0.000 OA
ATOM     26  N   UNL     1      -4.051  12.865  19.281  0.00  0.00    +0.000 N 
ATOM     27  C   UNL     1      -4.317  13.746  20.390  0.00  0.00    +0.000 C 
ATOM     28  H   UNL     1      -4.609  12.801  18.438  0.00  0.00    +0.000 HD
ENDBRANCH   3  18
TORSDOF 2
ENDMDL
MODEL 6
REMARK VINA RESULT:      -8.2      2.225      9.177
REMARK  Name = 
REMARK  4 active torsions:
REMARK  status: ('A' for Active; 'I' for Inactive)
REMARK    1  A    between atoms: C_1  and  C_2
REMARK    2  A    between atoms: C_4  and  C_5
REMARK    3  A    between atoms: C_10  and  C_11
REMARK    4  A    between atoms: N_13  and  C_14
REMARK                            x       y       z     vdW  Elec       q    Type
REMARK                         _______ _______ _______ _____ _____    ______ ____
ROOT
ATOM      1  C   UNL     1       0.474   9.875  19.826  0.00  0.00    +0.000 C 
ATOM      2  O   UNL     1      -0.537  10.167  19.188  0.00  0.00    +0.000 OA
ATOM      3  N   UNL     1       0.799  10.393  21.068  0.00  0.00    +0.000 N 
ATOM      4  H   UNL     1       1.737  10.257  21.443  0.00  0.00    +0.000 HD
ENDROOT
BRANCH   1  14
ATOM      5  C   UNL     1       6.304   4.808  15.270  0.00  0.00    +0.000 C 
ATOM      6  C   UNL     1       5.426   4.993  16.449  0.00  0.00    +0.000 A 
ATOM      7  C   UNL     1       5.259   4.128  17.545  0.00  0.00    +0.000 A 
ATOM      8  C   UNL     1       4.342   4.747  18.365  0.00  0.00    +0.000 A 
ATOM      9  C   UNL     1       3.765   4.271  19.650  0.00  0.00    +0.000 C 
ATOM     10  N   UNL     1       4.022   5.955  17.752  0.00  0.00    +0.000 N 
ATOM     11  C   UNL     1       3.146   6.984  18.234  0.00  0.00    +0.000 A 
ATOM     12  C   UNL     1       2.877   8.102  17.439  0.00  0.00    +0.000 A 
ATOM     13  C   UNL     1       1.996   9.089  17.911  0.00  0.00    +0.000 A 
ATOM     14  C   UNL     1       1.414   8.936  19.169  0.00  0.00    +0.000 A 
ATOM     15  C   UNL     1       1.765   7.803  19.899  0.00  0.00    +0.000 A 
ATOM     16  N   UNL     1       2.600   6.834  19.464  0.00  0.00    +0.000 NA
ATOM     17  N   UNL     1       4.668   6.087  16.558  0.00  0.00    +0.000 NA
ENDBRANCH   1  14
BRANCH   3  18
ATOM     18  C   UNL     1      -0.025  11.288  21.803  0.00  0.00    +0.000 A 
ATOM     19  C   UNL     1      -1.080  10.871  22.625  0.00  0.00    +0.000 A 
ATOM     20  C   UNL     1      -1.906  11.792  23.299  0.00  0.00    +0.000 A 
ATOM     21  C   UNL     1      -1.688  13.162  23.189  0.00  0.00    +0.000 A 
ATOM     22  C   UNL     1      -0.635  13.587  22.400  0.00  0.00    +0.000 A 
ATOM     23  C   UNL     1       0.178  12.660  21.734  0.00  0.00    +0.000 A 
ATOM     24  C   UNL     1       1.172  13.423  20.975  0.00  0.00    +0.000 C 
ATOM     25  O   UNL     1       2.035  12.939  20.268  0.00  0.00    +0.000 OA
ATOM     26  N   UNL     1       0.926  14.759  21.215  0.00  0.00    +0.000 N 
ATOM     27  C   UNL     1      -0.193  14.977  22.096  0.00  0.00    +0.000 C 
ATOM     28  H   UNL     1       1.474  15.488  20.773  0.00  0.00    +0.000 HD
ENDBRANCH   3  18
TORSDOF 2
ENDMDL
MODEL 7
REMARK VINA RESULT:      -8.2      1.551      2.137
REMARK  Name = 
REMARK  4 active torsions:
REMARK  status: ('A' for Active; 'I' for Inactive)
REMARK    1  A    between atoms: C_1  and  C_2
REMARK    2  A    between atoms: C_4  and  C_5
REMARK    3  A    between atoms: C_10  and  C_11
REMARK    4  A    between atoms: N_13  and  C_14
REMARK                            x       y       z     vdW  Elec       q    Type
REMARK                         _______ _______ _______ _____ _____    ______ ____
ROOT
ATOM      1  C   UNL     1       2.124   8.169  18.419  0.00  0.00    +0.000 C 
ATOM      2  O   UNL     1       2.227   8.384  17.212  0.00  0.00    +0.000 OA
ATOM      3  N   UNL     1       2.482   6.984  19.040  0.00  0.00    +0.000 N 
ATOM      4  H   UNL     1       2.189   6.808  20.001  0.00  0.00    +0.000 HD
ENDROOT
BRANCH   1  14
ATOM      5  C   UNL     1      -1.382  14.244  24.005  0.00  0.00    +0.000 C 
ATOM      6  C   UNL     1      -0.936  13.874  22.641  0.00  0.00    +0.000 A 
ATOM      7  C   UNL     1      -0.917  14.683  21.492  0.00  0.00    +0.000 A 
ATOM      8  C   UNL     1      -0.420  13.881  20.487  0.00  0.00    +0.000 A 
ATOM      9  C   UNL     1      -0.212  14.203  19.051  0.00  0.00    +0.000 C 
ATOM     10  N   UNL     1      -0.137  12.651  21.074  0.00  0.00    +0.000 N 
ATOM     11  C   UNL     1       0.443  11.493  20.457  0.00  0.00    +0.000 A 
ATOM     12  C   UNL     1       0.579  10.307  21.185  0.00  0.00    +0.000 A 
ATOM     13  C   UNL     1       1.123   9.172  20.561  0.00  0.00    +0.000 A 
ATOM     14  C   UNL     1       1.525   9.256  19.229  0.00  0.00    +0.000 A 
ATOM     15  C   UNL     1       1.378  10.487  18.595  0.00  0.00    +0.000 A 
ATOM     16  N   UNL     1       0.846  11.590  19.168  0.00  0.00    +0.000 NA
ATOM     17  N   UNL     1      -0.486  12.642  22.392  0.00  0.00    +0.000 NA
ENDBRANCH   1  14
BRANCH   3  18
ATOM     18  C   UNL     1       3.077   5.878  18.376  0.00  0.00    +0.000 A 
ATOM     19  C   UNL     1       4.113   6.002  17.442  0.00  0.00    +0.000 A 
ATOM     20  C   UNL     1       4.643   4.885  16.766  0.00  0.00    +0.000 A 
ATOM     21  C   UNL     1       4.166   3.603  17.021  0.00  0.00    +0.000 A 
ATOM     22  C   UNL     1       3.159   3.463  17.958  0.00  0.00    +0.000 A 
ATOM     23  C   UNL     1       2.641   4.583  18.621  0.00  0.00    +0.000 A 
ATOM     24  C   UNL     1       1.586   4.105  19.519  0.00  0.00    +0.000 C 
ATOM     25  O   UNL     1       0.910   4.810  20.244  0.00  0.00    +0.000 OA
ATOM     26  N   UNL     1       1.517   2.736  19.368  0.00  0.00    +0.000 N 
ATOM     27  C   UNL     1       2.460   2.226  18.406  0.00  0.00    +0.000 C 
ATOM     28  H   UNL     1       0.836   2.179  19.872  0.00  0.00    +0.000 HD
ENDBRANCH   3  18
TORSDOF 2
ENDMDL
MODEL 8
REMARK VINA RESULT:      -8.2      1.781      3.105
REMARK  Name = 
REMARK  4 active torsions:
REMARK  status: ('A' for Active; 'I' for Inactive)
REMARK    1  A    between atoms: C_1  and  C_2
REMARK    2  A    between atoms: C_4  and  C_5
REMARK    3  A    between atoms: C_10  and  C_11
REMARK    4  A    between atoms: N_13  and  C_14
REMARK                            x       y       z     vdW  Elec       q    Type
REMARK                         _______ _______ _______ _____ _____    ______ ____
ROOT
ATOM      1  C   UNL     1       1.972   6.697  19.945  0.00  0.00    +0.000 C 
ATOM      2  O   UNL     1       2.217   5.911  20.859  0.00  0.00    +0.000 OA
ATOM      3  N   UNL     1       2.148   6.420  18.600  0.00  0.00    +0.000 N 
ATOM      4  H   UNL     1       2.110   7.177  17.918  0.00  0.00    +0.000 HD
ENDROOT
BRANCH   1  14
ATOM      5  C   UNL     1      -0.771  14.592  23.196  0.00  0.00    +0.000 C 
ATOM      6  C   UNL     1      -0.414  13.747  22.032  0.00  0.00    +0.000 A 
ATOM      7  C   UNL     1      -0.371  14.121  20.677  0.00  0.00    +0.000 A 
ATOM      8  C   UNL     1       0.015  12.986  19.996  0.00  0.00    +0.000 A 
ATOM      9  C   UNL     1       0.193  12.789  18.533  0.00  0.00    +0.000 C 
ATOM     10  N   UNL     1       0.214  12.002  20.959  0.00  0.00    +0.000 N 
ATOM     11  C   UNL     1       0.667  10.654  20.763  0.00  0.00    +0.000 A 
ATOM     12  C   UNL     1       0.728   9.772  21.845  0.00  0.00    +0.000 A 
ATOM     13  C   UNL     1       1.147   8.448  21.634  0.00  0.00    +0.000 A 
ATOM     14  C   UNL     1       1.501   8.044  20.348  0.00  0.00    +0.000 A 
ATOM     15  C   UNL     1       1.436   9.001  19.339  0.00  0.00    +0.000 A 
ATOM     16  N   UNL     1       1.025  10.277  19.512  0.00  0.00    +0.000 NA
ATOM     17  N   UNL     1      -0.082  12.466  22.207  0.00  0.00    +0.000 NA
ENDBRANCH   1  14
BRANCH   3  18
ATOM     18  C   UNL     1       2.578   5.166  18.089  0.00  0.00    +0.000 A 
ATOM     19  C   UNL     1       1.855   3.977  18.246  0.00  0.00    +0.000 A 
ATOM     20  C   UNL     1       2.339   2.743  17.769  0.00  0.00    +0.000 A 
ATOM     21  C   UNL     1       3.556   2.664  17.099  0.00  0.00    +0.000 A 
ATOM     22  C   UNL     1       4.270   3.834  16.915  0.00  0.00    +0.000 A 
ATOM     23  C   UNL     1       3.776   5.054  17.396  0.00  0.00    +0.000 A 
ATOM     24  C   UNL     1       4.766   6.082  17.066  0.00  0.00    +0.000 C 
ATOM     25  O   UNL     1       4.671   7.262  17.344  0.00  0.00    +0.000 OA
ATOM     26  N   UNL     1       5.798   5.451  16.402  0.00  0.00    +0.000 N 
ATOM     27  C   UNL     1       5.591   4.033  16.256  0.00  0.00    +0.000 C 
ATOM     28  H   UNL     1       6.620   5.958  16.094  0.00  0.00    +0.000 HD
ENDBRANCH   3  18
TORSDOF 2
ENDMDL
MODEL 9
REMARK VINA RESULT:      -8.1      2.440      8.928
REMARK  Name = 
REMARK  4 active torsions:
REMARK  status: ('A' for Active; 'I' for Inactive)
REMARK    1  A    between atoms: C_1  and  C_2
REMARK    2  A    between atoms: C_4  and  C_5
REMARK    3  A    between atoms: C_10  and  C_11
REMARK    4  A    between atoms: N_13  and  C_14
REMARK                            x       y       z     vdW  Elec       q    Type
REMARK                         _______ _______ _______ _____ _____    ______ ____
ROOT
ATOM      1  C   UNL     1       0.547  10.934  19.625  0.00  0.00    +0.000 C 
ATOM      2  O   UNL     1      -0.339  11.329  18.868  0.00  0.00    +0.000 OA
ATOM      3  N   UNL     1       0.944  11.587  20.780  0.00  0.00    +0.000 N 
ATOM      4  H   UNL     1       1.806  11.308  21.247  0.00  0.00    +0.000 HD
ENDROOT
BRANCH   1  14
ATOM      5  C   UNL     1       5.109   3.880  16.488  0.00  0.00    +0.000 C 
ATOM      6  C   UNL     1       4.278   4.489  17.552  0.00  0.00    +0.000 A 
ATOM      7  C   UNL     1       3.894   3.919  18.778  0.00  0.00    +0.000 A 
ATOM      8  C   UNL     1       3.132   4.880  19.407  0.00  0.00    +0.000 A 
ATOM      9  C   UNL     1       2.437   4.811  20.720  0.00  0.00    +0.000 C 
ATOM     10  N   UNL     1       3.116   5.983  18.558  0.00  0.00    +0.000 N 
ATOM     11  C   UNL     1       2.496   7.258  18.780  0.00  0.00    +0.000 A 
ATOM     12  C   UNL     1       2.511   8.227  17.773  0.00  0.00    +0.000 A 
ATOM     13  C   UNL     1       1.877   9.461  17.994  0.00  0.00    +0.000 A 
ATOM     14  C   UNL     1       1.253   9.696  19.218  0.00  0.00    +0.000 A 
ATOM     15  C   UNL     1       1.316   8.682  20.170  0.00  0.00    +0.000 A 
ATOM     16  N   UNL     1       1.908   7.482  19.980  0.00  0.00    +0.000 NA
ATOM     17  N   UNL     1       3.796   5.726  17.404  0.00  0.00    +0.000 NA
ENDBRANCH   1  14
BRANCH   3  18
ATOM     18  C   UNL     1       0.338  12.771  21.281  0.00  0.00    +0.000 A 
ATOM     19  C   UNL     1       0.754  14.061  20.930  0.00  0.00    +0.000 A 
ATOM     20  C   UNL     1       0.161  15.211  21.487  0.00  0.00    +0.000 A 
ATOM     21  C   UNL     1      -0.885  15.105  22.399  0.00  0.00    +0.000 A 
ATOM     22  C   UNL     1      -1.322  13.837  22.736  0.00  0.00    +0.000 A 
ATOM     23  C   UNL     1      -0.721  12.703  22.175  0.00  0.00    +0.000 A 
ATOM     24  C   UNL     1      -1.389  11.532  22.750  0.00  0.00    +0.000 C 
ATOM     25  O   UNL     1      -1.114  10.374  22.496  0.00  0.00    +0.000 OA
ATOM     26  N   UNL     1      -2.355  12.001  23.615  0.00  0.00    +0.000 N 
ATOM     27  C   UNL     1      -2.397  13.439  23.688  0.00  0.00    +0.000 C 
ATOM     28  H   UNL     1      -2.935  11.370  24.156  0.00  0.00    +0.000 HD
ENDBRANCH   3  18
TORSDOF 2
ENDMDL
