MODEL 1
REMARK VINA RESULT:      -8.8      0.000      0.000
REMARK  Name = 
REMARK  5 active torsions:
REMARK  status: ('A' for Active; 'I' for Inactive)
REMARK    1  A    between atoms: C_1  and  N_2
REMARK    2  A    between atoms: C_4  and  C_5
REMARK    3  A    between atoms: C_8  and  N_9
REMARK    4  A    between atoms: C_10  and  C_12
REMARK    5  A    between atoms: C_16  and  C_17
REMARK                            x       y       z     vdW  Elec       q    Type
REMARK                         _______ _______ _______ _____ _____    ______ ____
ROOT
ATOM      1  N   UNL     1       2.895   6.225  19.883  0.00  0.00    +0.000 N 
ATOM      2  C   UNL     1       2.486   4.982  19.421  0.00  0.00    +0.000 C 
ATOM      3  O   UNL     1       1.491   4.769  18.738  0.00  0.00    +0.000 OA
ATOM      4  H   UNL     1       3.785   6.270  20.358  0.00  0.00    +0.000 HD
ENDROOT
BRANCH   1   8
ATOM      5  C   UNL     1       0.915   9.885  19.014  0.00  0.00    +0.000 A 
ATOM      6  C   UNL     1       0.832   9.323  20.289  0.00  0.00    +0.000 A 
ATOM      7  C   UNL     1       1.487   8.129  20.589  0.00  0.00    +0.000 A 
ATOM      8  C   UNL     1       2.235   7.453  19.628  0.00  0.00    +0.000 A 
ATOM      9  C   UNL     1       2.332   8.013  18.346  0.00  0.00    +0.000 A 
ATOM     10  C   UNL     1       1.672   9.220  18.042  0.00  0.00    +0.000 A 
BRANCH   5  14
ATOM     11  C   UNL     1      -0.216  14.714  18.797  0.00  0.00    +0.000 C 
ATOM     12  N   UNL     1      -0.257  13.278  18.673  0.00  0.00    +0.000 N 
ATOM     13  C   UNL     1       0.757  12.399  18.932  0.00  0.00    +0.000 A 
ATOM     14  C   UNL     1       0.228  11.139  18.755  0.00  0.00    +0.000 A 
ATOM     15  C   UNL     1      -1.112  11.383  18.367  0.00  0.00    +0.000 A 
ATOM     16  N   UNL     1      -1.406  12.683  18.309  0.00  0.00    +0.000 NA
ENDBRANCH   5  14
ENDBRANCH   1   8
BRANCH   2  17
ATOM     17  C   UNL     1       3.377   3.881  19.755  0.00  0.00    +0.000 A 
ATOM     18  C   UNL     1       3.212   2.946  20.762  0.00  0.00    +0.000 A 
ATOM     19  N   UNL     1       4.214   2.043  20.594  0.00  0.00    +0.000 N 
ATOM     20  N   UNL     1       5.093   2.384  19.647  0.00  0.00    +0.000 NA
ATOM     21  C   UNL     1       4.570   3.473  19.059  0.00  0.00    +0.000 A 
ATOM     22  H   UNL     1       4.367   1.172  21.093  0.00  0.00    +0.000 HD
BRANCH  21  23
ATOM     23  C   UNL     1       5.230   4.126  17.912  0.00  0.00    +0.000 A 
ATOM     24  C   UNL     1       4.784   3.819  16.610  0.00  0.00    +0.000 A 
ATOM     25  C   UNL     1       5.417   4.333  15.475  0.00  0.00    +0.000 A 
ATOM     26  C   UNL     1       6.483   5.211  15.615  0.00  0.00    +0.000 A 
ATOM     27  C   UNL     1       6.914   5.570  16.890  0.00  0.00    +0.000 A 
ATOM     28  C   UNL     1       6.304   5.027  18.035  0.00  0.00    +0.000 A 
ATOM     29 CL   UNL     1       6.997   5.499  19.553  0.00  0.00    +0.000 Cl
ENDBRANCH  21  23
ENDBRANCH   2  17
TORSDOF 4
ENDMDL
MODEL 2
REMARK VINA RESULT:      -8.8      1.058      1.767
REMARK  Name = 
REMARK  5 active torsions:
REMARK  status: ('A' for Active; 'I' for Inactive)
REMARK    1  A    between atoms: C_1  and  N_2
REMARK    2  A    between atoms: C_4  and  C_5
REMARK    3  A    between atoms: C_8  and  N_9
REMARK    4  A    between atoms: C_10  and  C_12
REMARK    5  A    between atoms: C_16  and  C_17
REMARK                            x       y       z     vdW  Elec       q    Type
REMARK                         _______ _______ _______ _____ _____    ______ ____
ROOT
ATOM      1  N   UNL     1       2.774   6.313  19.896  0.00  0.00    +0.000 N 
ATOM      2  C   UNL     1       2.546   5.125  19.217  0.00  0.00    +0.000 C 
ATOM      3  O   UNL     1       1.765   4.976  18.285  0.00  0.00    +0.000 OA
ATOM      4  H   UNL     1       3.514   6.316  20.585  0.00  0.00    +0.000 HD
ENDROOT
BRANCH   1   8
ATOM      5  C   UNL     1       0.896  10.052  19.150  0.00  0.00    +0.000 A 
ATOM      6  C   UNL     1       1.640   9.425  18.151  0.00  0.00    +0.000 A 
ATOM      7  C   UNL     1       2.251   8.192  18.380  0.00  0.00    +0.000 A 
ATOM      8  C   UNL     1       2.149   7.553  19.613  0.00  0.00    +0.000 A 
ATOM      9  C   UNL     1       1.396   8.170  20.622  0.00  0.00    +0.000 A 
ATOM     10  C   UNL     1       0.777   9.415  20.391  0.00  0.00    +0.000 A 
BRANCH   5  14
ATOM     11  C   UNL     1      -0.010  14.920  18.789  0.00  0.00    +0.000 C 
ATOM     12  N   UNL     1      -0.120  13.484  18.710  0.00  0.00    +0.000 N 
ATOM     13  C   UNL     1       0.855  12.567  18.990  0.00  0.00    +0.000 A 
ATOM     14  C   UNL     1       0.265  11.328  18.857  0.00  0.00    +0.000 A 
ATOM     15  C   UNL     1      -1.065  11.623  18.472  0.00  0.00    +0.000 A 
ATOM     16  N   UNL     1      -1.298  12.933  18.375  0.00  0.00    +0.000 NA
ENDBRANCH   5  14
ENDBRANCH   1   8
BRANCH   2  17
ATOM     17  C   UNL     1       3.370   4.005  19.648  0.00  0.00    +0.000 A 
ATOM     18  C   UNL     1       2.965   2.896  20.370  0.00  0.00    +0.000 A 
ATOM     19  N   UNL     1       4.041   2.066  20.408  0.00  0.00    +0.000 N 
ATOM     20  N   UNL     1       5.150   2.600  19.886  0.00  0.00    +0.000 NA
ATOM     21  C   UNL     1       4.757   3.765  19.344  0.00  0.00    +0.000 A 
ATOM     22  H   UNL     1       4.096   1.123  20.778  0.00  0.00    +0.000 HD
BRANCH  21  23
ATOM     23  C   UNL     1       5.699   4.635  18.614  0.00  0.00    +0.000 A 
ATOM     24  C   UNL     1       6.667   5.352  19.347  0.00  0.00    +0.000 A 
ATOM     25  C   UNL     1       7.534   6.259  18.731  0.00  0.00    +0.000 A 
ATOM     26  C   UNL     1       7.489   6.433  17.355  0.00  0.00    +0.000 A 
ATOM     27  C   UNL     1       6.576   5.702  16.599  0.00  0.00    +0.000 A 
ATOM     28  C   UNL     1       5.676   4.816  17.218  0.00  0.00    +0.000 A 
ATOM     29 CL   UNL     1       4.542   4.036  16.164  0.00  0.00    +0.000 Cl
ENDBRANCH  21  23
ENDBRANCH   2  17
TORSDOF 4
ENDMDL
MODEL 3
REMARK VINA RESULT:      -8.6      1.209      1.516
REMARK  Name = 
REMARK  5 active torsions:
REMARK  status: ('A' for Active; 'I' for Inactive)
REMARK    1  A    between atoms: C_1  and  N_2
REMARK    2  A    between atoms: C_4  and  C_5
REMARK    3  A    between atoms: C_8  and  N_9
REMARK    4  A    between atoms: C_10  and  C_12
REMARK    5  A    between atoms: C_16  and  C_17
REMARK                            x       y       z     vdW  Elec       q    Type
REMARK                         _______ _______ _______ _____ _____    ______ ____
ROOT
ATOM      1  N   UNL     1       2.842   6.133  20.032  0.00  0.00    +0.000 N 
ATOM      2  C   UNL     1       2.204   4.916  20.227  0.00  0.00    +0.000 C 
ATOM      3  O   UNL     1       0.992   4.735  20.197  0.00  0.00    +0.000 OA
ATOM      4  H   UNL     1       3.851   6.122  19.990  0.00  0.00    +0.000 HD
ENDROOT
BRANCH   1   8
ATOM      5  C   UNL     1       0.901   9.796  19.095  0.00  0.00    +0.000 A 
ATOM      6  C   UNL     1       0.832   9.271  20.386  0.00  0.00    +0.000 A 
ATOM      7  C   UNL     1       1.474   8.076  20.708  0.00  0.00    +0.000 A 
ATOM      8  C   UNL     1       2.196   7.363  19.754  0.00  0.00    +0.000 A 
ATOM      9  C   UNL     1       2.279   7.885  18.455  0.00  0.00    +0.000 A 
ATOM     10  C   UNL     1       1.631   9.094  18.129  0.00  0.00    +0.000 A 
BRANCH   5  14
ATOM     11  C   UNL     1      -0.165  14.634  18.766  0.00  0.00    +0.000 C 
ATOM     12  N   UNL     1      -0.228  13.196  18.681  0.00  0.00    +0.000 N 
ATOM     13  C   UNL     1       0.777  12.309  18.949  0.00  0.00    +0.000 A 
ATOM     14  C   UNL     1       0.228  11.052  18.813  0.00  0.00    +0.000 A 
ATOM     15  C   UNL     1      -1.114  11.306  18.437  0.00  0.00    +0.000 A 
ATOM     16  N   UNL     1      -1.391  12.608  18.350  0.00  0.00    +0.000 NA
ENDBRANCH   5  14
ENDBRANCH   1   8
BRANCH   2  17
ATOM     17  C   UNL     1       3.094   3.781  20.421  0.00  0.00    +0.000 A 
ATOM     18  C   UNL     1       2.951   2.752  21.335  0.00  0.00    +0.000 A 
ATOM     19  N   UNL     1       3.939   1.863  21.047  0.00  0.00    +0.000 N 
ATOM     20  N   UNL     1       4.792   2.292  20.112  0.00  0.00    +0.000 NA
ATOM     21  C   UNL     1       4.262   3.438  19.652  0.00  0.00    +0.000 A 
ATOM     22  H   UNL     1       4.098   0.946  21.452  0.00  0.00    +0.000 HD
BRANCH  21  23
ATOM     23  C   UNL     1       4.893   4.197  18.555  0.00  0.00    +0.000 A 
ATOM     24  C   UNL     1       6.083   4.906  18.819  0.00  0.00    +0.000 A 
ATOM     25  C   UNL     1       6.688   5.714  17.852  0.00  0.00    +0.000 A 
ATOM     26  C   UNL     1       6.144   5.793  16.577  0.00  0.00    +0.000 A 
ATOM     27  C   UNL     1       4.995   5.064  16.274  0.00  0.00    +0.000 A 
ATOM     28  C   UNL     1       4.363   4.279  17.254  0.00  0.00    +0.000 A 
ATOM     29 CL   UNL     1       2.898   3.494  16.759  0.00  0.00    +0.000 Cl
ENDBRANCH  21  23
ENDBRANCH   2  17
TORSDOF 4
ENDMDL
MODEL 4
REMARK VINA RESULT:      -8.5      0.514      1.055
REMARK  Name = 
REMARK  5 active torsions:
REMARK  status: ('A' for Active; 'I' for Inactive)
REMARK    1  A    between atoms: C_1  and  N_2
REMARK    2  A    between atoms: C_4  and  C_5
REMARK    3  A    between atoms: C_8  and  N_9
REMARK    4  A    between atoms: C_10  and  C_12
REMARK    5  A    between atoms: C_16  and  C_17
REMARK                            x       y       z     vdW  Elec       q    Type
REMARK                         _______ _______ _______ _____ _____    ______ ____
ROOT
ATOM      1  N   UNL     1       2.618   6.372  20.068  0.00  0.00    +0.000 N 
ATOM      2  C   UNL     1       2.582   5.299  19.189  0.00  0.00    +0.000 C 
ATOM      3  O   UNL     1       1.986   5.274  18.119  0.00  0.00    +0.000 OA
ATOM      4  H   UNL     1       3.225   6.291  20.871  0.00  0.00    +0.000 HD
ENDROOT
BRANCH   1   8
ATOM      5  C   UNL     1       0.706  10.135  19.559  0.00  0.00    +0.000 A 
ATOM      6  C   UNL     1       1.396   9.545  18.499  0.00  0.00    +0.000 A 
ATOM      7  C   UNL     1       2.018   8.305  18.650  0.00  0.00    +0.000 A 
ATOM      8  C   UNL     1       1.980   7.621  19.863  0.00  0.00    +0.000 A 
ATOM      9  C   UNL     1       1.282   8.200  20.933  0.00  0.00    +0.000 A 
ATOM     10  C   UNL     1       0.653   9.452  20.780  0.00  0.00    +0.000 A 
BRANCH   5  14
ATOM     11  C   UNL     1      -0.072  14.967  18.730  0.00  0.00    +0.000 C 
ATOM     12  N   UNL     1      -0.261  13.560  18.983  0.00  0.00    +0.000 N 
ATOM     13  C   UNL     1       0.694  12.583  18.961  0.00  0.00    +0.000 A 
ATOM     14  C   UNL     1       0.063  11.419  19.346  0.00  0.00    +0.000 A 
ATOM     15  C   UNL     1      -1.281  11.814  19.555  0.00  0.00    +0.000 A 
ATOM     16  N   UNL     1      -1.481  13.114  19.328  0.00  0.00    +0.000 NA
ENDBRANCH   5  14
ENDBRANCH   1   8
BRANCH   2  17
ATOM     17  C   UNL     1       3.383   4.152  19.591  0.00  0.00    +0.000 A 
ATOM     18  C   UNL     1       3.116   3.263  20.617  0.00  0.00    +0.000 A 
ATOM     19  N   UNL     1       4.060   2.289  20.518  0.00  0.00    +0.000 N 
ATOM     20  N   UNL     1       4.997   2.541  19.598  0.00  0.00    +0.000 NA
ATOM     21  C   UNL     1       4.573   3.643  18.958  0.00  0.00    +0.000 A 
ATOM     22  H   UNL     1       4.134   1.427  21.048  0.00  0.00    +0.000 HD
BRANCH  21  23
ATOM     23  C   UNL     1       5.319   4.213  17.820  0.00  0.00    +0.000 A 
ATOM     24  C   UNL     1       4.933   3.859  16.511  0.00  0.00    +0.000 A 
ATOM     25  C   UNL     1       5.647   4.293  15.390  0.00  0.00    +0.000 A 
ATOM     26  C   UNL     1       6.738   5.136  15.548  0.00  0.00    +0.000 A 
ATOM     27  C   UNL     1       7.113   5.541  16.828  0.00  0.00    +0.000 A 
ATOM     28  C   UNL     1       6.421   5.078  17.961  0.00  0.00    +0.000 A 
ATOM     29 CL   UNL     1       7.048   5.598  19.491  0.00  0.00    +0.000 Cl
ENDBRANCH  21  23
ENDBRANCH   2  17
TORSDOF 4
ENDMDL
MODEL 5
REMARK VINA RESULT:      -8.4      1.413      1.816
REMARK  Name = 
REMARK  5 active torsions:
REMARK  status: ('A' for Active; 'I' for Inactive)
REMARK    1  A    between atoms: C_1  and  N_2
REMARK    2  A    between atoms: C_4  and  C_5
REMARK    3  A    between atoms: C_8  and  N_9
REMARK    4  A    between atoms: C_10  and  C_12
REMARK    5  A    between atoms: C_16  and  C_17
REMARK                            x       y       z     vdW  Elec       q    Type
REMARK                         _______ _______ _______ _____ _____    ______ ____
ROOT
ATOM      1  N   UNL     1       2.589   6.287  20.282  0.00  0.00    +0.000 N 
ATOM      2  C   UNL     1       2.615   5.297  19.310  0.00  0.00    +0.000 C 
ATOM      3  O   UNL     1       2.063   5.358  18.218  0.00  0.00    +0.000 OA
ATOM      4  H   UNL     1       3.166   6.145  21.100  0.00  0.00    +0.000 HD
ENDROOT
BRANCH   1   8
ATOM      5  C   UNL     1       0.608  10.019  19.825  0.00  0.00    +0.000 A 
ATOM      6  C   UNL     1       0.521   9.317  21.027  0.00  0.00    +0.000 A 
ATOM      7  C   UNL     1       1.177   8.097  21.194  0.00  0.00    +0.000 A 
ATOM      8  C   UNL     1       1.929   7.535  20.165  0.00  0.00    +0.000 A 
ATOM      9  C   UNL     1       2.030   8.236  18.955  0.00  0.00    +0.000 A 
ATOM     10  C   UNL     1       1.369   9.469  18.787  0.00  0.00    +0.000 A 
BRANCH   5  14
ATOM     11  C   UNL     1      -2.557  13.780  20.521  0.00  0.00    +0.000 C 
ATOM     12  N   UNL     1      -1.492  12.944  20.026  0.00  0.00    +0.000 N 
ATOM     13  C   UNL     1      -1.047  11.770  20.566  0.00  0.00    +0.000 A 
ATOM     14  C   UNL     1      -0.080  11.293  19.707  0.00  0.00    +0.000 A 
ATOM     15  C   UNL     1      -0.011  12.279  18.692  0.00  0.00    +0.000 A 
ATOM     16  N   UNL     1      -0.863  13.286  18.888  0.00  0.00    +0.000 NA
ENDBRANCH   5  14
ENDBRANCH   1   8
BRANCH   2  17
ATOM     17  C   UNL     1       3.428   4.136  19.639  0.00  0.00    +0.000 A 
ATOM     18  C   UNL     1       3.028   3.001  20.322  0.00  0.00    +0.000 A 
ATOM     19  N   UNL     1       4.081   2.143  20.262  0.00  0.00    +0.000 N 
ATOM     20  N   UNL     1       5.177   2.675  19.713  0.00  0.00    +0.000 NA
ATOM     21  C   UNL     1       4.791   3.877  19.253  0.00  0.00    +0.000 A 
ATOM     22  H   UNL     1       4.128   1.180  20.579  0.00  0.00    +0.000 HD
BRANCH  21  23
ATOM     23  C   UNL     1       5.719   4.761  18.522  0.00  0.00    +0.000 A 
ATOM     24  C   UNL     1       6.701   5.463  19.250  0.00  0.00    +0.000 A 
ATOM     25  C   UNL     1       7.558   6.381  18.636  0.00  0.00    +0.000 A 
ATOM     26  C   UNL     1       7.487   6.582  17.264  0.00  0.00    +0.000 A 
ATOM     27  C   UNL     1       6.559   5.866  16.511  0.00  0.00    +0.000 A 
ATOM     28  C   UNL     1       5.671   4.968  17.130  0.00  0.00    +0.000 A 
ATOM     29 CL   UNL     1       4.516   4.209  16.083  0.00  0.00    +0.000 Cl
ENDBRANCH  21  23
ENDBRANCH   2  17
TORSDOF 4
ENDMDL
MODEL 6
REMARK VINA RESULT:      -8.4      2.578      3.840
REMARK  Name = 
REMARK  5 active torsions:
REMARK  status: ('A' for Active; 'I' for Inactive)
REMARK    1  A    between atoms: C_1  and  N_2
REMARK    2  A    between atoms: C_4  and  C_5
REMARK    3  A    between atoms: C_8  and  N_9
REMARK    4  A    between atoms: C_10  and  C_12
REMARK    5  A    between atoms: C_16  and  C_17
REMARK                            x       y       z     vdW  Elec       q    Type
REMARK                         _______ _______ _______ _____ _____    ______ ____
ROOT
ATOM      1  N   UNL     1       3.077   6.581  17.651  0.00  0.00    +0.000 N 
ATOM      2  C   UNL     1       4.394   6.737  17.241  0.00  0.00    +0.000 C 
ATOM      3  O   UNL     1       5.144   7.643  17.586  0.00  0.00    +0.000 OA
ATOM      4  H   UNL     1       2.602   5.737  17.363  0.00  0.00    +0.000 HD
ENDROOT
BRANCH   1   8
ATOM      5  C   UNL     1       1.064   9.102  20.419  0.00  0.00    +0.000 A 
ATOM      6  C   UNL     1       1.230   9.501  19.092  0.00  0.00    +0.000 A 
ATOM      7  C   UNL     1       1.879   8.678  18.172  0.00  0.00    +0.000 A 
ATOM      8  C   UNL     1       2.390   7.438  18.547  0.00  0.00    +0.000 A 
ATOM      9  C   UNL     1       2.221   7.022  19.875  0.00  0.00    +0.000 A 
ATOM     10  C   UNL     1       1.565   7.854  20.805  0.00  0.00    +0.000 A 
BRANCH   5  14
ATOM     11  C   UNL     1      -0.926  13.137  22.518  0.00  0.00    +0.000 C 
ATOM     12  N   UNL     1      -0.502  11.785  22.250  0.00  0.00    +0.000 N 
ATOM     13  C   UNL     1       0.049  11.308  21.093  0.00  0.00    +0.000 A 
ATOM     14  C   UNL     1       0.368   9.989  21.335  0.00  0.00    +0.000 A 
ATOM     15  C   UNL     1      -0.058   9.774  22.668  0.00  0.00    +0.000 A 
ATOM     16  N   UNL     1      -0.593  10.863  23.223  0.00  0.00    +0.000 NA
ENDBRANCH   5  14
ENDBRANCH   1   8
BRANCH   2  17
ATOM     17  C   UNL     1       4.895   5.680  16.376  0.00  0.00    +0.000 A 
ATOM     18  C   UNL     1       5.669   5.826  15.239  0.00  0.00    +0.000 A 
ATOM     19  N   UNL     1       6.006   4.565  14.857  0.00  0.00    +0.000 N 
ATOM     20  N   UNL     1       5.407   3.609  15.572  0.00  0.00    +0.000 NA
ATOM     21  C   UNL     1       4.772   4.257  16.563  0.00  0.00    +0.000 A 
ATOM     22  H   UNL     1       6.635   4.279  14.113  0.00  0.00    +0.000 HD
BRANCH  21  23
ATOM     23  C   UNL     1       4.028   3.532  17.611  0.00  0.00    +0.000 A 
ATOM     24  C   UNL     1       2.893   2.782  17.241  0.00  0.00    +0.000 A 
ATOM     25  C   UNL     1       2.092   2.141  18.190  0.00  0.00    +0.000 A 
ATOM     26  C   UNL     1       2.438   2.191  19.534  0.00  0.00    +0.000 A 
ATOM     27  C   UNL     1       3.582   2.885  19.923  0.00  0.00    +0.000 A 
ATOM     28  C   UNL     1       4.370   3.562  18.976  0.00  0.00    +0.000 A 
ATOM     29 CL   UNL     1       5.715   4.450  19.613  0.00  0.00    +0.000 Cl
ENDBRANCH  21  23
ENDBRANCH   2  17
TORSDOF 4
ENDMDL
MODEL 7
REMARK VINA RESULT:      -8.2      1.225      1.264
REMARK  Name = 
REMARK  5 active torsions:
REMARK  status: ('A' for Active; 'I' for Inactive)
REMARK    1  A    between atoms: C_1  and  N_2
REMARK    2  A    between atoms: C_4  and  C_5
REMARK    3  A    between atoms: C_8  and  N_9
REMARK    4  A    between atoms: C_10  and  C_12
REMARK    5  A    between atoms: C_16  and  C_17
REMARK                            x       y       z     vdW  Elec       q    Type
REMARK                         _______ _______ _______ _____ _____    ______ ____
ROOT
ATOM      1  N   UNL     1       2.622   5.795  18.974  0.00  0.00    +0.000 N 
ATOM      2  C   UNL     1       2.046   4.809  18.186  0.00  0.00    +0.000 C 
ATOM      3  O   UNL     1       1.113   4.973  17.410  0.00  0.00    +0.000 OA
ATOM      4  H   UNL     1       3.447   5.542  19.500  0.00  0.00    +0.000 HD
ENDROOT
BRANCH   1   8
ATOM      5  C   UNL     1       1.445   9.879  18.942  0.00  0.00    +0.000 A 
ATOM      6  C   UNL     1       1.245   9.096  20.080  0.00  0.00    +0.000 A 
ATOM      7  C   UNL     1       1.638   7.758  20.106  0.00  0.00    +0.000 A 
ATOM      8  C   UNL     1       2.232   7.157  18.999  0.00  0.00    +0.000 A 
ATOM      9  C   UNL     1       2.445   7.937  17.853  0.00  0.00    +0.000 A 
ATOM     10  C   UNL     1       2.050   9.289  17.826  0.00  0.00    +0.000 A 
BRANCH   5  14
ATOM     11  C   UNL     1       1.505  14.843  18.876  0.00  0.00    +0.000 C 
ATOM     12  N   UNL     1       1.080  13.467  18.943  0.00  0.00    +0.000 N 
ATOM     13  C   UNL     1       1.840  12.357  18.700  0.00  0.00    +0.000 A 
ATOM     14  C   UNL     1       1.033  11.272  18.970  0.00  0.00    +0.000 A 
ATOM     15  C   UNL     1      -0.203  11.852  19.347  0.00  0.00    +0.000 A 
ATOM     16  N   UNL     1      -0.177  13.186  19.325  0.00  0.00    +0.000 NA
ENDBRANCH   5  14
ENDBRANCH   1   8
BRANCH   2  17
ATOM     17  C   UNL     1       2.678   3.501  18.284  0.00  0.00    +0.000 A 
ATOM     18  C   UNL     1       2.151   2.358  18.859  0.00  0.00    +0.000 A 
ATOM     19  N   UNL     1       3.037   1.364  18.584  0.00  0.00    +0.000 N 
ATOM     20  N   UNL     1       4.158   1.791  17.995  0.00  0.00    +0.000 NA
ATOM     21  C   UNL     1       3.942   3.090  17.729  0.00  0.00    +0.000 A 
ATOM     22  H   UNL     1       2.948   0.371  18.774  0.00  0.00    +0.000 HD
BRANCH  21  23
ATOM     23  C   UNL     1       4.942   3.912  17.021  0.00  0.00    +0.000 A 
ATOM     24  C   UNL     1       5.030   3.812  15.617  0.00  0.00    +0.000 A 
ATOM     25  C   UNL     1       6.009   4.496  14.891  0.00  0.00    +0.000 A 
ATOM     26  C   UNL     1       6.894   5.341  15.547  0.00  0.00    +0.000 A 
ATOM     27  C   UNL     1       6.798   5.497  16.928  0.00  0.00    +0.000 A 
ATOM     28  C   UNL     1       5.839   4.783  17.668  0.00  0.00    +0.000 A 
ATOM     29 CL   UNL     1       5.889   5.012  19.385  0.00  0.00    +0.000 Cl
ENDBRANCH  21  23
ENDBRANCH   2  17
TORSDOF 4
ENDMDL
MODEL 8
REMARK VINA RESULT:      -8.0      1.483      2.054
REMARK  Name = 
REMARK  5 active torsions:
REMARK  status: ('A' for Active; 'I' for Inactive)
REMARK    1  A    between atoms: C_1  and  N_2
REMARK    2  A    between atoms: C_4  and  C_5
REMARK    3  A    between atoms: C_8  and  N_9
REMARK    4  A    between atoms: C_10  and  C_12
REMARK    5  A    between atoms: C_16  and  C_17
REMARK                            x       y       z     vdW  Elec       q    Type
REMARK                         _______ _______ _______ _____ _____    ______ ____
ROOT
ATOM      1  N   UNL     1       2.648   5.925  18.991  0.00  0.00    +0.000 N 
ATOM      2  C   UNL     1       2.112   4.886  18.244  0.00  0.00    +0.000 C 
ATOM      3  O   UNL     1       1.197   4.988  17.436  0.00  0.00    +0.000 OA
ATOM      4  H   UNL     1       3.463   5.718  19.551  0.00  0.00    +0.000 HD
ENDROOT
BRANCH   1   8
ATOM      5  C   UNL     1       1.399   9.988  18.916  0.00  0.00    +0.000 A 
ATOM      6  C   UNL     1       2.032   9.424  17.807  0.00  0.00    +0.000 A 
ATOM      7  C   UNL     1       2.436   8.088  17.816  0.00  0.00    +0.000 A 
ATOM      8  C   UNL     1       2.231   7.279  18.930  0.00  0.00    +0.000 A 
ATOM      9  C   UNL     1       1.588   7.832  20.047  0.00  0.00    +0.000 A 
ATOM     10  C   UNL     1       1.179   9.181  20.038  0.00  0.00    +0.000 A 
BRANCH   5  14
ATOM     11  C   UNL     1       1.442  14.952  18.891  0.00  0.00    +0.000 C 
ATOM     12  N   UNL     1       1.022  13.573  18.848  0.00  0.00    +0.000 N 
ATOM     13  C   UNL     1       1.824  12.468  18.787  0.00  0.00    +0.000 A 
ATOM     14  C   UNL     1       0.983  11.378  18.852  0.00  0.00    +0.000 A 
ATOM     15  C   UNL     1      -0.310  11.950  18.928  0.00  0.00    +0.000 A 
ATOM     16  N   UNL     1      -0.289  13.284  18.919  0.00  0.00    +0.000 NA
ENDBRANCH   5  14
ENDBRANCH   1   8
BRANCH   2  17
ATOM     17  C   UNL     1       2.765   3.598  18.430  0.00  0.00    +0.000 A 
ATOM     18  C   UNL     1       2.156   2.375  18.647  0.00  0.00    +0.000 A 
ATOM     19  N   UNL     1       3.156   1.454  18.616  0.00  0.00    +0.000 N 
ATOM     20  N   UNL     1       4.377   1.990  18.530  0.00  0.00    +0.000 NA
ATOM     21  C   UNL     1       4.172   3.304  18.341  0.00  0.00    +0.000 A 
ATOM     22  H   UNL     1       3.082   0.442  18.654  0.00  0.00    +0.000 HD
BRANCH  21  23
ATOM     23  C   UNL     1       5.293   4.242  18.143  0.00  0.00    +0.000 A 
ATOM     24  C   UNL     1       5.956   4.756  19.276  0.00  0.00    +0.000 A 
ATOM     25  C   UNL     1       6.969   5.713  19.166  0.00  0.00    +0.000 A 
ATOM     26  C   UNL     1       7.381   6.143  17.913  0.00  0.00    +0.000 A 
ATOM     27  C   UNL     1       6.777   5.616  16.773  0.00  0.00    +0.000 A 
ATOM     28  C   UNL     1       5.733   4.681  16.879  0.00  0.00    +0.000 A 
ATOM     29 CL   UNL     1       5.020   4.174  15.382  0.00  0.00    +0.000 Cl
ENDBRANCH  21  23
ENDBRANCH   2  17
TORSDOF 4
ENDMDL
MODEL 9
REMARK VINA RESULT:      -8.0      2.005      3.651
REMARK  Name = 
REMARK  5 active torsions:
REMARK  status: ('A' for Active; 'I' for Inactive)
REMARK    1  A    between atoms: C_1  and  N_2
REMARK    2  A    between atoms: C_4  and  C_5
REMARK    3  A    between atoms: C_8  and  N_9
REMARK    4  A    between atoms: C_10  and  C_12
REMARK    5  A    between atoms: C_16  and  C_17
REMARK                            x       y       z     vdW  Elec       q    Type
REMARK                         _______ _______ _______ _____ _____    ______ ____
ROOT
ATOM      1  N   UNL     1       3.010   6.855  19.190  0.00  0.00    +0.000 N 
ATOM      2  C   UNL     1       3.893   6.608  18.148  0.00  0.00    +0.000 C 
ATOM      3  O   UNL     1       3.983   7.269  17.120  0.00  0.00    +0.000 OA
ATOM      4  H   UNL     1       3.107   6.288  20.020  0.00  0.00    +0.000 HD
ENDROOT
BRANCH   1   8
ATOM      5  C   UNL     1       0.227  10.058  19.442  0.00  0.00    +0.000 A 
ATOM      6  C   UNL     1       0.830   9.742  18.224  0.00  0.00    +0.000 A 
ATOM      7  C   UNL     1       1.737   8.686  18.126  0.00  0.00    +0.000 A 
ATOM      8  C   UNL     1       2.077   7.920  19.239  0.00  0.00    +0.000 A 
ATOM      9  C   UNL     1       1.470   8.224  20.466  0.00  0.00    +0.000 A 
ATOM     10  C   UNL     1       0.554   9.290  20.565  0.00  0.00    +0.000 A 
BRANCH   5  14
ATOM     11  C   UNL     1      -2.117  14.246  20.711  0.00  0.00    +0.000 C 
ATOM     12  N   UNL     1      -1.747  13.010  20.067  0.00  0.00    +0.000 N 
ATOM     13  C   UNL     1      -0.590  12.304  20.242  0.00  0.00    +0.000 A 
ATOM     14  C   UNL     1      -0.721  11.157  19.488  0.00  0.00    +0.000 A 
ATOM     15  C   UNL     1      -1.994  11.292  18.882  0.00  0.00    +0.000 A 
ATOM     16  N   UNL     1      -2.616  12.421  19.228  0.00  0.00    +0.000 NA
ENDBRANCH   5  14
ENDBRANCH   1   8
BRANCH   2  17
ATOM     17  C   UNL     1       4.806   5.497  18.369  0.00  0.00    +0.000 A 
ATOM     18  C   UNL     1       6.151   5.443  18.049  0.00  0.00    +0.000 A 
ATOM     19  N   UNL     1       6.608   4.273  18.571  0.00  0.00    +0.000 N 
ATOM     20  N   UNL     1       5.646   3.503  19.087  0.00  0.00    +0.000 NA
ATOM     21  C   UNL     1       4.534   4.255  19.046  0.00  0.00    +0.000 A 
ATOM     22  H   UNL     1       7.563   3.930  18.607  0.00  0.00    +0.000 HD
BRANCH  21  23
ATOM     23  C   UNL     1       3.249   3.769  19.585  0.00  0.00    +0.000 A 
ATOM     24  C   UNL     1       3.058   3.766  20.982  0.00  0.00    +0.000 A 
ATOM     25  C   UNL     1       1.902   3.240  21.566  0.00  0.00    +0.000 A 
ATOM     26  C   UNL     1       0.882   2.751  20.762  0.00  0.00    +0.000 A 
ATOM     27  C   UNL     1       1.023   2.785  19.376  0.00  0.00    +0.000 A 
ATOM     28  C   UNL     1       2.200   3.279  18.785  0.00  0.00    +0.000 A 
ATOM     29 CL   UNL     1       2.270   3.186  17.055  0.00  0.00    +0.000 Cl
ENDBRANCH  21  23
ENDBRANCH   2  17
TORSDOF 4
ENDMDL
