MODEL 1
REMARK VINA RESULT:      -8.4      0.000      0.000
REMARK  Name = 
REMARK  2 active torsions:
REMARK  status: ('A' for Active; 'I' for Inactive)
REMARK    1  A    between atoms: C_9  and  S_10
REMARK    2  A    between atoms: S_10  and  N_13
REMARK                            x       y       z     vdW  Elec       q    Type
REMARK                         _______ _______ _______ _____ _____    ______ ____
ROOT
ATOM      1  S   UNL     1       5.931   5.441  18.133  0.00  0.00    +0.000 S 
ATOM      2  O   UNL     1       6.606   4.392  18.866  0.00  0.00    +0.000 OA
ATOM      3  O   UNL     1       6.541   6.757  18.062  0.00  0.00    +0.000 OA
ENDROOT
BRANCH   1  12
ATOM      4  O   UNL     1       8.550   5.917  13.441  0.00  0.00    +0.000 OA
ATOM      5  C   UNL     1       7.697   5.071  13.203  0.00  0.00    +0.000 C 
ATOM      6  N   UNL     1       7.654   4.406  12.001  0.00  0.00    +0.000 N 
ATOM      7  C   UNL     1       6.859   3.212  11.827  0.00  0.00    +0.000 C 
ATOM      8  C   UNL     1       5.464   3.389  12.418  0.00  0.00    +0.000 C 
ATOM      9  C   UNL     1       5.562   3.906  13.831  0.00  0.00    +0.000 A 
ATOM     10  C   UNL     1       4.565   3.614  14.770  0.00  0.00    +0.000 A 
ATOM     11  C   UNL     1       4.657   4.116  16.072  0.00  0.00    +0.000 A 
ATOM     12  C   UNL     1       5.742   4.920  16.436  0.00  0.00    +0.000 A 
ATOM     13  C   UNL     1       6.747   5.212  15.507  0.00  0.00    +0.000 A 
ATOM     14  C   UNL     1       6.646   4.723  14.200  0.00  0.00    +0.000 A 
ATOM     15  H   UNL     1       8.443   4.586  11.391  0.00  0.00    +0.000 HD
ENDBRANCH   1  12
BRANCH   1  16
ATOM     16  N   UNL     1       4.356   5.632  18.693  0.00  0.00    +0.000 N 
ATOM     17  C   UNL     1       3.516   6.703  18.125  0.00  0.00    +0.000 C 
ATOM     18  C   UNL     1       2.717   7.310  19.272  0.00  0.00    +0.000 C 
ATOM     19  O   UNL     1       1.869   6.353  19.919  0.00  0.00    +0.000 OA
ATOM     20  C   UNL     1       2.441   5.114  20.113  0.00  0.00    +0.000 A 
ATOM     21  C   UNL     1       1.712   4.276  20.965  0.00  0.00    +0.000 A 
ATOM     22  C   UNL     1       2.149   2.979  21.213  0.00  0.00    +0.000 A 
ATOM     23  C   UNL     1       3.281   2.505  20.560  0.00  0.00    +0.000 A 
ATOM     24  C   UNL     1       3.990   3.333  19.686  0.00  0.00    +0.000 A 
ATOM     25  F   UNL     1       4.984   2.764  18.996  0.00  0.00    +0.000 F 
ATOM     26  C   UNL     1       3.623   4.666  19.482  0.00  0.00    +0.000 A 
ENDBRANCH   1  16
TORSDOF 2
ENDMDL
MODEL 2
REMARK VINA RESULT:      -7.6      2.673      6.601
REMARK  Name = 
REMARK  2 active torsions:
REMARK  status: ('A' for Active; 'I' for Inactive)
REMARK    1  A    between atoms: C_9  and  S_10
REMARK    2  A    between atoms: S_10  and  N_13
REMARK                            x       y       z     vdW  Elec       q    Type
REMARK                         _______ _______ _______ _____ _____    ______ ____
ROOT
ATOM      1  S   UNL     1       2.999   3.748  18.133  0.00  0.00    +0.000 S 
ATOM      2  O   UNL     1       3.286   2.733  19.123  0.00  0.00    +0.000 OA
ATOM      3  O   UNL     1       1.952   3.505  17.156  0.00  0.00    +0.000 OA
ENDROOT
BRANCH   1  12
ATOM      4  O   UNL     1       2.568   9.023  17.087  0.00  0.00    +0.000 OA
ATOM      5  C   UNL     1       2.003   8.903  18.168  0.00  0.00    +0.000 C 
ATOM      6  N   UNL     1       1.350   9.955  18.762  0.00  0.00    +0.000 N 
ATOM      7  C   UNL     1       0.437   9.752  19.864  0.00  0.00    +0.000 C 
ATOM      8  C   UNL     1       1.029   8.803  20.901  0.00  0.00    +0.000 C 
ATOM      9  C   UNL     1       1.530   7.550  20.230  0.00  0.00    +0.000 A 
ATOM     10  C   UNL     1       1.566   6.333  20.923  0.00  0.00    +0.000 A 
ATOM     11  C   UNL     1       2.052   5.182  20.296  0.00  0.00    +0.000 A 
ATOM     12  C   UNL     1       2.513   5.244  18.977  0.00  0.00    +0.000 A 
ATOM     13  C   UNL     1       2.474   6.454  18.274  0.00  0.00    +0.000 A 
ATOM     14  C   UNL     1       2.003   7.609  18.907  0.00  0.00    +0.000 A 
ATOM     15  H   UNL     1       1.276  10.786  18.186  0.00  0.00    +0.000 HD
ENDBRANCH   1  12
BRANCH   1  16
ATOM     16  N   UNL     1       4.397   4.170  17.299  0.00  0.00    +0.000 N 
ATOM     17  C   UNL     1       4.332   4.364  15.839  0.00  0.00    +0.000 C 
ATOM     18  C   UNL     1       5.600   3.764  15.243  0.00  0.00    +0.000 C 
ATOM     19  O   UNL     1       6.790   4.389  15.740  0.00  0.00    +0.000 OA
ATOM     20  C   UNL     1       6.777   4.666  17.090  0.00  0.00    +0.000 A 
ATOM     21  C   UNL     1       8.024   5.034  17.610  0.00  0.00    +0.000 A 
ATOM     22  C   UNL     1       8.147   5.385  18.949  0.00  0.00    +0.000 A 
ATOM     23  C   UNL     1       7.011   5.426  19.750  0.00  0.00    +0.000 A 
ATOM     24  C   UNL     1       5.763   5.088  19.222  0.00  0.00    +0.000 A 
ATOM     25  F   UNL     1       4.704   5.284  20.016  0.00  0.00    +0.000 F 
ATOM     26  C   UNL     1       5.621   4.651  17.902  0.00  0.00    +0.000 A 
ENDBRANCH   1  16
TORSDOF 2
ENDMDL
MODEL 3
REMARK VINA RESULT:      -7.6      2.387      6.885
REMARK  Name = 
REMARK  2 active torsions:
REMARK  status: ('A' for Active; 'I' for Inactive)
REMARK    1  A    between atoms: C_9  and  S_10
REMARK    2  A    between atoms: S_10  and  N_13
REMARK                            x       y       z     vdW  Elec       q    Type
REMARK                         _______ _______ _______ _____ _____    ______ ____
ROOT
ATOM      1  S   UNL     1       3.897   4.357  18.205  0.00  0.00    +0.000 S 
ATOM      2  O   UNL     1       4.202   3.320  19.166  0.00  0.00    +0.000 OA
ATOM      3  O   UNL     1       3.031   4.045  17.081  0.00  0.00    +0.000 OA
ENDROOT
BRANCH   1  12
ATOM      4  O   UNL     1       2.401   9.446  17.220  0.00  0.00    +0.000 OA
ATOM      5  C   UNL     1       1.850   9.191  18.284  0.00  0.00    +0.000 C 
ATOM      6  N   UNL     1       0.979  10.073  18.876  0.00  0.00    +0.000 N 
ATOM      7  C   UNL     1       0.104   9.664  19.952  0.00  0.00    +0.000 C 
ATOM      8  C   UNL     1       0.858   8.840  20.991  0.00  0.00    +0.000 C 
ATOM      9  C   UNL     1       1.624   7.731  20.316  0.00  0.00    +0.000 A 
ATOM     10  C   UNL     1       1.897   6.535  20.992  0.00  0.00    +0.000 A 
ATOM     11  C   UNL     1       2.625   5.522  20.363  0.00  0.00    +0.000 A 
ATOM     12  C   UNL     1       3.092   5.704  19.056  0.00  0.00    +0.000 A 
ATOM     13  C   UNL     1       2.817   6.891  18.369  0.00  0.00    +0.000 A 
ATOM     14  C   UNL     1       2.103   7.912  19.005  0.00  0.00    +0.000 A 
ATOM     15  H   UNL     1       0.746  10.881  18.311  0.00  0.00    +0.000 HD
ENDBRANCH   1  12
BRANCH   1  16
ATOM     16  N   UNL     1       5.312   5.031  17.595  0.00  0.00    +0.000 N 
ATOM     17  C   UNL     1       6.224   5.739  18.511  0.00  0.00    +0.000 C 
ATOM     18  C   UNL     1       6.747   6.967  17.775  0.00  0.00    +0.000 C 
ATOM     19  O   UNL     1       7.463   6.628  16.581  0.00  0.00    +0.000 OA
ATOM     20  C   UNL     1       6.897   5.617  15.835  0.00  0.00    +0.000 A 
ATOM     21  C   UNL     1       7.452   5.470  14.557  0.00  0.00    +0.000 A 
ATOM     22  C   UNL     1       7.006   4.459  13.714  0.00  0.00    +0.000 A 
ATOM     23  C   UNL     1       6.051   3.559  14.173  0.00  0.00    +0.000 A 
ATOM     24  C   UNL     1       5.520   3.689  15.459  0.00  0.00    +0.000 A 
ATOM     25  F   UNL     1       4.710   2.709  15.874  0.00  0.00    +0.000 F 
ATOM     26  C   UNL     1       5.887   4.744  16.299  0.00  0.00    +0.000 A 
ENDBRANCH   1  16
TORSDOF 2
ENDMDL
MODEL 4
REMARK VINA RESULT:      -7.6      5.297      8.201
REMARK  Name = 
REMARK  2 active torsions:
REMARK  status: ('A' for Active; 'I' for Inactive)
REMARK    1  A    between atoms: C_9  and  S_10
REMARK    2  A    between atoms: S_10  and  N_13
REMARK                            x       y       z     vdW  Elec       q    Type
REMARK                         _______ _______ _______ _____ _____    ______ ____
ROOT
ATOM      1  S   UNL     1       0.359   8.998  21.696  0.00  0.00    +0.000 S 
ATOM      2  O   UNL     1      -0.713   8.142  22.156  0.00  0.00    +0.000 OA
ATOM      3  O   UNL     1       1.293   9.541  22.667  0.00  0.00    +0.000 OA
ENDROOT
BRANCH   1  12
ATOM      4  O   UNL     1       2.393   4.031  21.158  0.00  0.00    +0.000 OA
ATOM      5  C   UNL     1       2.598   4.540  20.062  0.00  0.00    +0.000 C 
ATOM      6  N   UNL     1       3.115   3.816  19.016  0.00  0.00    +0.000 N 
ATOM      7  C   UNL     1       3.073   4.315  17.659  0.00  0.00    +0.000 C 
ATOM      8  C   UNL     1       3.506   5.776  17.597  0.00  0.00    +0.000 C 
ATOM      9  C   UNL     1       2.743   6.586  18.613  0.00  0.00    +0.000 A 
ATOM     10  C   UNL     1       2.492   7.948  18.401  0.00  0.00    +0.000 A 
ATOM     11  C   UNL     1       1.800   8.693  19.360  0.00  0.00    +0.000 A 
ATOM     12  C   UNL     1       1.364   8.082  20.540  0.00  0.00    +0.000 A 
ATOM     13  C   UNL     1       1.602   6.721  20.758  0.00  0.00    +0.000 A 
ATOM     14  C   UNL     1       2.309   5.979  19.806  0.00  0.00    +0.000 A 
ATOM     15  H   UNL     1       3.197   2.821  19.189  0.00  0.00    +0.000 HD
ENDBRANCH   1  12
BRANCH   1  16
ATOM     16  N   UNL     1      -0.255  10.280  20.797  0.00  0.00    +0.000 N 
ATOM     17  C   UNL     1      -0.580  10.069  19.374  0.00  0.00    +0.000 C 
ATOM     18  C   UNL     1      -0.146  11.319  18.618  0.00  0.00    +0.000 C 
ATOM     19  O   UNL     1      -0.817  12.500  19.075  0.00  0.00    +0.000 OA
ATOM     20  C   UNL     1      -0.963  12.589  20.442  0.00  0.00    +0.000 A 
ATOM     21  C   UNL     1      -1.381  13.847  20.892  0.00  0.00    +0.000 A 
ATOM     22  C   UNL     1      -1.612  14.064  22.246  0.00  0.00    +0.000 A 
ATOM     23  C   UNL     1      -1.484  13.006  23.138  0.00  0.00    +0.000 A 
ATOM     24  C   UNL     1      -1.096  11.743  22.683  0.00  0.00    +0.000 A 
ATOM     25  F   UNL     1      -1.126  10.749  23.578  0.00  0.00    +0.000 F 
ATOM     26  C   UNL     1      -0.776  11.515  21.342  0.00  0.00    +0.000 A 
ENDBRANCH   1  16
TORSDOF 2
ENDMDL
MODEL 5
REMARK VINA RESULT:      -7.4      2.687      7.135
REMARK  Name = 
REMARK  2 active torsions:
REMARK  status: ('A' for Active; 'I' for Inactive)
REMARK    1  A    between atoms: C_9  and  S_10
REMARK    2  A    between atoms: S_10  and  N_13
REMARK                            x       y       z     vdW  Elec       q    Type
REMARK                         _______ _______ _______ _____ _____    ______ ____
ROOT
ATOM      1  S   UNL     1       3.622   4.888  19.083  0.00  0.00    +0.000 S 
ATOM      2  O   UNL     1       3.676   4.621  20.504  0.00  0.00    +0.000 OA
ATOM      3  O   UNL     1       2.880   3.983  18.223  0.00  0.00    +0.000 OA
ENDROOT
BRANCH   1  12
ATOM      4  O   UNL     1       0.383   8.297  21.729  0.00  0.00    +0.000 OA
ATOM      5  C   UNL     1       0.787   8.966  20.785  0.00  0.00    +0.000 C 
ATOM      6  N   UNL     1       0.485  10.301  20.667  0.00  0.00    +0.000 N 
ATOM      7  C   UNL     1       1.196  11.156  19.742  0.00  0.00    +0.000 C 
ATOM      8  C   UNL     1       1.340  10.491  18.377  0.00  0.00    +0.000 C 
ATOM      9  C   UNL     1       1.895   9.098  18.535  0.00  0.00    +0.000 A 
ATOM     10  C   UNL     1       2.652   8.509  17.514  0.00  0.00    +0.000 A 
ATOM     11  C   UNL     1       3.145   7.210  17.665  0.00  0.00    +0.000 A 
ATOM     12  C   UNL     1       2.874   6.490  18.834  0.00  0.00    +0.000 A 
ATOM     13  C   UNL     1       2.126   7.072  19.862  0.00  0.00    +0.000 A 
ATOM     14  C   UNL     1       1.619   8.366  19.705  0.00  0.00    +0.000 A 
ATOM     15  H   UNL     1       0.013  10.701  21.469  0.00  0.00    +0.000 HD
ENDBRANCH   1  12
BRANCH   1  16
ATOM     16  N   UNL     1       5.174   5.045  18.454  0.00  0.00    +0.000 N 
ATOM     17  C   UNL     1       6.318   5.145  19.378  0.00  0.00    +0.000 C 
ATOM     18  C   UNL     1       7.279   6.178  18.802  0.00  0.00    +0.000 C 
ATOM     19  O   UNL     1       7.765   5.814  17.504  0.00  0.00    +0.000 OA
ATOM     20  C   UNL     1       6.816   5.274  16.664  0.00  0.00    +0.000 A 
ATOM     21  C   UNL     1       7.231   5.163  15.331  0.00  0.00    +0.000 A 
ATOM     22  C   UNL     1       6.389   4.591  14.382  0.00  0.00    +0.000 A 
ATOM     23  C   UNL     1       5.161   4.078  14.781  0.00  0.00    +0.000 A 
ATOM     24  C   UNL     1       4.762   4.162  16.118  0.00  0.00    +0.000 A 
ATOM     25  F   UNL     1       3.632   3.526  16.447  0.00  0.00    +0.000 F 
ATOM     26  C   UNL     1       5.549   4.804  17.078  0.00  0.00    +0.000 A 
ENDBRANCH   1  16
TORSDOF 2
ENDMDL
MODEL 6
REMARK VINA RESULT:      -7.3      5.209      7.931
REMARK  Name = 
REMARK  2 active torsions:
REMARK  status: ('A' for Active; 'I' for Inactive)
REMARK    1  A    between atoms: C_9  and  S_10
REMARK    2  A    between atoms: S_10  and  N_13
REMARK                            x       y       z     vdW  Elec       q    Type
REMARK                         _______ _______ _______ _____ _____    ______ ____
ROOT
ATOM      1  S   UNL     1       0.639  10.293  18.928  0.00  0.00    +0.000 S 
ATOM      2  O   UNL     1       1.294  11.482  18.428  0.00  0.00    +0.000 OA
ATOM      3  O   UNL     1      -0.618   9.877  18.332  0.00  0.00    +0.000 OA
ENDROOT
BRANCH   1  12
ATOM      4  O   UNL     1       1.551   5.474  21.175  0.00  0.00    +0.000 OA
ATOM      5  C   UNL     1       2.225   5.440  20.153  0.00  0.00    +0.000 C 
ATOM      6  N   UNL     1       2.887   4.302  19.762  0.00  0.00    +0.000 N 
ATOM      7  C   UNL     1       3.422   4.161  18.426  0.00  0.00    +0.000 C 
ATOM      8  C   UNL     1       4.170   5.419  17.997  0.00  0.00    +0.000 C 
ATOM      9  C   UNL     1       3.313   6.637  18.230  0.00  0.00    +0.000 A 
ATOM     10  C   UNL     1       3.465   7.781  17.438  0.00  0.00    +0.000 A 
ATOM     11  C   UNL     1       2.677   8.911  17.677  0.00  0.00    +0.000 A 
ATOM     12  C   UNL     1       1.740   8.904  18.715  0.00  0.00    +0.000 A 
ATOM     13  C   UNL     1       1.575   7.763  19.508  0.00  0.00    +0.000 A 
ATOM     14  C   UNL     1       2.375   6.638  19.279  0.00  0.00    +0.000 A 
ATOM     15  H   UNL     1       2.678   3.480  20.315  0.00  0.00    +0.000 HD
ENDBRANCH   1  12
BRANCH   1  16
ATOM     16  N   UNL     1       0.412  10.400  20.591  0.00  0.00    +0.000 N 
ATOM     17  C   UNL     1       1.492   9.960  21.493  0.00  0.00    +0.000 C 
ATOM     18  C   UNL     1       0.840   9.233  22.663  0.00  0.00    +0.000 C 
ATOM     19  O   UNL     1      -0.063  10.070  23.397  0.00  0.00    +0.000 OA
ATOM     20  C   UNL     1      -0.856  10.886  22.619  0.00  0.00    +0.000 A 
ATOM     21  C   UNL     1      -1.901  11.502  23.318  0.00  0.00    +0.000 A 
ATOM     22  C   UNL     1      -2.751  12.388  22.665  0.00  0.00    +0.000 A 
ATOM     23  C   UNL     1      -2.516  12.701  21.332  0.00  0.00    +0.000 A 
ATOM     24  C   UNL     1      -1.454  12.109  20.644  0.00  0.00    +0.000 A 
ATOM     25  F   UNL     1      -1.212  12.563  19.409  0.00  0.00    +0.000 F 
ATOM     26  C   UNL     1      -0.634  11.152  21.249  0.00  0.00    +0.000 A 
ENDBRANCH   1  16
TORSDOF 2
ENDMDL
MODEL 7
REMARK VINA RESULT:      -7.2      4.907      7.287
REMARK  Name = 
REMARK  2 active torsions:
REMARK  status: ('A' for Active; 'I' for Inactive)
REMARK    1  A    between atoms: C_9  and  S_10
REMARK    2  A    between atoms: S_10  and  N_13
REMARK                            x       y       z     vdW  Elec       q    Type
REMARK                         _______ _______ _______ _____ _____    ______ ____
ROOT
ATOM      1  S   UNL     1       1.055   9.846  18.836  0.00  0.00    +0.000 S 
ATOM      2  O   UNL     1       2.000  10.806  18.309  0.00  0.00    +0.000 OA
ATOM      3  O   UNL     1      -0.184   9.609  18.117  0.00  0.00    +0.000 OA
ENDROOT
BRANCH   1  12
ATOM      4  O   UNL     1       4.735   7.001  16.103  0.00  0.00    +0.000 OA
ATOM      5  C   UNL     1       4.593   6.359  17.137  0.00  0.00    +0.000 C 
ATOM      6  N   UNL     1       5.375   5.266  17.421  0.00  0.00    +0.000 N 
ATOM      7  C   UNL     1       5.424   4.698  18.750  0.00  0.00    +0.000 C 
ATOM      8  C   UNL     1       4.025   4.552  19.338  0.00  0.00    +0.000 C 
ATOM      9  C   UNL     1       3.272   5.853  19.213  0.00  0.00    +0.000 A 
ATOM     10  C   UNL     1       2.269   6.190  20.130  0.00  0.00    +0.000 A 
ATOM     11  C   UNL     1       1.565   7.390  19.992  0.00  0.00    +0.000 A 
ATOM     12  C   UNL     1       1.854   8.253  18.929  0.00  0.00    +0.000 A 
ATOM     13  C   UNL     1       2.859   7.928  18.012  0.00  0.00    +0.000 A 
ATOM     14  C   UNL     1       3.553   6.720  18.141  0.00  0.00    +0.000 A 
ATOM     15  H   UNL     1       6.140   5.114  16.774  0.00  0.00    +0.000 HD
ENDBRANCH   1  12
BRANCH   1  16
ATOM     16  N   UNL     1       0.665  10.216  20.430  0.00  0.00    +0.000 N 
ATOM     17  C   UNL     1       1.581   9.801  21.508  0.00  0.00    +0.000 C 
ATOM     18  C   UNL     1       0.724   9.323  22.674  0.00  0.00    +0.000 C 
ATOM     19  O   UNL     1      -0.144  10.348  23.174  0.00  0.00    +0.000 OA
ATOM     20  C   UNL     1      -0.745  11.121  22.204  0.00  0.00    +0.000 A 
ATOM     21  C   UNL     1      -1.776  11.938  22.681  0.00  0.00    +0.000 A 
ATOM     22  C   UNL     1      -2.438  12.804  21.818  0.00  0.00    +0.000 A 
ATOM     23  C   UNL     1      -2.026  12.895  20.494  0.00  0.00    +0.000 A 
ATOM     24  C   UNL     1      -0.975  12.101  20.026  0.00  0.00    +0.000 A 
ATOM     25  F   UNL     1      -0.549  12.343  18.782  0.00  0.00    +0.000 F 
ATOM     26  C   UNL     1      -0.346  11.161  20.848  0.00  0.00    +0.000 A 
ENDBRANCH   1  16
TORSDOF 2
ENDMDL
MODEL 8
REMARK VINA RESULT:      -7.2      6.321      9.793
REMARK  Name = 
REMARK  2 active torsions:
REMARK  status: ('A' for Active; 'I' for Inactive)
REMARK    1  A    between atoms: C_9  and  S_10
REMARK    2  A    between atoms: S_10  and  N_13
REMARK                            x       y       z     vdW  Elec       q    Type
REMARK                         _______ _______ _______ _____ _____    ______ ____
ROOT
ATOM      1  S   UNL     1       0.841  11.766  19.886  0.00  0.00    +0.000 S 
ATOM      2  O   UNL     1       1.610  11.979  18.679  0.00  0.00    +0.000 OA
ATOM      3  O   UNL     1       1.093  12.610  21.041  0.00  0.00    +0.000 OA
ENDROOT
BRANCH   1  12
ATOM      4  O   UNL     1      -2.554  10.879  15.787  0.00  0.00    +0.000 OA
ATOM      5  C   UNL     1      -3.301  11.167  16.715  0.00  0.00    +0.000 C 
ATOM      6  N   UNL     1      -4.667  11.095  16.590  0.00  0.00    +0.000 N 
ATOM      7  C   UNL     1      -5.533  11.134  17.747  0.00  0.00    +0.000 C 
ATOM      8  C   UNL     1      -5.117  12.240  18.709  0.00  0.00    +0.000 C 
ATOM      9  C   UNL     1      -3.641  12.143  19.004  0.00  0.00    +0.000 A 
ATOM     10  C   UNL     1      -3.123  12.598  20.223  0.00  0.00    +0.000 A 
ATOM     11  C   UNL     1      -1.750  12.521  20.476  0.00  0.00    +0.000 A 
ATOM     12  C   UNL     1      -0.889  11.995  19.507  0.00  0.00    +0.000 A 
ATOM     13  C   UNL     1      -1.398  11.531  18.289  0.00  0.00    +0.000 A 
ATOM     14  C   UNL     1      -2.769  11.624  18.029  0.00  0.00    +0.000 A 
ATOM     15  H   UNL     1      -4.991  10.679  15.725  0.00  0.00    +0.000 HD
ENDBRANCH   1  12
BRANCH   1  16
ATOM     16  N   UNL     1       0.954  10.163  20.382  0.00  0.00    +0.000 N 
ATOM     17  C   UNL     1       0.204   9.725  21.573  0.00  0.00    +0.000 C 
ATOM     18  C   UNL     1       1.102   8.771  22.352  0.00  0.00    +0.000 C 
ATOM     19  O   UNL     1       1.472   7.617  21.588  0.00  0.00    +0.000 OA
ATOM     20  C   UNL     1       1.786   7.872  20.271  0.00  0.00    +0.000 A 
ATOM     21  C   UNL     1       2.388   6.795  19.608  0.00  0.00    +0.000 A 
ATOM     22  C   UNL     1       2.716   6.899  18.261  0.00  0.00    +0.000 A 
ATOM     23  C   UNL     1       2.386   8.056  17.566  0.00  0.00    +0.000 A 
ATOM     24  C   UNL     1       1.757   9.118  18.221  0.00  0.00    +0.000 A 
ATOM     25  F   UNL     1       1.351  10.138  17.457  0.00  0.00    +0.000 F 
ATOM     26  C   UNL     1       1.491   9.076  19.593  0.00  0.00    +0.000 A 
ENDBRANCH   1  16
TORSDOF 2
ENDMDL
MODEL 9
REMARK VINA RESULT:      -7.2      4.532      6.339
REMARK  Name = 
REMARK  2 active torsions:
REMARK  status: ('A' for Active; 'I' for Inactive)
REMARK    1  A    between atoms: C_9  and  S_10
REMARK    2  A    between atoms: S_10  and  N_13
REMARK                            x       y       z     vdW  Elec       q    Type
REMARK                         _______ _______ _______ _____ _____    ______ ____
ROOT
ATOM      1  S   UNL     1       2.192   8.368  18.101  0.00  0.00    +0.000 S 
ATOM      2  O   UNL     1       3.467   9.042  17.981  0.00  0.00    +0.000 OA
ATOM      3  O   UNL     1       1.188   8.571  17.071  0.00  0.00    +0.000 OA
ENDROOT
BRANCH   1  12
ATOM      4  O   UNL     1       6.179   4.944  19.318  0.00  0.00    +0.000 OA
ATOM      5  C   UNL     1       5.205   4.211  19.200  0.00  0.00    +0.000 C 
ATOM      6  N   UNL     1       5.272   2.869  19.484  0.00  0.00    +0.000 N 
ATOM      7  C   UNL     1       4.078   2.070  19.642  0.00  0.00    +0.000 C 
ATOM      8  C   UNL     1       3.073   2.357  18.531  0.00  0.00    +0.000 C 
ATOM      9  C   UNL     1       2.850   3.843  18.405  0.00  0.00    +0.000 A 
ATOM     10  C   UNL     1       1.632   4.347  17.933  0.00  0.00    +0.000 A 
ATOM     11  C   UNL     1       1.445   5.726  17.802  0.00  0.00    +0.000 A 
ATOM     12  C   UNL     1       2.480   6.607  18.133  0.00  0.00    +0.000 A 
ATOM     13  C   UNL     1       3.699   6.114  18.613  0.00  0.00    +0.000 A 
ATOM     14  C   UNL     1       3.891   4.733  18.729  0.00  0.00    +0.000 A 
ATOM     15  H   UNL     1       6.144   2.568  19.903  0.00  0.00    +0.000 HD
ENDBRANCH   1  12
BRANCH   1  16
ATOM     16  N   UNL     1       1.484   8.707  19.588  0.00  0.00    +0.000 N 
ATOM     17  C   UNL     1       1.747   7.812  20.730  0.00  0.00    +0.000 C 
ATOM     18  C   UNL     1       0.440   7.657  21.498  0.00  0.00    +0.000 C 
ATOM     19  O   UNL     1      -0.058   8.905  21.995  0.00  0.00    +0.000 OA
ATOM     20  C   UNL     1       0.056   9.962  21.118  0.00  0.00    +0.000 A 
ATOM     21  C   UNL     1      -0.657  11.104  21.503  0.00  0.00    +0.000 A 
ATOM     22  C   UNL     1      -0.594  12.261  20.734  0.00  0.00    +0.000 A 
ATOM     23  C   UNL     1       0.230  12.291  19.615  0.00  0.00    +0.000 A 
ATOM     24  C   UNL     1       0.965  11.161  19.249  0.00  0.00    +0.000 A 
ATOM     25  F   UNL     1       1.835  11.311  18.244  0.00  0.00    +0.000 F 
ATOM     26  C   UNL     1       0.858   9.958  19.954  0.00  0.00    +0.000 A 
ENDBRANCH   1  16
TORSDOF 2
ENDMDL
