MODEL 1
REMARK VINA RESULT:      -9.7      0.000      0.000
REMARK  Name = 
REMARK  6 active torsions:
REMARK  status: ('A' for Active; 'I' for Inactive)
REMARK    1  A    between atoms: C_1  and  C_2
REMARK    2  A    between atoms: C_7  and  N_8
REMARK    3  A    between atoms: C_9  and  C_11
REMARK    4  A    between atoms: C_11  and  O_12
REMARK    5  A    between atoms: C_11  and  C_19
REMARK    6  A    between atoms: O_12  and  C_13
REMARK                            x       y       z     vdW  Elec       q    Type
REMARK                         _______ _______ _______ _____ _____    ______ ____
ROOT
ATOM      1  N   UNL     1       3.148   5.776  18.229  0.00  0.00    +0.000 N 
ATOM      2  C   UNL     1       4.462   5.466  18.607  0.00  0.00    +0.000 C 
ATOM      3  O   UNL     1       5.155   6.226  19.284  0.00  0.00    +0.000 OA
ATOM      4  H   UNL     1       2.997   5.575  17.246  0.00  0.00    +0.000 HD
ENDROOT
BRANCH   1  11
ATOM      5  C   UNL     1      -0.540  11.674  21.661  0.00  0.00    +0.000 C 
ATOM      6  C   UNL     1      -0.082  10.304  21.170  0.00  0.00    +0.000 C 
ATOM      7  O   UNL     1       0.710  10.474  19.991  0.00  0.00    +0.000 OA
ATOM      8  C   UNL     1       1.323   9.308  19.603  0.00  0.00    +0.000 A 
ATOM      9  C   UNL     1       1.688   9.190  18.263  0.00  0.00    +0.000 A 
ATOM     10  C   UNL     1       2.286   8.014  17.803  0.00  0.00    +0.000 A 
ATOM     11  C   UNL     1       2.580   6.982  18.698  0.00  0.00    +0.000 A 
ATOM     12  C   UNL     1       2.282   7.125  20.056  0.00  0.00    +0.000 A 
ATOM     13  C   UNL     1       1.636   8.281  20.501  0.00  0.00    +0.000 A 
ATOM     14  N   UNL     1       1.325   8.435  21.856  0.00  0.00    +0.000 N 
ATOM     15  C   UNL     1       0.589   9.504  22.304  0.00  0.00    +0.000 C 
ATOM     16  O   UNL     1       0.408   9.699  23.496  0.00  0.00    +0.000 OA
ATOM     17  H   UNL     1       1.689   7.800  22.554  0.00  0.00    +0.000 HD
ENDBRANCH   1  11
BRANCH   2  18
ATOM     18  C   UNL     1       4.938   4.064  18.119  0.00  0.00    +0.000 C 
BRANCH  18  19
ATOM     19  C   UNL     1       5.588   4.192  16.745  0.00  0.00    +0.000 A 
ATOM     20  C   UNL     1       6.916   4.636  16.644  0.00  0.00    +0.000 A 
ATOM     21  C   UNL     1       7.480   4.912  15.398  0.00  0.00    +0.000 A 
ATOM     22  C   UNL     1       6.726   4.747  14.239  0.00  0.00    +0.000 A 
ATOM     23  C   UNL     1       5.415   4.282  14.320  0.00  0.00    +0.000 A 
ATOM     24  C   UNL     1       4.848   4.003  15.565  0.00  0.00    +0.000 A 
ENDBRANCH  18  19
BRANCH  18  25
ATOM     25  O   UNL     1       3.873   3.110  18.060  0.00  0.00    +0.000 OA
BRANCH  25  26
ATOM     26  C   UNL     1       3.064   2.946  19.147  0.00  0.00    +0.000 A 
ATOM     27  C   UNL     1       1.693   3.007  18.876  0.00  0.00    +0.000 A 
ATOM     28  C   UNL     1       0.756   2.917  19.911  0.00  0.00    +0.000 A 
ATOM     29  C   UNL     1       1.187   2.742  21.223  0.00  0.00    +0.000 A 
ATOM     30  C   UNL     1       2.547   2.612  21.491  0.00  0.00    +0.000 A 
ATOM     31  C   UNL     1       3.482   2.694  20.454  0.00  0.00    +0.000 A 
ENDBRANCH  25  26
ENDBRANCH  18  25
ENDBRANCH   2  18
TORSDOF 5
ENDMDL
MODEL 2
REMARK VINA RESULT:      -9.4      1.515      4.511
REMARK  Name = 
REMARK  6 active torsions:
REMARK  status: ('A' for Active; 'I' for Inactive)
REMARK    1  A    between atoms: C_1  and  C_2
REMARK    2  A    between atoms: C_7  and  N_8
REMARK    3  A    between atoms: C_9  and  C_11
REMARK    4  A    between atoms: C_11  and  O_12
REMARK    5  A    between atoms: C_11  and  C_19
REMARK    6  A    between atoms: O_12  and  C_13
REMARK                            x       y       z     vdW  Elec       q    Type
REMARK                         _______ _______ _______ _____ _____    ______ ____
ROOT
ATOM      1  N   UNL     1       2.793   6.375  17.641  0.00  0.00    +0.000 N 
ATOM      2  C   UNL     1       4.147   6.399  17.274  0.00  0.00    +0.000 C 
ATOM      3  O   UNL     1       4.875   7.368  17.485  0.00  0.00    +0.000 OA
ATOM      4  H   UNL     1       2.219   6.021  16.884  0.00  0.00    +0.000 HD
ENDROOT
BRANCH   1  11
ATOM      5  C   UNL     1      -0.532  11.633  22.275  0.00  0.00    +0.000 C 
ATOM      6  C   UNL     1      -0.113  10.356  21.553  0.00  0.00    +0.000 C 
ATOM      7  O   UNL     1       0.506  10.707  20.311  0.00  0.00    +0.000 OA
ATOM      8  C   UNL     1       1.088   9.626  19.696  0.00  0.00    +0.000 A 
ATOM      9  C   UNL     1       1.268   9.694  18.315  0.00  0.00    +0.000 A 
ATOM     10  C   UNL     1       1.826   8.611  17.630  0.00  0.00    +0.000 A 
ATOM     11  C   UNL     1       2.266   7.488  18.335  0.00  0.00    +0.000 A 
ATOM     12  C   UNL     1       2.153   7.445  19.728  0.00  0.00    +0.000 A 
ATOM     13  C   UNL     1       1.546   8.508  20.402  0.00  0.00    +0.000 A 
ATOM     14  N   UNL     1       1.421   8.476  21.795  0.00  0.00    +0.000 N 
ATOM     15  C   UNL     1       0.727   9.448  22.473  0.00  0.00    +0.000 C 
ATOM     16  O   UNL     1       0.707   9.483  23.694  0.00  0.00    +0.000 OA
ATOM     17  H   UNL     1       1.893   7.773  22.349  0.00  0.00    +0.000 HD
ENDBRANCH   1  11
BRANCH   2  18
ATOM     18  C   UNL     1       4.636   5.075  16.612  0.00  0.00    +0.000 C 
BRANCH  18  19
ATOM     19  C   UNL     1       4.403   3.907  17.566  0.00  0.00    +0.000 A 
ATOM     20  C   UNL     1       3.518   2.879  17.202  0.00  0.00    +0.000 A 
ATOM     21  C   UNL     1       3.168   1.887  18.118  0.00  0.00    +0.000 A 
ATOM     22  C   UNL     1       3.698   1.907  19.405  0.00  0.00    +0.000 A 
ATOM     23  C   UNL     1       4.598   2.905  19.774  0.00  0.00    +0.000 A 
ATOM     24  C   UNL     1       4.952   3.899  18.860  0.00  0.00    +0.000 A 
ENDBRANCH  18  19
BRANCH  18  25
ATOM     25  O   UNL     1       6.016   5.122  16.238  0.00  0.00    +0.000 OA
BRANCH  25  26
ATOM     26  C   UNL     1       6.366   4.863  14.944  0.00  0.00    +0.000 A 
ATOM     27  C   UNL     1       5.501   4.002  14.261  0.00  0.00    +0.000 A 
ATOM     28  C   UNL     1       5.779   3.606  12.948  0.00  0.00    +0.000 A 
ATOM     29  C   UNL     1       6.915   4.087  12.305  0.00  0.00    +0.000 A 
ATOM     30  C   UNL     1       7.744   4.997  12.956  0.00  0.00    +0.000 A 
ATOM     31  C   UNL     1       7.459   5.399  14.265  0.00  0.00    +0.000 A 
ENDBRANCH  25  26
ENDBRANCH  18  25
ENDBRANCH   2  18
TORSDOF 5
ENDMDL
MODEL 3
REMARK VINA RESULT:      -9.2      2.517      5.057
REMARK  Name = 
REMARK  6 active torsions:
REMARK  status: ('A' for Active; 'I' for Inactive)
REMARK    1  A    between atoms: C_1  and  C_2
REMARK    2  A    between atoms: C_7  and  N_8
REMARK    3  A    between atoms: C_9  and  C_11
REMARK    4  A    between atoms: C_11  and  O_12
REMARK    5  A    between atoms: C_11  and  C_19
REMARK    6  A    between atoms: O_12  and  C_13
REMARK                            x       y       z     vdW  Elec       q    Type
REMARK                         _______ _______ _______ _____ _____    ______ ____
ROOT
ATOM      1  N   UNL     1       1.992   8.458  17.713  0.00  0.00    +0.000 N 
ATOM      2  C   UNL     1       2.323   7.597  18.770  0.00  0.00    +0.000 C 
ATOM      3  O   UNL     1       2.105   7.878  19.948  0.00  0.00    +0.000 OA
ATOM      4  H   UNL     1       2.759   8.535  17.055  0.00  0.00    +0.000 HD
ENDROOT
BRANCH   1  11
ATOM      5  C   UNL     1      -0.654  15.359  20.068  0.00  0.00    +0.000 C 
ATOM      6  C   UNL     1       0.105  14.045  19.906  0.00  0.00    +0.000 C 
ATOM      7  O   UNL     1      -0.682  13.148  19.117  0.00  0.00    +0.000 OA
ATOM      8  C   UNL     1       0.015  12.021  18.760  0.00  0.00    +0.000 A 
ATOM      9  C   UNL     1      -0.725  10.880  18.451  0.00  0.00    +0.000 A 
ATOM     10  C   UNL     1      -0.069   9.694  18.112  0.00  0.00    +0.000 A 
ATOM     11  C   UNL     1       1.324   9.667  18.016  0.00  0.00    +0.000 A 
ATOM     12  C   UNL     1       2.067  10.826  18.255  0.00  0.00    +0.000 A 
ATOM     13  C   UNL     1       1.410  11.996  18.645  0.00  0.00    +0.000 A 
ATOM     14  N   UNL     1       2.140  13.163  18.894  0.00  0.00    +0.000 N 
ATOM     15  C   UNL     1       1.537  14.292  19.391  0.00  0.00    +0.000 C 
ATOM     16  O   UNL     1       2.148  15.343  19.507  0.00  0.00    +0.000 OA
ATOM     17  H   UNL     1       3.120  13.230  18.654  0.00  0.00    +0.000 HD
ENDBRANCH   1  11
BRANCH   2  18
ATOM     18  C   UNL     1       2.956   6.252  18.302  0.00  0.00    +0.000 C 
BRANCH  18  19
ATOM     19  C   UNL     1       2.133   5.084  18.836  0.00  0.00    +0.000 A 
ATOM     20  C   UNL     1       1.973   4.923  20.222  0.00  0.00    +0.000 A 
ATOM     21  C   UNL     1       1.362   3.781  20.739  0.00  0.00    +0.000 A 
ATOM     22  C   UNL     1       0.901   2.787  19.879  0.00  0.00    +0.000 A 
ATOM     23  C   UNL     1       1.028   2.943  18.501  0.00  0.00    +0.000 A 
ATOM     24  C   UNL     1       1.637   4.086  17.980  0.00  0.00    +0.000 A 
ENDBRANCH  18  19
BRANCH  18  25
ATOM     25  O   UNL     1       4.318   6.108  18.717  0.00  0.00    +0.000 OA
BRANCH  25  26
ATOM     26  C   UNL     1       5.243   5.648  17.824  0.00  0.00    +0.000 A 
ATOM     27  C   UNL     1       4.902   5.824  16.479  0.00  0.00    +0.000 A 
ATOM     28  C   UNL     1       5.733   5.341  15.463  0.00  0.00    +0.000 A 
ATOM     29  C   UNL     1       6.923   4.696  15.789  0.00  0.00    +0.000 A 
ATOM     30  C   UNL     1       7.301   4.578  17.124  0.00  0.00    +0.000 A 
ATOM     31  C   UNL     1       6.473   5.071  18.137  0.00  0.00    +0.000 A 
ENDBRANCH  25  26
ENDBRANCH  18  25
ENDBRANCH   2  18
TORSDOF 5
ENDMDL
MODEL 4
REMARK VINA RESULT:      -9.2      1.558      4.437
REMARK  Name = 
REMARK  6 active torsions:
REMARK  status: ('A' for Active; 'I' for Inactive)
REMARK    1  A    between atoms: C_1  and  C_2
REMARK    2  A    between atoms: C_7  and  N_8
REMARK    3  A    between atoms: C_9  and  C_11
REMARK    4  A    between atoms: C_11  and  O_12
REMARK    5  A    between atoms: C_11  and  C_19
REMARK    6  A    between atoms: O_12  and  C_13
REMARK                            x       y       z     vdW  Elec       q    Type
REMARK                         _______ _______ _______ _____ _____    ______ ____
ROOT
ATOM      1  N   UNL     1       2.624   6.447  17.765  0.00  0.00    +0.000 N 
ATOM      2  C   UNL     1       3.973   6.426  17.381  0.00  0.00    +0.000 C 
ATOM      3  O   UNL     1       4.732   7.376  17.571  0.00  0.00    +0.000 OA
ATOM      4  H   UNL     1       2.030   6.103  17.020  0.00  0.00    +0.000 HD
ENDROOT
BRANCH   1  11
ATOM      5  C   UNL     1      -0.540  11.848  22.348  0.00  0.00    +0.000 C 
ATOM      6  C   UNL     1      -0.172  10.555  21.625  0.00  0.00    +0.000 C 
ATOM      7  O   UNL     1       0.506  10.880  20.408  0.00  0.00    +0.000 OA
ATOM      8  C   UNL     1       1.044   9.773  19.800  0.00  0.00    +0.000 A 
ATOM      9  C   UNL     1       1.272   9.843  18.426  0.00  0.00    +0.000 A 
ATOM     10  C   UNL     1       1.789   8.735  17.748  0.00  0.00    +0.000 A 
ATOM     11  C   UNL     1       2.140   7.583  18.455  0.00  0.00    +0.000 A 
ATOM     12  C   UNL     1       1.980   7.534  19.842  0.00  0.00    +0.000 A 
ATOM     13  C   UNL     1       1.414   8.624  20.508  0.00  0.00    +0.000 A 
ATOM     14  N   UNL     1       1.241   8.587  21.896  0.00  0.00    +0.000 N 
ATOM     15  C   UNL     1       0.583   9.592  22.562  0.00  0.00    +0.000 C 
ATOM     16  O   UNL     1       0.525   9.617  23.782  0.00  0.00    +0.000 OA
ATOM     17  H   UNL     1       1.654   7.853  22.457  0.00  0.00    +0.000 HD
ENDBRANCH   1  11
BRANCH   2  18
ATOM     18  C   UNL     1       4.413   5.082  16.727  0.00  0.00    +0.000 C 
BRANCH  18  19
ATOM     19  C   UNL     1       4.126   3.928  17.682  0.00  0.00    +0.000 A 
ATOM     20  C   UNL     1       4.814   3.850  18.904  0.00  0.00    +0.000 A 
ATOM     21  C   UNL     1       4.687   2.726  19.720  0.00  0.00    +0.000 A 
ATOM     22  C   UNL     1       3.871   1.668  19.329  0.00  0.00    +0.000 A 
ATOM     23  C   UNL     1       3.161   1.741  18.133  0.00  0.00    +0.000 A 
ATOM     24  C   UNL     1       3.284   2.865  17.313  0.00  0.00    +0.000 A 
ENDBRANCH  18  19
BRANCH  18  25
ATOM     25  O   UNL     1       5.797   5.072  16.364  0.00  0.00    +0.000 OA
BRANCH  25  26
ATOM     26  C   UNL     1       6.150   4.729  15.090  0.00  0.00    +0.000 A 
ATOM     27  C   UNL     1       7.336   5.310  14.631  0.00  0.00    +0.000 A 
ATOM     28  C   UNL     1       7.778   5.092  13.322  0.00  0.00    +0.000 A 
ATOM     29  C   UNL     1       7.044   4.271  12.470  0.00  0.00    +0.000 A 
ATOM     30  C   UNL     1       5.899   3.635  12.943  0.00  0.00    +0.000 A 
ATOM     31  C   UNL     1       5.464   3.847  14.255  0.00  0.00    +0.000 A 
ENDBRANCH  25  26
ENDBRANCH  18  25
ENDBRANCH   2  18
TORSDOF 5
ENDMDL
MODEL 5
REMARK VINA RESULT:      -9.0      2.507      5.232
REMARK  Name = 
REMARK  6 active torsions:
REMARK  status: ('A' for Active; 'I' for Inactive)
REMARK    1  A    between atoms: C_1  and  C_2
REMARK    2  A    between atoms: C_7  and  N_8
REMARK    3  A    between atoms: C_9  and  C_11
REMARK    4  A    between atoms: C_11  and  O_12
REMARK    5  A    between atoms: C_11  and  C_19
REMARK    6  A    between atoms: O_12  and  C_13
REMARK                            x       y       z     vdW  Elec       q    Type
REMARK                         _______ _______ _______ _____ _____    ______ ____
ROOT
ATOM      1  N   UNL     1       2.084   8.506  17.688  0.00  0.00    +0.000 N 
ATOM      2  C   UNL     1       2.341   7.590  18.718  0.00  0.00    +0.000 C 
ATOM      3  O   UNL     1       2.030   7.804  19.890  0.00  0.00    +0.000 OA
ATOM      4  H   UNL     1       2.899   8.623  17.096  0.00  0.00    +0.000 HD
ENDROOT
BRANCH   1  11
ATOM      5  C   UNL     1      -0.749  15.306  20.120  0.00  0.00    +0.000 C 
ATOM      6  C   UNL     1       0.045  14.014  19.943  0.00  0.00    +0.000 C 
ATOM      7  O   UNL     1      -0.717  13.106  19.142  0.00  0.00    +0.000 OA
ATOM      8  C   UNL     1       0.011  12.002  18.773  0.00  0.00    +0.000 A 
ATOM      9  C   UNL     1      -0.698  10.846  18.449  0.00  0.00    +0.000 A 
ATOM     10  C   UNL     1      -0.010   9.681  18.097  0.00  0.00    +0.000 A 
ATOM     11  C   UNL     1       1.384   9.693  18.004  0.00  0.00    +0.000 A 
ATOM     12  C   UNL     1       2.094  10.869  18.258  0.00  0.00    +0.000 A 
ATOM     13  C   UNL     1       1.406  12.016  18.661  0.00  0.00    +0.000 A 
ATOM     14  N   UNL     1       2.105  13.198  18.925  0.00  0.00    +0.000 N 
ATOM     15  C   UNL     1       1.470  14.305  19.434  0.00  0.00    +0.000 C 
ATOM     16  O   UNL     1       2.053  15.371  19.564  0.00  0.00    +0.000 OA
ATOM     17  H   UNL     1       3.083  13.295  18.688  0.00  0.00    +0.000 HD
ENDBRANCH   1  11
BRANCH   2  18
ATOM     18  C   UNL     1       3.021   6.275  18.229  0.00  0.00    +0.000 C 
BRANCH  18  19
ATOM     19  C   UNL     1       2.406   5.080  18.951  0.00  0.00    +0.000 A 
ATOM     20  C   UNL     1       1.621   4.164  18.232  0.00  0.00    +0.000 A 
ATOM     21  C   UNL     1       0.921   3.155  18.896  0.00  0.00    +0.000 A 
ATOM     22  C   UNL     1       0.998   3.049  20.282  0.00  0.00    +0.000 A 
ATOM     23  C   UNL     1       1.794   3.933  21.006  0.00  0.00    +0.000 A 
ATOM     24  C   UNL     1       2.497   4.942  20.346  0.00  0.00    +0.000 A 
ENDBRANCH  18  19
BRANCH  18  25
ATOM     25  O   UNL     1       4.438   6.279  18.426  0.00  0.00    +0.000 OA
BRANCH  25  26
ATOM     26  C   UNL     1       5.246   5.745  17.464  0.00  0.00    +0.000 A 
ATOM     27  C   UNL     1       6.385   5.091  17.947  0.00  0.00    +0.000 A 
ATOM     28  C   UNL     1       7.328   4.554  17.065  0.00  0.00    +0.000 A 
ATOM     29  C   UNL     1       7.125   4.650  15.692  0.00  0.00    +0.000 A 
ATOM     30  C   UNL     1       5.961   5.238  15.205  0.00  0.00    +0.000 A 
ATOM     31  C   UNL     1       5.015   5.766  16.089  0.00  0.00    +0.000 A 
ENDBRANCH  25  26
ENDBRANCH  18  25
ENDBRANCH   2  18
TORSDOF 5
ENDMDL
MODEL 6
REMARK VINA RESULT:      -8.9      2.588      5.189
REMARK  Name = 
REMARK  6 active torsions:
REMARK  status: ('A' for Active; 'I' for Inactive)
REMARK    1  A    between atoms: C_1  and  C_2
REMARK    2  A    between atoms: C_7  and  N_8
REMARK    3  A    between atoms: C_9  and  C_11
REMARK    4  A    between atoms: C_11  and  O_12
REMARK    5  A    between atoms: C_11  and  C_19
REMARK    6  A    between atoms: O_12  and  C_13
REMARK                            x       y       z     vdW  Elec       q    Type
REMARK                         _______ _______ _______ _____ _____    ______ ____
ROOT
ATOM      1  N   UNL     1       1.932   8.339  17.722  0.00  0.00    +0.000 N 
ATOM      2  C   UNL     1       2.223   7.463  18.778  0.00  0.00    +0.000 C 
ATOM      3  O   UNL     1       2.085   7.777  19.959  0.00  0.00    +0.000 OA
ATOM      4  H   UNL     1       2.675   8.333  17.031  0.00  0.00    +0.000 HD
ENDROOT
BRANCH   1  11
ATOM      5  C   UNL     1       0.105  15.520  20.018  0.00  0.00    +0.000 C 
ATOM      6  C   UNL     1       0.732  14.140  19.843  0.00  0.00    +0.000 C 
ATOM      7  O   UNL     1      -0.197  13.290  19.163  0.00  0.00    +0.000 OA
ATOM      8  C   UNL     1       0.367  12.094  18.793  0.00  0.00    +0.000 A 
ATOM      9  C   UNL     1      -0.492  11.013  18.597  0.00  0.00    +0.000 A 
ATOM     10  C   UNL     1       0.028   9.763  18.250  0.00  0.00    +0.000 A 
ATOM     11  C   UNL     1       1.400   9.611  18.033  0.00  0.00    +0.000 A 
ATOM     12  C   UNL     1       2.256  10.708  18.159  0.00  0.00    +0.000 A 
ATOM     13  C   UNL     1       1.739  11.943  18.557  0.00  0.00    +0.000 A 
ATOM     14  N   UNL     1       2.585  13.049  18.693  0.00  0.00    +0.000 N 
ATOM     15  C   UNL     1       2.127  14.242  19.194  0.00  0.00    +0.000 C 
ATOM     16  O   UNL     1       2.833  15.239  19.214  0.00  0.00    +0.000 OA
ATOM     17  H   UNL     1       3.541  13.022  18.365  0.00  0.00    +0.000 HD
ENDBRANCH   1  11
BRANCH   2  18
ATOM     18  C   UNL     1       2.701   6.056  18.306  0.00  0.00    +0.000 C 
BRANCH  18  19
ATOM     19  C   UNL     1       2.121   4.983  19.222  0.00  0.00    +0.000 A 
ATOM     20  C   UNL     1       2.515   4.932  20.569  0.00  0.00    +0.000 A 
ATOM     21  C   UNL     1       2.123   3.870  21.384  0.00  0.00    +0.000 A 
ATOM     22  C   UNL     1       1.333   2.848  20.866  0.00  0.00    +0.000 A 
ATOM     23  C   UNL     1       0.912   2.896  19.539  0.00  0.00    +0.000 A 
ATOM     24  C   UNL     1       1.300   3.958  18.720  0.00  0.00    +0.000 A 
ENDBRANCH  18  19
BRANCH  18  25
ATOM     25  O   UNL     1       4.127   5.939  18.273  0.00  0.00    +0.000 OA
BRANCH  25  26
ATOM     26  C   UNL     1       4.734   5.498  17.132  0.00  0.00    +0.000 A 
ATOM     27  C   UNL     1       4.934   4.116  17.067  0.00  0.00    +0.000 A 
ATOM     28  C   UNL     1       5.602   3.542  15.980  0.00  0.00    +0.000 A 
ATOM     29  C   UNL     1       6.054   4.348  14.940  0.00  0.00    +0.000 A 
ATOM     30  C   UNL     1       5.797   5.716  14.966  0.00  0.00    +0.000 A 
ATOM     31  C   UNL     1       5.121   6.287  16.049  0.00  0.00    +0.000 A 
ENDBRANCH  25  26
ENDBRANCH  18  25
ENDBRANCH   2  18
TORSDOF 5
ENDMDL
MODEL 7
REMARK VINA RESULT:      -8.9      0.910      1.318
REMARK  Name = 
REMARK  6 active torsions:
REMARK  status: ('A' for Active; 'I' for Inactive)
REMARK    1  A    between atoms: C_1  and  C_2
REMARK    2  A    between atoms: C_7  and  N_8
REMARK    3  A    between atoms: C_9  and  C_11
REMARK    4  A    between atoms: C_11  and  O_12
REMARK    5  A    between atoms: C_11  and  C_19
REMARK    6  A    between atoms: O_12  and  C_13
REMARK                            x       y       z     vdW  Elec       q    Type
REMARK                         _______ _______ _______ _____ _____    ______ ____
ROOT
ATOM      1  N   UNL     1       2.627   6.426  18.648  0.00  0.00    +0.000 N 
ATOM      2  C   UNL     1       3.868   6.389  17.997  0.00  0.00    +0.000 C 
ATOM      3  O   UNL     1       4.452   7.406  17.624  0.00  0.00    +0.000 OA
ATOM      4  H   UNL     1       1.991   5.740  18.255  0.00  0.00    +0.000 HD
ENDROOT
BRANCH   1  11
ATOM      5  C   UNL     1      -1.150  12.732  21.128  0.00  0.00    +0.000 C 
ATOM      6  C   UNL     1      -0.694  11.307  20.824  0.00  0.00    +0.000 C 
ATOM      7  O   UNL     1       0.192  11.333  19.700  0.00  0.00    +0.000 OA
ATOM      8  C   UNL     1       0.800  10.121  19.489  0.00  0.00    +0.000 A 
ATOM      9  C   UNL     1       1.263   9.851  18.202  0.00  0.00    +0.000 A 
ATOM     10  C   UNL     1       1.862   8.620  17.920  0.00  0.00    +0.000 A 
ATOM     11  C   UNL     1       2.058   7.687  18.940  0.00  0.00    +0.000 A 
ATOM     12  C   UNL     1       1.660   7.982  20.247  0.00  0.00    +0.000 A 
ATOM     13  C   UNL     1       1.014   9.191  20.513  0.00  0.00    +0.000 A 
ATOM     14  N   UNL     1       0.604   9.497  21.815  0.00  0.00    +0.000 N 
ATOM     15  C   UNL     1      -0.135  10.623  22.086  0.00  0.00    +0.000 C 
ATOM     16  O   UNL     1      -0.402  10.949  23.233  0.00  0.00    +0.000 OA
ATOM     17  H   UNL     1       0.895   8.934  22.603  0.00  0.00    +0.000 HD
ENDBRANCH   1  11
BRANCH   2  18
ATOM     18  C   UNL     1       4.441   4.949  17.828  0.00  0.00    +0.000 C 
BRANCH  18  19
ATOM     19  C   UNL     1       5.315   4.887  16.579  0.00  0.00    +0.000 A 
ATOM     20  C   UNL     1       4.754   4.474  15.359  0.00  0.00    +0.000 A 
ATOM     21  C   UNL     1       5.562   4.257  14.244  0.00  0.00    +0.000 A 
ATOM     22  C   UNL     1       6.938   4.452  14.331  0.00  0.00    +0.000 A 
ATOM     23  C   UNL     1       7.507   4.887  15.525  0.00  0.00    +0.000 A 
ATOM     24  C   UNL     1       6.701   5.107  16.644  0.00  0.00    +0.000 A 
ENDBRANCH  18  19
BRANCH  18  25
ATOM     25  O   UNL     1       3.417   3.953  17.748  0.00  0.00    +0.000 OA
BRANCH  25  26
ATOM     26  C   UNL     1       2.830   3.505  18.897  0.00  0.00    +0.000 A 
ATOM     27  C   UNL     1       1.441   3.357  18.831  0.00  0.00    +0.000 A 
ATOM     28  C   UNL     1       0.711   2.966  19.958  0.00  0.00    +0.000 A 
ATOM     29  C   UNL     1       1.372   2.699  21.154  0.00  0.00    +0.000 A 
ATOM     30  C   UNL     1       2.761   2.778  21.207  0.00  0.00    +0.000 A 
ATOM     31  C   UNL     1       3.490   3.161  20.077  0.00  0.00    +0.000 A 
ENDBRANCH  25  26
ENDBRANCH  18  25
ENDBRANCH   2  18
TORSDOF 5
ENDMDL
MODEL 8
REMARK VINA RESULT:      -8.8      1.196      2.104
REMARK  Name = 
REMARK  6 active torsions:
REMARK  status: ('A' for Active; 'I' for Inactive)
REMARK    1  A    between atoms: C_1  and  C_2
REMARK    2  A    between atoms: C_7  and  N_8
REMARK    3  A    between atoms: C_9  and  C_11
REMARK    4  A    between atoms: C_11  and  O_12
REMARK    5  A    between atoms: C_11  and  C_19
REMARK    6  A    between atoms: O_12  and  C_13
REMARK                            x       y       z     vdW  Elec       q    Type
REMARK                         _______ _______ _______ _____ _____    ______ ____
ROOT
ATOM      1  N   UNL     1       3.262   5.736  18.250  0.00  0.00    +0.000 N 
ATOM      2  C   UNL     1       4.491   5.352  18.805  0.00  0.00    +0.000 C 
ATOM      3  O   UNL     1       5.018   5.960  19.737  0.00  0.00    +0.000 OA
ATOM      4  H   UNL     1       3.306   5.735  17.237  0.00  0.00    +0.000 HD
ENDROOT
BRANCH   1  11
ATOM      5  C   UNL     1       0.322  12.444  20.807  0.00  0.00    +0.000 C 
ATOM      6  C   UNL     1       1.206  11.346  20.222  0.00  0.00    +0.000 C 
ATOM      7  O   UNL     1       0.729  10.076  20.674  0.00  0.00    +0.000 OA
ATOM      8  C   UNL     1       1.348   9.030  20.035  0.00  0.00    +0.000 A 
ATOM      9  C   UNL     1       1.370   7.800  20.691  0.00  0.00    +0.000 A 
ATOM     10  C   UNL     1       2.014   6.707  20.102  0.00  0.00    +0.000 A 
ATOM     11  C   UNL     1       2.575   6.828  18.829  0.00  0.00    +0.000 A 
ATOM     12  C   UNL     1       2.493   8.040  18.138  0.00  0.00    +0.000 A 
ATOM     13  C   UNL     1       1.896   9.143  18.752  0.00  0.00    +0.000 A 
ATOM     14  N   UNL     1       1.811  10.364  18.074  0.00  0.00    +0.000 N 
ATOM     15  C   UNL     1       1.337  11.494  18.693  0.00  0.00    +0.000 C 
ATOM     16  O   UNL     1       1.160  12.534  18.076  0.00  0.00    +0.000 OA
ATOM     17  H   UNL     1       2.035  10.435  17.090  0.00  0.00    +0.000 HD
ENDBRANCH   1  11
BRANCH   2  18
ATOM     18  C   UNL     1       5.098   4.073  18.152  0.00  0.00    +0.000 C 
BRANCH  18  19
ATOM     19  C   UNL     1       5.631   4.409  16.762  0.00  0.00    +0.000 A 
ATOM     20  C   UNL     1       4.875   4.069  15.628  0.00  0.00    +0.000 A 
ATOM     21  C   UNL     1       5.409   4.221  14.348  0.00  0.00    +0.000 A 
ATOM     22  C   UNL     1       6.700   4.715  14.185  0.00  0.00    +0.000 A 
ATOM     23  C   UNL     1       7.453   5.082  15.298  0.00  0.00    +0.000 A 
ATOM     24  C   UNL     1       6.922   4.934  16.581  0.00  0.00    +0.000 A 
ENDBRANCH  18  19
BRANCH  18  25
ATOM     25  O   UNL     1       4.155   3.001  18.058  0.00  0.00    +0.000 OA
BRANCH  25  26
ATOM     26  C   UNL     1       3.205   2.861  19.029  0.00  0.00    +0.000 A 
ATOM     27  C   UNL     1       1.886   2.842  18.566  0.00  0.00    +0.000 A 
ATOM     28  C   UNL     1       0.815   2.767  19.462  0.00  0.00    +0.000 A 
ATOM     29  C   UNL     1       1.061   2.689  20.830  0.00  0.00    +0.000 A 
ATOM     30  C   UNL     1       2.372   2.639  21.294  0.00  0.00    +0.000 A 
ATOM     31  C   UNL     1       3.442   2.705  20.395  0.00  0.00    +0.000 A 
ENDBRANCH  25  26
ENDBRANCH  18  25
ENDBRANCH   2  18
TORSDOF 5
ENDMDL
MODEL 9
REMARK VINA RESULT:      -8.7      1.890      4.509
REMARK  Name = 
REMARK  6 active torsions:
REMARK  status: ('A' for Active; 'I' for Inactive)
REMARK    1  A    between atoms: C_1  and  C_2
REMARK    2  A    between atoms: C_7  and  N_8
REMARK    3  A    between atoms: C_9  and  C_11
REMARK    4  A    between atoms: C_11  and  O_12
REMARK    5  A    between atoms: C_11  and  C_19
REMARK    6  A    between atoms: O_12  and  C_13
REMARK                            x       y       z     vdW  Elec       q    Type
REMARK                         _______ _______ _______ _____ _____    ______ ____
ROOT
ATOM      1  N   UNL     1       2.143   8.033  19.401  0.00  0.00    +0.000 N 
ATOM      2  C   UNL     1       2.218   6.638  19.534  0.00  0.00    +0.000 C 
ATOM      3  O   UNL     1       1.629   6.023  20.423  0.00  0.00    +0.000 OA
ATOM      4  H   UNL     1       3.063   8.432  19.250  0.00  0.00    +0.000 HD
ENDROOT
BRANCH   1  11
ATOM      5  C   UNL     1      -2.370  12.887  23.434  0.00  0.00    +0.000 C 
ATOM      6  C   UNL     1      -1.377  12.257  22.460  0.00  0.00    +0.000 C 
ATOM      7  O   UNL     1      -0.976  10.981  22.966  0.00  0.00    +0.000 OA
ATOM      8  C   UNL     1      -0.239  10.267  22.053  0.00  0.00    +0.000 A 
ATOM      9  C   UNL     1       0.616   9.283  22.548  0.00  0.00    +0.000 A 
ATOM     10  C   UNL     1       1.415   8.547  21.668  0.00  0.00    +0.000 A 
ATOM     11  C   UNL     1       1.307   8.748  20.290  0.00  0.00    +0.000 A 
ATOM     12  C   UNL     1       0.399   9.683  19.786  0.00  0.00    +0.000 A 
ATOM     13  C   UNL     1      -0.358  10.454  20.671  0.00  0.00    +0.000 A 
ATOM     14  N   UNL     1      -1.266  11.398  20.181  0.00  0.00    +0.000 N 
ATOM     15  C   UNL     1      -1.937  12.249  21.024  0.00  0.00    +0.000 C 
ATOM     16  O   UNL     1      -2.809  12.999  20.612  0.00  0.00    +0.000 OA
ATOM     17  H   UNL     1      -1.505  11.437  19.199  0.00  0.00    +0.000 HD
ENDBRANCH   1  11
BRANCH   2  18
ATOM     18  C   UNL     1       3.083   5.954  18.432  0.00  0.00    +0.000 C 
BRANCH  18  19
ATOM     19  C   UNL     1       3.001   4.438  18.584  0.00  0.00    +0.000 A 
ATOM     20  C   UNL     1       3.695   3.806  19.628  0.00  0.00    +0.000 A 
ATOM     21  C   UNL     1       3.765   2.414  19.694  0.00  0.00    +0.000 A 
ATOM     22  C   UNL     1       3.143   1.638  18.720  0.00  0.00    +0.000 A 
ATOM     23  C   UNL     1       2.428   2.248  17.692  0.00  0.00    +0.000 A 
ATOM     24  C   UNL     1       2.354   3.641  17.624  0.00  0.00    +0.000 A 
ENDBRANCH  18  19
BRANCH  18  25
ATOM     25  O   UNL     1       4.452   6.367  18.469  0.00  0.00    +0.000 OA
BRANCH  25  26
ATOM     26  C   UNL     1       5.336   5.825  17.581  0.00  0.00    +0.000 A 
ATOM     27  C   UNL     1       5.000   5.998  16.235  0.00  0.00    +0.000 A 
ATOM     28  C   UNL     1       5.789   5.438  15.225  0.00  0.00    +0.000 A 
ATOM     29  C   UNL     1       6.933   4.718  15.557  0.00  0.00    +0.000 A 
ATOM     30  C   UNL     1       7.310   4.600  16.892  0.00  0.00    +0.000 A 
ATOM     31  C   UNL     1       6.525   5.169  17.900  0.00  0.00    +0.000 A 
ENDBRANCH  25  26
ENDBRANCH  18  25
ENDBRANCH   2  18
TORSDOF 5
ENDMDL
