MODEL 1
REMARK VINA RESULT:     -10.5      0.000      0.000
REMARK  Name = 
REMARK  5 active torsions:
REMARK  status: ('A' for Active; 'I' for Inactive)
REMARK    1  A    between atoms: C_1  and  N_2
REMARK    2  A    between atoms: C_3  and  C_5
REMARK    3  A    between atoms: C_8  and  N_9
REMARK    4  A    between atoms: C_10  and  C_12
REMARK    5  A    between atoms: C_14  and  C_15
REMARK                            x       y       z     vdW  Elec       q    Type
REMARK                         _______ _______ _______ _____ _____    ______ ____
ROOT
ATOM      1  C   UNL     1       2.897   6.324  18.935  0.00  0.00    +0.000 A 
ATOM      2  C   UNL     1       3.744   6.336  17.803  0.00  0.00    +0.000 A 
ATOM      3  C   UNL     1       4.301   5.147  17.324  0.00  0.00    +0.000 A 
ATOM      4  N   UNL     1       3.909   3.966  17.848  0.00  0.00    +0.000 NA
ATOM      5  C   UNL     1       2.982   3.931  18.814  0.00  0.00    +0.000 A 
ATOM      6  C   UNL     1       2.436   2.692  19.110  0.00  0.00    +0.000 A 
ATOM      7  C   UNL     1       1.417   2.547  20.047  0.00  0.00    +0.000 A 
ATOM      8  C   UNL     1       0.997   3.650  20.775  0.00  0.00    +0.000 A 
ATOM      9  C   UNL     1       1.535   4.906  20.500  0.00  0.00    +0.000 A 
ATOM     10  C   UNL     1       2.484   5.082  19.465  0.00  0.00    +0.000 A 
ENDROOT
BRANCH   3  11
ATOM     11  C   UNL     1       5.314   5.030  16.235  0.00  0.00    +0.000 A 
ATOM     12  C   UNL     1       5.136   4.274  15.068  0.00  0.00    +0.000 A 
ATOM     13  C   UNL     1       6.120   4.231  14.071  0.00  0.00    +0.000 A 
ATOM     14  C   UNL     1       7.288   4.951  14.255  0.00  0.00    +0.000 A 
ATOM     15  N   UNL     1       7.523   5.691  15.351  0.00  0.00    +0.000 NA
ATOM     16  C   UNL     1       6.544   5.710  16.300  0.00  0.00    +0.000 A 
ENDBRANCH   3  11
BRANCH   1  18
ATOM     17  N   UNL     1       1.930   7.866  20.662  0.00  0.00    +0.000 N 
ATOM     18  C   UNL     1       2.228   7.622  19.322  0.00  0.00    +0.000 C 
ATOM     19  O   UNL     1       2.018   8.408  18.399  0.00  0.00    +0.000 OA
ATOM     20  H   UNL     1       2.365   7.271  21.361  0.00  0.00    +0.000 HD
BRANCH  17  24
ATOM     21  C   UNL     1      -0.589  10.999  22.269  0.00  0.00    +0.000 A 
ATOM     22  C   UNL     1      -0.012  11.125  21.002  0.00  0.00    +0.000 A 
ATOM     23  C   UNL     1       0.828  10.111  20.472  0.00  0.00    +0.000 A 
ATOM     24  C   UNL     1       1.111   8.936  21.179  0.00  0.00    +0.000 A 
ATOM     25  C   UNL     1       0.511   8.802  22.441  0.00  0.00    +0.000 A 
ATOM     26  C   UNL     1      -0.316   9.819  22.979  0.00  0.00    +0.000 A 
BRANCH  21  29
ATOM     27  C   UNL     1      -3.660  12.587  23.960  0.00  0.00    +0.000 C 
ATOM     28  N   UNL     1      -2.731  11.648  23.365  0.00  0.00    +0.000 N 
ATOM     29  C   UNL     1      -1.475  12.041  22.918  0.00  0.00    +0.000 C 
ATOM     30  O   UNL     1      -1.070  13.190  23.047  0.00  0.00    +0.000 OA
ATOM     31  H   UNL     1      -3.053  10.700  23.247  0.00  0.00    +0.000 HD
ENDBRANCH  21  29
ENDBRANCH  17  24
ENDBRANCH   1  18
TORSDOF 4
ENDMDL
MODEL 2
REMARK VINA RESULT:     -10.1      0.571      1.025
REMARK  Name = 
REMARK  5 active torsions:
REMARK  status: ('A' for Active; 'I' for Inactive)
REMARK    1  A    between atoms: C_1  and  N_2
REMARK    2  A    between atoms: C_3  and  C_5
REMARK    3  A    between atoms: C_8  and  N_9
REMARK    4  A    between atoms: C_10  and  C_12
REMARK    5  A    between atoms: C_14  and  C_15
REMARK                            x       y       z     vdW  Elec       q    Type
REMARK                         _______ _______ _______ _____ _____    ______ ____
ROOT
ATOM      1  C   UNL     1       2.954   6.194  18.837  0.00  0.00    +0.000 A 
ATOM      2  C   UNL     1       3.822   6.228  17.722  0.00  0.00    +0.000 A 
ATOM      3  C   UNL     1       4.341   5.042  17.195  0.00  0.00    +0.000 A 
ATOM      4  N   UNL     1       3.894   3.853  17.654  0.00  0.00    +0.000 NA
ATOM      5  C   UNL     1       2.949   3.808  18.602  0.00  0.00    +0.000 A 
ATOM      6  C   UNL     1       2.351   2.579  18.828  0.00  0.00    +0.000 A 
ATOM      7  C   UNL     1       1.309   2.429  19.740  0.00  0.00    +0.000 A 
ATOM      8  C   UNL     1       0.919   3.512  20.514  0.00  0.00    +0.000 A 
ATOM      9  C   UNL     1       1.510   4.757  20.309  0.00  0.00    +0.000 A 
ATOM     10  C   UNL     1       2.483   4.945  19.300  0.00  0.00    +0.000 A 
ENDROOT
BRANCH   3  11
ATOM     11  C   UNL     1       5.369   4.938  16.118  0.00  0.00    +0.000 A 
ATOM     12  C   UNL     1       5.229   4.153  14.965  0.00  0.00    +0.000 A 
ATOM     13  C   UNL     1       6.224   4.124  13.979  0.00  0.00    +0.000 A 
ATOM     14  C   UNL     1       7.365   4.886  14.160  0.00  0.00    +0.000 A 
ATOM     15  N   UNL     1       7.565   5.654  15.244  0.00  0.00    +0.000 NA
ATOM     16  C   UNL     1       6.575   5.659  16.183  0.00  0.00    +0.000 A 
ENDBRANCH   3  11
BRANCH   1  18
ATOM     17  N   UNL     1       1.845   7.621  20.579  0.00  0.00    +0.000 N 
ATOM     18  C   UNL     1       2.328   7.498  19.276  0.00  0.00    +0.000 C 
ATOM     19  O   UNL     1       2.320   8.394  18.434  0.00  0.00    +0.000 OA
ATOM     20  H   UNL     1       2.123   6.918  21.257  0.00  0.00    +0.000 HD
BRANCH  17  24
ATOM     21  C   UNL     1      -0.553  10.916  22.041  0.00  0.00    +0.000 A 
ATOM     22  C   UNL     1       0.034  10.009  22.929  0.00  0.00    +0.000 A 
ATOM     23  C   UNL     1       0.809   8.916  22.460  0.00  0.00    +0.000 A 
ATOM     24  C   UNL     1       1.034   8.698  21.096  0.00  0.00    +0.000 A 
ATOM     25  C   UNL     1       0.464   9.623  20.208  0.00  0.00    +0.000 A 
ATOM     26  C   UNL     1      -0.323  10.706  20.673  0.00  0.00    +0.000 A 
BRANCH  21  29
ATOM     27  C   UNL     1      -3.501  13.388  22.117  0.00  0.00    +0.000 C 
ATOM     28  N   UNL     1      -2.632  12.268  21.814  0.00  0.00    +0.000 N 
ATOM     29  C   UNL     1      -1.413  12.091  22.456  0.00  0.00    +0.000 C 
ATOM     30  O   UNL     1      -1.030  12.843  23.344  0.00  0.00    +0.000 OA
ATOM     31  H   UNL     1      -2.933  11.645  21.082  0.00  0.00    +0.000 HD
ENDBRANCH  21  29
ENDBRANCH  17  24
ENDBRANCH   1  18
TORSDOF 4
ENDMDL
MODEL 3
REMARK VINA RESULT:      -9.9      2.625      2.962
REMARK  Name = 
REMARK  5 active torsions:
REMARK  status: ('A' for Active; 'I' for Inactive)
REMARK    1  A    between atoms: C_1  and  N_2
REMARK    2  A    between atoms: C_3  and  C_5
REMARK    3  A    between atoms: C_8  and  N_9
REMARK    4  A    between atoms: C_10  and  C_12
REMARK    5  A    between atoms: C_14  and  C_15
REMARK                            x       y       z     vdW  Elec       q    Type
REMARK                         _______ _______ _______ _____ _____    ______ ____
ROOT
ATOM      1  C   UNL     1       2.887   6.210  18.650  0.00  0.00    +0.000 A 
ATOM      2  C   UNL     1       3.772   6.233  17.548  0.00  0.00    +0.000 A 
ATOM      3  C   UNL     1       4.306   5.043  17.046  0.00  0.00    +0.000 A 
ATOM      4  N   UNL     1       3.858   3.858  17.515  0.00  0.00    +0.000 NA
ATOM      5  C   UNL     1       2.897   3.821  18.447  0.00  0.00    +0.000 A 
ATOM      6  C   UNL     1       2.301   2.592  18.680  0.00  0.00    +0.000 A 
ATOM      7  C   UNL     1       1.246   2.450  19.578  0.00  0.00    +0.000 A 
ATOM      8  C   UNL     1       0.838   3.541  20.330  0.00  0.00    +0.000 A 
ATOM      9  C   UNL     1       1.426   4.786  20.118  0.00  0.00    +0.000 A 
ATOM     10  C   UNL     1       2.415   4.965  19.122  0.00  0.00    +0.000 A 
ENDROOT
BRANCH   3  11
ATOM     11  C   UNL     1       5.351   4.929  15.988  0.00  0.00    +0.000 A 
ATOM     12  C   UNL     1       5.215   4.164  14.821  0.00  0.00    +0.000 A 
ATOM     13  C   UNL     1       6.228   4.125  13.853  0.00  0.00    +0.000 A 
ATOM     14  C   UNL     1       7.383   4.857  14.067  0.00  0.00    +0.000 A 
ATOM     15  N   UNL     1       7.579   5.606  15.165  0.00  0.00    +0.000 NA
ATOM     16  C   UNL     1       6.573   5.621  16.085  0.00  0.00    +0.000 A 
ENDBRANCH   3  11
BRANCH   1  18
ATOM     17  N   UNL     1       1.809   8.403  18.076  0.00  0.00    +0.000 N 
ATOM     18  C   UNL     1       2.247   7.516  19.060  0.00  0.00    +0.000 C 
ATOM     19  O   UNL     1       2.126   7.693  20.272  0.00  0.00    +0.000 OA
ATOM     20  H   UNL     1       1.730   8.056  17.125  0.00  0.00    +0.000 HD
BRANCH  17  24
ATOM     21  C   UNL     1       0.628  12.517  18.726  0.00  0.00    +0.000 A 
ATOM     22  C   UNL     1      -0.309  11.482  18.811  0.00  0.00    +0.000 A 
ATOM     23  C   UNL     1       0.064  10.132  18.585  0.00  0.00    +0.000 A 
ATOM     24  C   UNL     1       1.381   9.767  18.279  0.00  0.00    +0.000 A 
ATOM     25  C   UNL     1       2.323  10.805  18.216  0.00  0.00    +0.000 A 
ATOM     26  C   UNL     1       1.951  12.156  18.427  0.00  0.00    +0.000 A 
BRANCH  21  29
ATOM     27  C   UNL     1       1.100  16.335  18.849  0.00  0.00    +0.000 C 
ATOM     28  N   UNL     1       1.302  14.914  18.645  0.00  0.00    +0.000 N 
ATOM     29  C   UNL     1       0.309  13.984  18.927  0.00  0.00    +0.000 C 
ATOM     30  O   UNL     1      -0.803  14.318  19.316  0.00  0.00    +0.000 OA
ATOM     31  H   UNL     1       2.215  14.625  18.331  0.00  0.00    +0.000 HD
ENDBRANCH  21  29
ENDBRANCH  17  24
ENDBRANCH   1  18
TORSDOF 4
ENDMDL
MODEL 4
REMARK VINA RESULT:      -9.6      2.274      2.430
REMARK  Name = 
REMARK  5 active torsions:
REMARK  status: ('A' for Active; 'I' for Inactive)
REMARK    1  A    between atoms: C_1  and  N_2
REMARK    2  A    between atoms: C_3  and  C_5
REMARK    3  A    between atoms: C_8  and  N_9
REMARK    4  A    between atoms: C_10  and  C_12
REMARK    5  A    between atoms: C_14  and  C_15
REMARK                            x       y       z     vdW  Elec       q    Type
REMARK                         _______ _______ _______ _____ _____    ______ ____
ROOT
ATOM      1  C   UNL     1       2.907   6.049  18.551  0.00  0.00    +0.000 A 
ATOM      2  C   UNL     1       3.818   6.127  17.473  0.00  0.00    +0.000 A 
ATOM      3  C   UNL     1       4.330   4.962  16.895  0.00  0.00    +0.000 A 
ATOM      4  N   UNL     1       3.840   3.760  17.265  0.00  0.00    +0.000 NA
ATOM      5  C   UNL     1       2.857   3.682  18.173  0.00  0.00    +0.000 A 
ATOM      6  C   UNL     1       2.224   2.457  18.302  0.00  0.00    +0.000 A 
ATOM      7  C   UNL     1       1.144   2.280  19.165  0.00  0.00    +0.000 A 
ATOM      8  C   UNL     1       0.749   3.324  19.987  0.00  0.00    +0.000 A 
ATOM      9  C   UNL     1       1.375   4.564  19.879  0.00  0.00    +0.000 A 
ATOM     10  C   UNL     1       2.391   4.787  18.920  0.00  0.00    +0.000 A 
ENDROOT
BRANCH   3  11
ATOM     11  C   UNL     1       5.396   4.897  15.853  0.00  0.00    +0.000 A 
ATOM     12  C   UNL     1       5.283   4.184  14.651  0.00  0.00    +0.000 A 
ATOM     13  C   UNL     1       6.315   4.189  13.702  0.00  0.00    +0.000 A 
ATOM     14  C   UNL     1       7.464   4.911  13.970  0.00  0.00    +0.000 A 
ATOM     15  N   UNL     1       7.639   5.610  15.105  0.00  0.00    +0.000 NA
ATOM     16  C   UNL     1       6.614   5.583  16.005  0.00  0.00    +0.000 A 
ENDBRANCH   3  11
BRANCH   1  18
ATOM     17  N   UNL     1       1.826   8.272  18.118  0.00  0.00    +0.000 N 
ATOM     18  C   UNL     1       2.294   7.340  19.043  0.00  0.00    +0.000 C 
ATOM     19  O   UNL     1       2.219   7.462  20.265  0.00  0.00    +0.000 OA
ATOM     20  H   UNL     1       1.709   7.969  17.155  0.00  0.00    +0.000 HD
BRANCH  17  24
ATOM     21  C   UNL     1       0.492  12.310  18.928  0.00  0.00    +0.000 A 
ATOM     22  C   UNL     1       1.775  12.068  18.426  0.00  0.00    +0.000 A 
ATOM     23  C   UNL     1       2.228  10.748  18.171  0.00  0.00    +0.000 A 
ATOM     24  C   UNL     1       1.417   9.629  18.397  0.00  0.00    +0.000 A 
ATOM     25  C   UNL     1       0.123   9.876  18.879  0.00  0.00    +0.000 A 
ATOM     26  C   UNL     1      -0.327  11.192  19.148  0.00  0.00    +0.000 A 
BRANCH  21  29
ATOM     27  C   UNL     1      -1.132  15.177  20.916  0.00  0.00    +0.000 C 
ATOM     28  N   UNL     1      -0.548  13.908  20.532  0.00  0.00    +0.000 N 
ATOM     29  C   UNL     1      -0.060  13.683  19.251  0.00  0.00    +0.000 C 
ATOM     30  O   UNL     1      -0.055  14.559  18.394  0.00  0.00    +0.000 OA
ATOM     31  H   UNL     1      -0.551  13.177  21.226  0.00  0.00    +0.000 HD
ENDBRANCH  21  29
ENDBRANCH  17  24
ENDBRANCH   1  18
TORSDOF 4
ENDMDL
MODEL 5
REMARK VINA RESULT:      -9.5      0.937      1.175
REMARK  Name = 
REMARK  5 active torsions:
REMARK  status: ('A' for Active; 'I' for Inactive)
REMARK    1  A    between atoms: C_1  and  N_2
REMARK    2  A    between atoms: C_3  and  C_5
REMARK    3  A    between atoms: C_8  and  N_9
REMARK    4  A    between atoms: C_10  and  C_12
REMARK    5  A    between atoms: C_14  and  C_15
REMARK                            x       y       z     vdW  Elec       q    Type
REMARK                         _______ _______ _______ _____ _____    ______ ____
ROOT
ATOM      1  C   UNL     1       2.861   6.249  18.967  0.00  0.00    +0.000 A 
ATOM      2  C   UNL     1       3.691   6.264  17.823  0.00  0.00    +0.000 A 
ATOM      3  C   UNL     1       4.270   5.080  17.355  0.00  0.00    +0.000 A 
ATOM      4  N   UNL     1       3.915   3.899  17.904  0.00  0.00    +0.000 NA
ATOM      5  C   UNL     1       3.003   3.858  18.885  0.00  0.00    +0.000 A 
ATOM      6  C   UNL     1       2.492   2.611  19.209  0.00  0.00    +0.000 A 
ATOM      7  C   UNL     1       1.490   2.457  20.163  0.00  0.00    +0.000 A 
ATOM      8  C   UNL     1       1.054   3.562  20.879  0.00  0.00    +0.000 A 
ATOM      9  C   UNL     1       1.557   4.826  20.575  0.00  0.00    +0.000 A 
ATOM     10  C   UNL     1       2.486   5.007  19.524  0.00  0.00    +0.000 A 
ENDROOT
BRANCH   3  11
ATOM     11  C   UNL     1       5.269   4.970  16.253  0.00  0.00    +0.000 A 
ATOM     12  C   UNL     1       6.602   5.395  16.348  0.00  0.00    +0.000 A 
ATOM     13  C   UNL     1       7.496   5.235  15.281  0.00  0.00    +0.000 A 
ATOM     14  C   UNL     1       7.042   4.647  14.113  0.00  0.00    +0.000 A 
ATOM     15  N   UNL     1       5.777   4.223  13.954  0.00  0.00    +0.000 NA
ATOM     16  C   UNL     1       4.935   4.394  15.013  0.00  0.00    +0.000 A 
ENDBRANCH   3  11
BRANCH   1  18
ATOM     17  N   UNL     1       1.963   7.839  20.689  0.00  0.00    +0.000 N 
ATOM     18  C   UNL     1       2.166   7.538  19.342  0.00  0.00    +0.000 C 
ATOM     19  O   UNL     1       1.849   8.265  18.402  0.00  0.00    +0.000 OA
ATOM     20  H   UNL     1       2.478   7.300  21.379  0.00  0.00    +0.000 HD
BRANCH  17  24
ATOM     21  C   UNL     1      -0.579  10.943  22.315  0.00  0.00    +0.000 A 
ATOM     22  C   UNL     1       0.125  11.146  21.125  0.00  0.00    +0.000 A 
ATOM     23  C   UNL     1       0.974  10.141  20.591  0.00  0.00    +0.000 A 
ATOM     24  C   UNL     1       1.139   8.900  21.217  0.00  0.00    +0.000 A 
ATOM     25  C   UNL     1       0.413   8.690  22.399  0.00  0.00    +0.000 A 
ATOM     26  C   UNL     1      -0.423   9.697  22.943  0.00  0.00    +0.000 A 
BRANCH  21  29
ATOM     27  C   UNL     1      -1.816  14.320  23.685  0.00  0.00    +0.000 C 
ATOM     28  N   UNL     1      -1.035  13.281  23.043  0.00  0.00    +0.000 N 
ATOM     29  C   UNL     1      -1.483  11.968  22.966  0.00  0.00    +0.000 C 
ATOM     30  O   UNL     1      -2.581  11.630  23.393  0.00  0.00    +0.000 OA
ATOM     31  H   UNL     1      -0.128  13.545  22.692  0.00  0.00    +0.000 HD
ENDBRANCH  21  29
ENDBRANCH  17  24
ENDBRANCH   1  18
TORSDOF 4
ENDMDL
MODEL 6
REMARK VINA RESULT:      -9.4      0.571      1.260
REMARK  Name = 
REMARK  5 active torsions:
REMARK  status: ('A' for Active; 'I' for Inactive)
REMARK    1  A    between atoms: C_1  and  N_2
REMARK    2  A    between atoms: C_3  and  C_5
REMARK    3  A    between atoms: C_8  and  N_9
REMARK    4  A    between atoms: C_10  and  C_12
REMARK    5  A    between atoms: C_14  and  C_15
REMARK                            x       y       z     vdW  Elec       q    Type
REMARK                         _______ _______ _______ _____ _____    ______ ____
ROOT
ATOM      1  C   UNL     1       2.829   6.238  19.006  0.00  0.00    +0.000 A 
ATOM      2  C   UNL     1       3.672   6.284  17.872  0.00  0.00    +0.000 A 
ATOM      3  C   UNL     1       4.250   5.113  17.373  0.00  0.00    +0.000 A 
ATOM      4  N   UNL     1       3.881   3.917  17.879  0.00  0.00    +0.000 NA
ATOM      5  C   UNL     1       2.957   3.849  18.847  0.00  0.00    +0.000 A 
ATOM      6  C   UNL     1       2.435   2.595  19.123  0.00  0.00    +0.000 A 
ATOM      7  C   UNL     1       1.421   2.417  20.061  0.00  0.00    +0.000 A 
ATOM      8  C   UNL     1       0.983   3.500  20.807  0.00  0.00    +0.000 A 
ATOM      9  C   UNL     1       1.497   4.770  20.551  0.00  0.00    +0.000 A 
ATOM     10  C   UNL     1       2.439   4.980  19.517  0.00  0.00    +0.000 A 
ENDROOT
BRANCH   3  11
ATOM     11  C   UNL     1       5.261   5.033  16.279  0.00  0.00    +0.000 A 
ATOM     12  C   UNL     1       6.532   5.621  16.334  0.00  0.00    +0.000 A 
ATOM     13  C   UNL     1       7.445   5.481  15.279  0.00  0.00    +0.000 A 
ATOM     14  C   UNL     1       7.072   4.750  14.166  0.00  0.00    +0.000 A 
ATOM     15  N   UNL     1       5.868   4.165  14.048  0.00  0.00    +0.000 NA
ATOM     16  C   UNL     1       5.005   4.321  15.093  0.00  0.00    +0.000 A 
ENDBRANCH   3  11
BRANCH   1  18
ATOM     17  N   UNL     1       1.881   7.755  20.765  0.00  0.00    +0.000 N 
ATOM     18  C   UNL     1       2.136   7.517  19.415  0.00  0.00    +0.000 C 
ATOM     19  O   UNL     1       1.870   8.294  18.500  0.00  0.00    +0.000 OA
ATOM     20  H   UNL     1       2.359   7.175  21.449  0.00  0.00    +0.000 HD
BRANCH  17  24
ATOM     21  C   UNL     1      -0.532  10.973  22.368  0.00  0.00    +0.000 A 
ATOM     22  C   UNL     1      -0.546   9.705  22.959  0.00  0.00    +0.000 A 
ATOM     23  C   UNL     1       0.229   8.639  22.432  0.00  0.00    +0.000 A 
ATOM     24  C   UNL     1       1.050   8.803  21.311  0.00  0.00    +0.000 A 
ATOM     25  C   UNL     1       1.080  10.081  20.733  0.00  0.00    +0.000 A 
ATOM     26  C   UNL     1       0.296  11.144  21.248  0.00  0.00    +0.000 A 
BRANCH  21  29
ATOM     27  C   UNL     1      -3.510  13.000  23.722  0.00  0.00    +0.000 C 
ATOM     28  N   UNL     1      -2.645  11.923  23.284  0.00  0.00    +0.000 N 
ATOM     29  C   UNL     1      -1.347  12.155  22.849  0.00  0.00    +0.000 C 
ATOM     30  O   UNL     1      -0.849  13.275  22.859  0.00  0.00    +0.000 OA
ATOM     31  H   UNL     1      -3.044  10.997  23.266  0.00  0.00    +0.000 HD
ENDBRANCH  21  29
ENDBRANCH  17  24
ENDBRANCH   1  18
TORSDOF 4
ENDMDL
MODEL 7
REMARK VINA RESULT:      -8.9      1.726      1.910
REMARK  Name = 
REMARK  5 active torsions:
REMARK  status: ('A' for Active; 'I' for Inactive)
REMARK    1  A    between atoms: C_1  and  N_2
REMARK    2  A    between atoms: C_3  and  C_5
REMARK    3  A    between atoms: C_8  and  N_9
REMARK    4  A    between atoms: C_10  and  C_12
REMARK    5  A    between atoms: C_14  and  C_15
REMARK                            x       y       z     vdW  Elec       q    Type
REMARK                         _______ _______ _______ _____ _____    ______ ____
ROOT
ATOM      1  C   UNL     1       2.976   7.047  18.371  0.00  0.00    +0.000 A 
ATOM      2  C   UNL     1       3.791   6.799  17.243  0.00  0.00    +0.000 A 
ATOM      3  C   UNL     1       4.420   5.561  17.083  0.00  0.00    +0.000 A 
ATOM      4  N   UNL     1       4.128   4.549  17.927  0.00  0.00    +0.000 NA
ATOM      5  C   UNL     1       3.230   4.724  18.906  0.00  0.00    +0.000 A 
ATOM      6  C   UNL     1       2.783   3.583  19.553  0.00  0.00    +0.000 A 
ATOM      7  C   UNL     1       1.801   3.639  20.539  0.00  0.00    +0.000 A 
ATOM      8  C   UNL     1       1.321   4.872  20.955  0.00  0.00    +0.000 A 
ATOM      9  C   UNL     1       1.760   6.034  20.323  0.00  0.00    +0.000 A 
ATOM     10  C   UNL     1       2.667   5.976  19.239  0.00  0.00    +0.000 A 
ENDROOT
BRANCH   3  11
ATOM     11  C   UNL     1       5.411   5.212  16.024  0.00  0.00    +0.000 A 
ATOM     12  C   UNL     1       5.164   4.313  14.976  0.00  0.00    +0.000 A 
ATOM     13  C   UNL     1       6.133   4.053  13.997  0.00  0.00    +0.000 A 
ATOM     14  C   UNL     1       7.355   4.697  14.079  0.00  0.00    +0.000 A 
ATOM     15  N   UNL     1       7.657   5.565  15.060  0.00  0.00    +0.000 NA
ATOM     16  C   UNL     1       6.691   5.795  15.995  0.00  0.00    +0.000 A 
ENDBRANCH   3  11
BRANCH   1  18
ATOM     17  N   UNL     1       1.540   8.713  19.579  0.00  0.00    +0.000 N 
ATOM     18  C   UNL     1       2.225   8.357  18.417  0.00  0.00    +0.000 C 
ATOM     19  O   UNL     1       2.302   9.051  17.404  0.00  0.00    +0.000 OA
ATOM     20  H   UNL     1       1.745   8.195  20.428  0.00  0.00    +0.000 HD
BRANCH  17  24
ATOM     21  C   UNL     1      -1.227  11.997  20.125  0.00  0.00    +0.000 A 
ATOM     22  C   UNL     1      -1.527  10.947  19.252  0.00  0.00    +0.000 A 
ATOM     23  C   UNL     1      -0.620   9.874  19.053  0.00  0.00    +0.000 A 
ATOM     24  C   UNL     1       0.606   9.805  19.725  0.00  0.00    +0.000 A 
ATOM     25  C   UNL     1       0.894  10.847  20.618  0.00  0.00    +0.000 A 
ATOM     26  C   UNL     1      -0.002  11.928  20.807  0.00  0.00    +0.000 A 
BRANCH  21  29
ATOM     27  C   UNL     1      -2.324  15.551  21.114  0.00  0.00    +0.000 C 
ATOM     28  N   UNL     1      -1.538  14.373  20.810  0.00  0.00    +0.000 N 
ATOM     29  C   UNL     1      -2.125  13.191  20.375  0.00  0.00    +0.000 C 
ATOM     30  O   UNL     1      -3.331  13.098  20.181  0.00  0.00    +0.000 OA
ATOM     31  H   UNL     1      -0.545  14.434  20.971  0.00  0.00    +0.000 HD
ENDBRANCH  21  29
ENDBRANCH  17  24
ENDBRANCH   1  18
TORSDOF 4
ENDMDL
MODEL 8
REMARK VINA RESULT:      -8.9      2.563      2.878
REMARK  Name = 
REMARK  5 active torsions:
REMARK  status: ('A' for Active; 'I' for Inactive)
REMARK    1  A    between atoms: C_1  and  N_2
REMARK    2  A    between atoms: C_3  and  C_5
REMARK    3  A    between atoms: C_8  and  N_9
REMARK    4  A    between atoms: C_10  and  C_12
REMARK    5  A    between atoms: C_14  and  C_15
REMARK                            x       y       z     vdW  Elec       q    Type
REMARK                         _______ _______ _______ _____ _____    ______ ____
ROOT
ATOM      1  C   UNL     1       2.855   6.165  18.709  0.00  0.00    +0.000 A 
ATOM      2  C   UNL     1       3.749   6.201  17.615  0.00  0.00    +0.000 A 
ATOM      3  C   UNL     1       4.264   5.015  17.084  0.00  0.00    +0.000 A 
ATOM      4  N   UNL     1       3.790   3.827  17.517  0.00  0.00    +0.000 NA
ATOM      5  C   UNL     1       2.822   3.783  18.442  0.00  0.00    +0.000 A 
ATOM      6  C   UNL     1       2.201   2.560  18.637  0.00  0.00    +0.000 A 
ATOM      7  C   UNL     1       1.136   2.413  19.523  0.00  0.00    +0.000 A 
ATOM      8  C   UNL     1       0.743   3.491  20.302  0.00  0.00    +0.000 A 
ATOM      9  C   UNL     1       1.357   4.730  20.128  0.00  0.00    +0.000 A 
ATOM     10  C   UNL     1       2.356   4.917  19.144  0.00  0.00    +0.000 A 
ENDROOT
BRANCH   3  11
ATOM     11  C   UNL     1       5.315   4.910  16.031  0.00  0.00    +0.000 A 
ATOM     12  C   UNL     1       6.616   5.417  16.159  0.00  0.00    +0.000 A 
ATOM     13  C   UNL     1       7.563   5.258  15.138  0.00  0.00    +0.000 A 
ATOM     14  C   UNL     1       7.194   4.590  13.984  0.00  0.00    +0.000 A 
ATOM     15  N   UNL     1       5.963   4.085  13.795  0.00  0.00    +0.000 NA
ATOM     16  C   UNL     1       5.067   4.258  14.809  0.00  0.00    +0.000 A 
ENDBRANCH   3  11
BRANCH   1  18
ATOM     17  N   UNL     1       1.794   8.379  18.188  0.00  0.00    +0.000 N 
ATOM     18  C   UNL     1       2.237   7.472  19.151  0.00  0.00    +0.000 C 
ATOM     19  O   UNL     1       2.137   7.630  20.366  0.00  0.00    +0.000 OA
ATOM     20  H   UNL     1       1.696   8.048  17.233  0.00  0.00    +0.000 HD
BRANCH  17  24
ATOM     21  C   UNL     1       0.462  12.446  18.845  0.00  0.00    +0.000 A 
ATOM     22  C   UNL     1       1.777  12.178  18.451  0.00  0.00    +0.000 A 
ATOM     23  C   UNL     1       2.228  10.848  18.248  0.00  0.00    +0.000 A 
ATOM     24  C   UNL     1       1.384   9.744  18.418  0.00  0.00    +0.000 A 
ATOM     25  C   UNL     1       0.059  10.016  18.791  0.00  0.00    +0.000 A 
ATOM     26  C   UNL     1      -0.391  11.342  19.009  0.00  0.00    +0.000 A 
BRANCH  21  29
ATOM     27  C   UNL     1       0.228  16.286  18.953  0.00  0.00    +0.000 C 
ATOM     28  N   UNL     1       0.662  14.925  18.706  0.00  0.00    +0.000 N 
ATOM     29  C   UNL     1      -0.093  13.830  19.107  0.00  0.00    +0.000 C 
ATOM     30  O   UNL     1      -1.186  13.957  19.646  0.00  0.00    +0.000 OA
ATOM     31  H   UNL     1       1.562  14.807  18.268  0.00  0.00    +0.000 HD
ENDBRANCH  21  29
ENDBRANCH  17  24
ENDBRANCH   1  18
TORSDOF 4
ENDMDL
MODEL 9
REMARK VINA RESULT:      -8.4      2.893      9.982
REMARK  Name = 
REMARK  5 active torsions:
REMARK  status: ('A' for Active; 'I' for Inactive)
REMARK    1  A    between atoms: C_1  and  N_2
REMARK    2  A    between atoms: C_3  and  C_5
REMARK    3  A    between atoms: C_8  and  N_9
REMARK    4  A    between atoms: C_10  and  C_12
REMARK    5  A    between atoms: C_14  and  C_15
REMARK                            x       y       z     vdW  Elec       q    Type
REMARK                         _______ _______ _______ _____ _____    ______ ____
ROOT
ATOM      1  C   UNL     1      -0.128  11.054  19.013  0.00  0.00    +0.000 A 
ATOM      2  C   UNL     1      -0.083  11.741  20.248  0.00  0.00    +0.000 A 
ATOM      3  C   UNL     1      -1.190  12.470  20.691  0.00  0.00    +0.000 A 
ATOM      4  N   UNL     1      -2.356  12.395  20.014  0.00  0.00    +0.000 NA
ATOM      5  C   UNL     1      -2.457  11.615  18.929  0.00  0.00    +0.000 A 
ATOM      6  C   UNL     1      -3.736  11.375  18.451  0.00  0.00    +0.000 A 
ATOM      7  C   UNL     1      -3.965  10.525  17.372  0.00  0.00    +0.000 A 
ATOM      8  C   UNL     1      -2.887   9.976  16.695  0.00  0.00    +0.000 A 
ATOM      9  C   UNL     1      -1.591  10.208  17.153  0.00  0.00    +0.000 A 
ATOM     10  C   UNL     1      -1.357  10.971  18.321  0.00  0.00    +0.000 A 
ENDROOT
BRANCH   3  11
ATOM     11  C   UNL     1      -1.235  13.349  21.895  0.00  0.00    +0.000 A 
ATOM     12  C   UNL     1      -2.299  13.389  22.807  0.00  0.00    +0.000 A 
ATOM     13  C   UNL     1      -2.262  14.220  23.934  0.00  0.00    +0.000 A 
ATOM     14  C   UNL     1      -1.149  15.017  24.140  0.00  0.00    +0.000 A 
ATOM     15  N   UNL     1      -0.098  15.031  23.303  0.00  0.00    +0.000 NA
ATOM     16  C   UNL     1      -0.168  14.209  22.216  0.00  0.00    +0.000 A 
ENDBRANCH   3  11
BRANCH   1  18
ATOM     17  N   UNL     1       0.985   8.808  18.888  0.00  0.00    +0.000 N 
ATOM     18  C   UNL     1       1.053  10.181  18.655  0.00  0.00    +0.000 C 
ATOM     19  O   UNL     1       2.006  10.762  18.137  0.00  0.00    +0.000 OA
ATOM     20  H   UNL     1       0.073   8.403  19.083  0.00  0.00    +0.000 HD
BRANCH  17  24
ATOM     21  C   UNL     1       4.255   5.992  18.545  0.00  0.00    +0.000 A 
ATOM     22  C   UNL     1       3.397   5.960  19.648  0.00  0.00    +0.000 A 
ATOM     23  C   UNL     1       2.331   6.888  19.779  0.00  0.00    +0.000 A 
ATOM     24  C   UNL     1       2.079   7.868  18.811  0.00  0.00    +0.000 A 
ATOM     25  C   UNL     1       2.927   7.884  17.694  0.00  0.00    +0.000 A 
ATOM     26  C   UNL     1       4.001   6.968  17.568  0.00  0.00    +0.000 A 
BRANCH  21  29
ATOM     27  C   UNL     1       7.456   4.486  17.028  0.00  0.00    +0.000 C 
ATOM     28  N   UNL     1       6.328   5.347  17.322  0.00  0.00    +0.000 N 
ATOM     29  C   UNL     1       5.429   5.058  18.341  0.00  0.00    +0.000 C 
ATOM     30  O   UNL     1       5.570   4.087  19.075  0.00  0.00    +0.000 OA
ATOM     31  H   UNL     1       6.197   6.147  16.722  0.00  0.00    +0.000 HD
ENDBRANCH  21  29
ENDBRANCH  17  24
ENDBRANCH   1  18
TORSDOF 4
ENDMDL
