MODEL 1
REMARK VINA RESULT:      -8.6      0.000      0.000
REMARK  Name = 
REMARK  4 active torsions:
REMARK  status: ('A' for Active; 'I' for Inactive)
REMARK    1  A    between atoms: C_2  and  C_25
REMARK    2  A    between atoms: N_3  and  C_4
REMARK    3  A    between atoms: C_8  and  C_9
REMARK    4  A    between atoms: C_17  and  C_18
REMARK                            x       y       z     vdW  Elec       q    Type
REMARK                         _______ _______ _______ _____ _____    ______ ____
ROOT
ATOM      1  C   UNL     1       3.079   6.131  18.755  0.00  0.00    +0.000 C 
ATOM      2  O   UNL     1       4.074   6.594  18.207  0.00  0.00    +0.000 OA
ATOM      3  N   UNL     1       2.722   4.771  18.686  0.00  0.00    +0.000 N 
ATOM      4  C   UNL     1       1.444   4.267  19.183  0.00  0.00    +0.000 C 
ATOM      5  C   UNL     1       0.974   3.034  18.435  0.00  0.00    +0.000 C 
ATOM      6  N   UNL     1       1.975   2.002  18.465  0.00  0.00    +0.000 N 
ATOM      7  C   UNL     1       3.317   2.266  18.402  0.00  0.00    +0.000 C 
ATOM      8  O   UNL     1       4.086   1.304  18.277  0.00  0.00    +0.000 OA
ATOM      9  C   UNL     1       3.809   3.746  18.573  0.00  0.00    +0.000 C 
ATOM     10  H   UNL     1       1.722   1.038  18.280  0.00  0.00    +0.000 HD
ENDROOT
BRANCH   1  15
ATOM     11  C   UNL     1       1.134   9.262  19.781  0.00  0.00    +0.000 A 
ATOM     12  C   UNL     1       0.575   8.791  20.972  0.00  0.00    +0.000 A 
ATOM     13  C   UNL     1       0.885   7.525  21.465  0.00  0.00    +0.000 A 
ATOM     14  C   UNL     1       1.759   6.707  20.761  0.00  0.00    +0.000 A 
ATOM     15  C   UNL     1       2.262   7.121  19.519  0.00  0.00    +0.000 A 
ATOM     16  C   UNL     1       1.885   8.375  19.008  0.00  0.00    +0.000 A 
BRANCH  11  19
ATOM     17  O   UNL     1       1.383  11.638  21.384  0.00  0.00    +0.000 OA
ATOM     18  C   UNL     1       1.142  11.711  20.179  0.00  0.00    +0.000 C 
ATOM     19  N   UNL     1       1.000  10.604  19.342  0.00  0.00    +0.000 N 
ATOM     20  H   UNL     1       0.986  10.802  18.350  0.00  0.00    +0.000 HD
BRANCH  18  21
ATOM     21  C   UNL     1       1.034  13.010  19.550  0.00  0.00    +0.000 A 
ATOM     22  C   UNL     1       2.052  13.890  19.239  0.00  0.00    +0.000 A 
ATOM     23  C   UNL     1       1.449  15.036  18.686  0.00  0.00    +0.000 A 
ATOM     24  C   UNL     1       0.095  14.779  18.674  0.00  0.00    +0.000 A 
ATOM     25  O   UNL     1      -0.171  13.545  19.187  0.00  0.00    +0.000 OA
ENDBRANCH  18  21
ENDBRANCH  11  19
ENDBRANCH   1  15
BRANCH   9  26
ATOM     26  C   UNL     1       4.902   4.051  17.552  0.00  0.00    +0.000 A 
ATOM     27  C   UNL     1       4.634   4.110  16.177  0.00  0.00    +0.000 A 
ATOM     28  C   UNL     1       5.641   4.472  15.276  0.00  0.00    +0.000 A 
ATOM     29  C   UNL     1       6.921   4.780  15.735  0.00  0.00    +0.000 A 
ATOM     30  C   UNL     1       7.209   4.700  17.094  0.00  0.00    +0.000 A 
ATOM     31  C   UNL     1       6.210   4.328  17.995  0.00  0.00    +0.000 A 
ENDBRANCH   9  26
TORSDOF 4
ENDMDL
MODEL 2
REMARK VINA RESULT:      -8.5      0.830      1.223
REMARK  Name = 
REMARK  4 active torsions:
REMARK  status: ('A' for Active; 'I' for Inactive)
REMARK    1  A    between atoms: C_2  and  C_25
REMARK    2  A    between atoms: N_3  and  C_4
REMARK    3  A    between atoms: C_8  and  C_9
REMARK    4  A    between atoms: C_17  and  C_18
REMARK                            x       y       z     vdW  Elec       q    Type
REMARK                         _______ _______ _______ _____ _____    ______ ____
ROOT
ATOM      1  C   UNL     1       3.066   6.095  18.809  0.00  0.00    +0.000 C 
ATOM      2  O   UNL     1       4.049   6.587  18.266  0.00  0.00    +0.000 OA
ATOM      3  N   UNL     1       2.724   4.734  18.703  0.00  0.00    +0.000 N 
ATOM      4  C   UNL     1       1.457   4.200  19.197  0.00  0.00    +0.000 C 
ATOM      5  C   UNL     1       0.994   2.984  18.417  0.00  0.00    +0.000 C 
ATOM      6  N   UNL     1       2.007   1.964  18.406  0.00  0.00    +0.000 N 
ATOM      7  C   UNL     1       3.345   2.246  18.337  0.00  0.00    +0.000 C 
ATOM      8  O   UNL     1       4.124   1.298  18.175  0.00  0.00    +0.000 OA
ATOM      9  C   UNL     1       3.822   3.726  18.547  0.00  0.00    +0.000 C 
ATOM     10  H   UNL     1       1.764   1.003  18.194  0.00  0.00    +0.000 HD
ENDROOT
BRANCH   1  15
ATOM     11  C   UNL     1       1.234   9.227  20.024  0.00  0.00    +0.000 A 
ATOM     12  C   UNL     1       0.539   8.670  21.101  0.00  0.00    +0.000 A 
ATOM     13  C   UNL     1       0.721   7.338  21.467  0.00  0.00    +0.000 A 
ATOM     14  C   UNL     1       1.603   6.541  20.749  0.00  0.00    +0.000 A 
ATOM     15  C   UNL     1       2.245   7.052  19.611  0.00  0.00    +0.000 A 
ATOM     16  C   UNL     1       1.996   8.379  19.219  0.00  0.00    +0.000 A 
BRANCH  11  19
ATOM     17  O   UNL     1      -0.662  10.644  18.389  0.00  0.00    +0.000 OA
ATOM     18  C   UNL     1       0.267  11.237  18.936  0.00  0.00    +0.000 C 
ATOM     19  N   UNL     1       1.227  10.616  19.736  0.00  0.00    +0.000 N 
ATOM     20  H   UNL     1       1.822  11.236  20.269  0.00  0.00    +0.000 HD
BRANCH  18  21
ATOM     21  C   UNL     1       0.377  12.673  18.799  0.00  0.00    +0.000 A 
ATOM     22  C   UNL     1       1.516  13.421  18.573  0.00  0.00    +0.000 A 
ATOM     23  C   UNL     1       1.124  14.774  18.565  0.00  0.00    +0.000 A 
ATOM     24  C   UNL     1      -0.239  14.771  18.766  0.00  0.00    +0.000 A 
ATOM     25  O   UNL     1      -0.710  13.499  18.899  0.00  0.00    +0.000 OA
ENDBRANCH  18  21
ENDBRANCH  11  19
ENDBRANCH   1  15
BRANCH   9  26
ATOM     26  C   UNL     1       4.900   4.075  17.525  0.00  0.00    +0.000 A 
ATOM     27  C   UNL     1       6.219   4.360  17.909  0.00  0.00    +0.000 A 
ATOM     28  C   UNL     1       7.201   4.597  16.942  0.00  0.00    +0.000 A 
ATOM     29  C   UNL     1       6.881   4.550  15.586  0.00  0.00    +0.000 A 
ATOM     30  C   UNL     1       5.571   4.295  15.190  0.00  0.00    +0.000 A 
ATOM     31  C   UNL     1       4.585   4.070  16.153  0.00  0.00    +0.000 A 
ENDBRANCH   9  26
TORSDOF 4
ENDMDL
MODEL 3
REMARK VINA RESULT:      -8.5      0.806      1.051
REMARK  Name = 
REMARK  4 active torsions:
REMARK  status: ('A' for Active; 'I' for Inactive)
REMARK    1  A    between atoms: C_2  and  C_25
REMARK    2  A    between atoms: N_3  and  C_4
REMARK    3  A    between atoms: C_8  and  C_9
REMARK    4  A    between atoms: C_17  and  C_18
REMARK                            x       y       z     vdW  Elec       q    Type
REMARK                         _______ _______ _______ _____ _____    ______ ____
ROOT
ATOM      1  C   UNL     1       3.074   6.023  18.793  0.00  0.00    +0.000 C 
ATOM      2  O   UNL     1       4.049   6.510  18.231  0.00  0.00    +0.000 OA
ATOM      3  N   UNL     1       2.731   4.661  18.703  0.00  0.00    +0.000 N 
ATOM      4  C   UNL     1       1.471   4.131  19.221  0.00  0.00    +0.000 C 
ATOM      5  C   UNL     1       0.996   2.910  18.458  0.00  0.00    +0.000 C 
ATOM      6  N   UNL     1       2.008   1.889  18.439  0.00  0.00    +0.000 N 
ATOM      7  C   UNL     1       3.346   2.170  18.347  0.00  0.00    +0.000 C 
ATOM      8  O   UNL     1       4.122   1.221  18.180  0.00  0.00    +0.000 OA
ATOM      9  C   UNL     1       3.826   3.652  18.538  0.00  0.00    +0.000 C 
ATOM     10  H   UNL     1       1.762   0.926  18.238  0.00  0.00    +0.000 HD
ENDROOT
BRANCH   1  15
ATOM     11  C   UNL     1       1.267   9.167  20.015  0.00  0.00    +0.000 A 
ATOM     12  C   UNL     1       0.583   8.617  21.102  0.00  0.00    +0.000 A 
ATOM     13  C   UNL     1       0.765   7.285  21.473  0.00  0.00    +0.000 A 
ATOM     14  C   UNL     1       1.636   6.482  20.748  0.00  0.00    +0.000 A 
ATOM     15  C   UNL     1       2.266   6.986  19.600  0.00  0.00    +0.000 A 
ATOM     16  C   UNL     1       2.017   8.312  19.205  0.00  0.00    +0.000 A 
BRANCH  11  19
ATOM     17  O   UNL     1      -0.803  10.638  18.664  0.00  0.00    +0.000 OA
ATOM     18  C   UNL     1       0.214  11.203  19.065  0.00  0.00    +0.000 C 
ATOM     19  N   UNL     1       1.260  10.554  19.720  0.00  0.00    +0.000 N 
ATOM     20  H   UNL     1       1.947  11.156  20.156  0.00  0.00    +0.000 HD
BRANCH  18  21
ATOM     21  C   UNL     1       0.347  12.634  18.902  0.00  0.00    +0.000 A 
ATOM     22  C   UNL     1      -0.659  13.578  18.834  0.00  0.00    +0.000 A 
ATOM     23  C   UNL     1      -0.038  14.825  18.623  0.00  0.00    +0.000 A 
ATOM     24  C   UNL     1       1.316  14.569  18.595  0.00  0.00    +0.000 A 
ATOM     25  O   UNL     1       1.566  13.242  18.773  0.00  0.00    +0.000 OA
ENDBRANCH  18  21
ENDBRANCH  11  19
ENDBRANCH   1  15
BRANCH   9  26
ATOM     26  C   UNL     1       4.888   3.992  17.497  0.00  0.00    +0.000 A 
ATOM     27  C   UNL     1       4.585   4.075  16.131  0.00  0.00    +0.000 A 
ATOM     28  C   UNL     1       5.563   4.469  15.212  0.00  0.00    +0.000 A 
ATOM     29  C   UNL     1       6.850   4.786  15.645  0.00  0.00    +0.000 A 
ATOM     30  C   UNL     1       7.174   4.682  16.995  0.00  0.00    +0.000 A 
ATOM     31  C   UNL     1       6.203   4.278  17.913  0.00  0.00    +0.000 A 
ENDBRANCH   9  26
TORSDOF 4
ENDMDL
MODEL 4
REMARK VINA RESULT:      -8.4      1.150      1.484
REMARK  Name = 
REMARK  4 active torsions:
REMARK  status: ('A' for Active; 'I' for Inactive)
REMARK    1  A    between atoms: C_2  and  C_25
REMARK    2  A    between atoms: N_3  and  C_4
REMARK    3  A    between atoms: C_8  and  C_9
REMARK    4  A    between atoms: C_17  and  C_18
REMARK                            x       y       z     vdW  Elec       q    Type
REMARK                         _______ _______ _______ _____ _____    ______ ____
ROOT
ATOM      1  C   UNL     1       2.692   6.955  19.233  0.00  0.00    +0.000 C 
ATOM      2  O   UNL     1       3.422   7.428  18.369  0.00  0.00    +0.000 OA
ATOM      3  N   UNL     1       2.711   5.597  19.603  0.00  0.00    +0.000 N 
ATOM      4  C   UNL     1       1.714   5.011  20.496  0.00  0.00    +0.000 C 
ATOM      5  C   UNL     1       1.483   3.537  20.222  0.00  0.00    +0.000 C 
ATOM      6  N   UNL     1       2.718   2.802  20.285  0.00  0.00    +0.000 N 
ATOM      7  C   UNL     1       3.910   3.313  19.846  0.00  0.00    +0.000 C 
ATOM      8  O   UNL     1       4.881   2.547  19.798  0.00  0.00    +0.000 OA
ATOM      9  C   UNL     1       4.003   4.843  19.509  0.00  0.00    +0.000 C 
ATOM     10  H   UNL     1       2.710   1.798  20.419  0.00  0.00    +0.000 HD
ENDROOT
BRANCH   1  15
ATOM     11  C   UNL     1       0.580  10.055  19.988  0.00  0.00    +0.000 A 
ATOM     12  C   UNL     1      -0.112   9.581  21.106  0.00  0.00    +0.000 A 
ATOM     13  C   UNL     1       0.158   8.324  21.644  0.00  0.00    +0.000 A 
ATOM     14  C   UNL     1       1.126   7.518  21.058  0.00  0.00    +0.000 A 
ATOM     15  C   UNL     1       1.770   7.935  19.883  0.00  0.00    +0.000 A 
ATOM     16  C   UNL     1       1.435   9.178  19.320  0.00  0.00    +0.000 A 
BRANCH  11  19
ATOM     17  O   UNL     1       1.740  12.396  21.193  0.00  0.00    +0.000 OA
ATOM     18  C   UNL     1       1.075  12.481  20.161  0.00  0.00    +0.000 C 
ATOM     19  N   UNL     1       0.477  11.392  19.526  0.00  0.00    +0.000 N 
ATOM     20  H   UNL     1       0.117  11.568  18.597  0.00  0.00    +0.000 HD
BRANCH  18  21
ATOM     21  C   UNL     1       0.918  13.766  19.516  0.00  0.00    +0.000 A 
ATOM     22  C   UNL     1       1.901  14.686  19.205  0.00  0.00    +0.000 A 
ATOM     23  C   UNL     1       1.254  15.799  18.632  0.00  0.00    +0.000 A 
ATOM     24  C   UNL     1      -0.087  15.483  18.610  0.00  0.00    +0.000 A 
ATOM     25  O   UNL     1      -0.306  14.245  19.134  0.00  0.00    +0.000 OA
ENDBRANCH  18  21
ENDBRANCH  11  19
ENDBRANCH   1  15
BRANCH   9  26
ATOM     26  C   UNL     1       4.794   5.045  18.219  0.00  0.00    +0.000 A 
ATOM     27  C   UNL     1       6.042   5.685  18.209  0.00  0.00    +0.000 A 
ATOM     28  C   UNL     1       6.776   5.781  17.023  0.00  0.00    +0.000 A 
ATOM     29  C   UNL     1       6.278   5.240  15.839  0.00  0.00    +0.000 A 
ATOM     30  C   UNL     1       5.030   4.625  15.828  0.00  0.00    +0.000 A 
ATOM     31  C   UNL     1       4.288   4.537  17.007  0.00  0.00    +0.000 A 
ENDBRANCH   9  26
TORSDOF 4
ENDMDL
MODEL 5
REMARK VINA RESULT:      -8.1      2.098      8.656
REMARK  Name = 
REMARK  4 active torsions:
REMARK  status: ('A' for Active; 'I' for Inactive)
REMARK    1  A    between atoms: C_2  and  C_25
REMARK    2  A    between atoms: N_3  and  C_4
REMARK    3  A    between atoms: C_8  and  C_9
REMARK    4  A    between atoms: C_17  and  C_18
REMARK                            x       y       z     vdW  Elec       q    Type
REMARK                         _______ _______ _______ _____ _____    ______ ____
ROOT
ATOM      1  C   UNL     1       1.323   9.185  19.784  0.00  0.00    +0.000 C 
ATOM      2  O   UNL     1       1.606   9.956  18.873  0.00  0.00    +0.000 OA
ATOM      3  N   UNL     1       0.576   9.566  20.914  0.00  0.00    +0.000 N 
ATOM      4  C   UNL     1       0.405   8.693  22.074  0.00  0.00    +0.000 C 
ATOM      5  C   UNL     1       0.213   9.470  23.363  0.00  0.00    +0.000 C 
ATOM      6  N   UNL     1      -0.887  10.390  23.250  0.00  0.00    +0.000 N 
ATOM      7  C   UNL     1      -1.176  11.065  22.095  0.00  0.00    +0.000 C 
ATOM      8  O   UNL     1      -2.042  11.948  22.146  0.00  0.00    +0.000 OA
ATOM      9  C   UNL     1      -0.462  10.636  20.765  0.00  0.00    +0.000 C 
ATOM     10  H   UNL     1      -1.331  10.761  24.082  0.00  0.00    +0.000 HD
ENDROOT
BRANCH   1  15
ATOM     11  C   UNL     1       3.172   6.093  18.495  0.00  0.00    +0.000 A 
ATOM     12  C   UNL     1       2.830   5.195  19.510  0.00  0.00    +0.000 A 
ATOM     13  C   UNL     1       1.962   5.562  20.537  0.00  0.00    +0.000 A 
ATOM     14  C   UNL     1       1.429   6.844  20.563  0.00  0.00    +0.000 A 
ATOM     15  C   UNL     1       1.827   7.790  19.606  0.00  0.00    +0.000 A 
ATOM     16  C   UNL     1       2.755   7.419  18.618  0.00  0.00    +0.000 A 
BRANCH  11  19
ATOM     17  O   UNL     1       6.030   5.967  18.196  0.00  0.00    +0.000 OA
ATOM     18  C   UNL     1       5.284   5.665  17.265  0.00  0.00    +0.000 C 
ATOM     19  N   UNL     1       3.892   5.709  17.335  0.00  0.00    +0.000 N 
ATOM     20  H   UNL     1       3.399   5.266  16.571  0.00  0.00    +0.000 HD
BRANCH  18  21
ATOM     21  C   UNL     1       5.851   5.190  16.022  0.00  0.00    +0.000 A 
ATOM     22  C   UNL     1       5.355   4.213  15.181  0.00  0.00    +0.000 A 
ATOM     23  C   UNL     1       6.280   4.071  14.128  0.00  0.00    +0.000 A 
ATOM     24  C   UNL     1       7.278   4.987  14.379  0.00  0.00    +0.000 A 
ATOM     25  O   UNL     1       7.025   5.683  15.522  0.00  0.00    +0.000 OA
ENDBRANCH  18  21
ENDBRANCH  11  19
ENDBRANCH   1  15
BRANCH   9  26
ATOM     26  C   UNL     1      -0.026  11.875  19.985  0.00  0.00    +0.000 A 
ATOM     27  C   UNL     1      -0.680  12.277  18.811  0.00  0.00    +0.000 A 
ATOM     28  C   UNL     1      -0.308  13.460  18.166  0.00  0.00    +0.000 A 
ATOM     29  C   UNL     1       0.714  14.255  18.684  0.00  0.00    +0.000 A 
ATOM     30  C   UNL     1       1.389  13.855  19.833  0.00  0.00    +0.000 A 
ATOM     31  C   UNL     1       1.029  12.668  20.474  0.00  0.00    +0.000 A 
ENDBRANCH   9  26
TORSDOF 4
ENDMDL
MODEL 6
REMARK VINA RESULT:      -8.0      3.283      8.977
REMARK  Name = 
REMARK  4 active torsions:
REMARK  status: ('A' for Active; 'I' for Inactive)
REMARK    1  A    between atoms: C_2  and  C_25
REMARK    2  A    between atoms: N_3  and  C_4
REMARK    3  A    between atoms: C_8  and  C_9
REMARK    4  A    between atoms: C_17  and  C_18
REMARK                            x       y       z     vdW  Elec       q    Type
REMARK                         _______ _______ _______ _____ _____    ______ ____
ROOT
ATOM      1  C   UNL     1       4.204   5.176  18.245  0.00  0.00    +0.000 C 
ATOM      2  O   UNL     1       4.037   4.051  18.704  0.00  0.00    +0.000 OA
ATOM      3  N   UNL     1       3.377   6.270  18.560  0.00  0.00    +0.000 N 
ATOM      4  C   UNL     1       3.472   7.554  17.868  0.00  0.00    +0.000 C 
ATOM      5  C   UNL     1       2.150   8.296  17.835  0.00  0.00    +0.000 C 
ATOM      6  N   UNL     1       1.625   8.471  19.162  0.00  0.00    +0.000 N 
ATOM      7  C   UNL     1       1.757   7.527  20.145  0.00  0.00    +0.000 C 
ATOM      8  O   UNL     1       1.137   7.705  21.200  0.00  0.00    +0.000 OA
ATOM      9  C   UNL     1       2.739   6.324  19.916  0.00  0.00    +0.000 C 
ATOM     10  H   UNL     1       0.926   9.181  19.347  0.00  0.00    +0.000 HD
ENDROOT
BRANCH   1  15
ATOM     11  C   UNL     1       6.604   4.770  15.293  0.00  0.00    +0.000 A 
ATOM     12  C   UNL     1       7.498   5.801  15.594  0.00  0.00    +0.000 A 
ATOM     13  C   UNL     1       7.368   6.552  16.762  0.00  0.00    +0.000 A 
ATOM     14  C   UNL     1       6.329   6.281  17.643  0.00  0.00    +0.000 A 
ATOM     15  C   UNL     1       5.368   5.311  17.319  0.00  0.00    +0.000 A 
ATOM     16  C   UNL     1       5.480   4.611  16.105  0.00  0.00    +0.000 A 
BRANCH  11  19
ATOM     17  O   UNL     1       4.827   4.274  13.085  0.00  0.00    +0.000 OA
ATOM     18  C   UNL     1       5.900   3.678  13.179  0.00  0.00    +0.000 C 
ATOM     19  N   UNL     1       6.806   3.861  14.223  0.00  0.00    +0.000 N 
ATOM     20  H   UNL     1       7.721   3.451  14.088  0.00  0.00    +0.000 HD
BRANCH  18  21
ATOM     21  C   UNL     1       6.296   2.755  12.138  0.00  0.00    +0.000 A 
ATOM     22  C   UNL     1       5.539   1.759  11.552  0.00  0.00    +0.000 A 
ATOM     23  C   UNL     1       6.374   1.098  10.630  0.00  0.00    +0.000 A 
ATOM     24  C   UNL     1       7.589   1.745  10.692  0.00  0.00    +0.000 A 
ATOM     25  O   UNL     1       7.553   2.763  11.598  0.00  0.00    +0.000 OA
ENDBRANCH  18  21
ENDBRANCH  11  19
ENDBRANCH   1  15
BRANCH   9  26
ATOM     26  C   UNL     1       2.094   5.027  20.395  0.00  0.00    +0.000 A 
ATOM     27  C   UNL     1       1.059   4.407  19.680  0.00  0.00    +0.000 A 
ATOM     28  C   UNL     1       0.546   3.178  20.104  0.00  0.00    +0.000 A 
ATOM     29  C   UNL     1       1.058   2.553  21.240  0.00  0.00    +0.000 A 
ATOM     30  C   UNL     1       2.067   3.169  21.975  0.00  0.00    +0.000 A 
ATOM     31  C   UNL     1       2.574   4.402  21.562  0.00  0.00    +0.000 A 
ENDBRANCH   9  26
TORSDOF 4
ENDMDL
MODEL 7
REMARK VINA RESULT:      -8.0      1.331      1.360
REMARK  Name = 
REMARK  4 active torsions:
REMARK  status: ('A' for Active; 'I' for Inactive)
REMARK    1  A    between atoms: C_2  and  C_25
REMARK    2  A    between atoms: N_3  and  C_4
REMARK    3  A    between atoms: C_8  and  C_9
REMARK    4  A    between atoms: C_17  and  C_18
REMARK                            x       y       z     vdW  Elec       q    Type
REMARK                         _______ _______ _______ _____ _____    ______ ____
ROOT
ATOM      1  C   UNL     1       2.708   6.695  19.299  0.00  0.00    +0.000 C 
ATOM      2  O   UNL     1       3.436   7.126  18.410  0.00  0.00    +0.000 OA
ATOM      3  N   UNL     1       2.691   5.345  19.696  0.00  0.00    +0.000 N 
ATOM      4  C   UNL     1       1.694   4.810  20.621  0.00  0.00    +0.000 C 
ATOM      5  C   UNL     1       1.409   3.340  20.383  0.00  0.00    +0.000 C 
ATOM      6  N   UNL     1       2.620   2.566  20.437  0.00  0.00    +0.000 N 
ATOM      7  C   UNL     1       3.820   3.029  19.964  0.00  0.00    +0.000 C 
ATOM      8  O   UNL     1       4.764   2.230  19.914  0.00  0.00    +0.000 OA
ATOM      9  C   UNL     1       3.955   4.547  19.593  0.00  0.00    +0.000 C 
ATOM     10  H   UNL     1       2.583   1.565  20.593  0.00  0.00    +0.000 HD
ENDROOT
BRANCH   1  15
ATOM     11  C   UNL     1       0.909   9.959  20.164  0.00  0.00    +0.000 A 
ATOM     12  C   UNL     1       0.015   9.469  21.120  0.00  0.00    +0.000 A 
ATOM     13  C   UNL     1       0.051   8.136  21.527  0.00  0.00    +0.000 A 
ATOM     14  C   UNL     1       0.985   7.271  20.971  0.00  0.00    +0.000 A 
ATOM     15  C   UNL     1       1.832   7.718  19.946  0.00  0.00    +0.000 A 
ATOM     16  C   UNL     1       1.735   9.048  19.503  0.00  0.00    +0.000 A 
BRANCH  11  19
ATOM     17  O   UNL     1      -0.798  11.520  18.453  0.00  0.00    +0.000 OA
ATOM     18  C   UNL     1       0.163  12.034  19.025  0.00  0.00    +0.000 C 
ATOM     19  N   UNL     1       1.036  11.339  19.862  0.00  0.00    +0.000 N 
ATOM     20  H   UNL     1       1.668  11.909  20.408  0.00  0.00    +0.000 HD
BRANCH  18  21
ATOM     21  C   UNL     1       0.407  13.452  18.877  0.00  0.00    +0.000 A 
ATOM     22  C   UNL     1       1.621  14.096  18.744  0.00  0.00    +0.000 A 
ATOM     23  C   UNL     1       1.348  15.477  18.681  0.00  0.00    +0.000 A 
ATOM     24  C   UNL     1      -0.023  15.592  18.758  0.00  0.00    +0.000 A 
ATOM     25  O   UNL     1      -0.610  14.368  18.867  0.00  0.00    +0.000 OA
ENDBRANCH  18  21
ENDBRANCH  11  19
ENDBRANCH   1  15
BRANCH   9  26
ATOM     26  C   UNL     1       4.726   4.696  18.284  0.00  0.00    +0.000 A 
ATOM     27  C   UNL     1       4.193   4.267  17.060  0.00  0.00    +0.000 A 
ATOM     28  C   UNL     1       4.891   4.491  15.869  0.00  0.00    +0.000 A 
ATOM     29  C   UNL     1       6.122   5.146  15.885  0.00  0.00    +0.000 A 
ATOM     30  C   UNL     1       6.676   5.554  17.095  0.00  0.00    +0.000 A 
ATOM     31  C   UNL     1       5.988   5.321  18.287  0.00  0.00    +0.000 A 
ENDBRANCH   9  26
TORSDOF 4
ENDMDL
MODEL 8
REMARK VINA RESULT:      -7.8      1.475      1.771
REMARK  Name = 
REMARK  4 active torsions:
REMARK  status: ('A' for Active; 'I' for Inactive)
REMARK    1  A    between atoms: C_2  and  C_25
REMARK    2  A    between atoms: N_3  and  C_4
REMARK    3  A    between atoms: C_8  and  C_9
REMARK    4  A    between atoms: C_17  and  C_18
REMARK                            x       y       z     vdW  Elec       q    Type
REMARK                         _______ _______ _______ _____ _____    ______ ____
ROOT
ATOM      1  C   UNL     1       3.062   7.226  18.415  0.00  0.00    +0.000 C 
ATOM      2  O   UNL     1       3.801   7.481  17.470  0.00  0.00    +0.000 OA
ATOM      3  N   UNL     1       2.995   5.959  19.024  0.00  0.00    +0.000 N 
ATOM      4  C   UNL     1       1.984   5.618  20.022  0.00  0.00    +0.000 C 
ATOM      5  C   UNL     1       1.641   4.140  20.022  0.00  0.00    +0.000 C 
ATOM      6  N   UNL     1       2.822   3.339  20.200  0.00  0.00    +0.000 N 
ATOM      7  C   UNL     1       4.035   3.673  19.660  0.00  0.00    +0.000 C 
ATOM      8  O   UNL     1       4.948   2.840  19.738  0.00  0.00    +0.000 OA
ATOM      9  C   UNL     1       4.227   5.106  19.051  0.00  0.00    +0.000 C 
ATOM     10  H   UNL     1       2.747   2.378  20.513  0.00  0.00    +0.000 HD
ENDROOT
BRANCH   1  15
ATOM     11  C   UNL     1       1.458  10.679  18.797  0.00  0.00    +0.000 A 
ATOM     12  C   UNL     1       0.486  10.364  19.751  0.00  0.00    +0.000 A 
ATOM     13  C   UNL     1       0.407   9.089  20.309  0.00  0.00    +0.000 A 
ATOM     14  C   UNL     1       1.304   8.106  19.909  0.00  0.00    +0.000 A 
ATOM     15  C   UNL     1       2.230   8.372  18.890  0.00  0.00    +0.000 A 
ATOM     16  C   UNL     1       2.249   9.645  18.293  0.00  0.00    +0.000 A 
BRANCH  11  19
ATOM     17  O   UNL     1       2.278  12.928  20.393  0.00  0.00    +0.000 OA
ATOM     18  C   UNL     1       2.101  13.044  19.180  0.00  0.00    +0.000 C 
ATOM     19  N   UNL     1       1.697  12.002  18.346  0.00  0.00    +0.000 N 
ATOM     20  H   UNL     1       1.765  12.182  17.353  0.00  0.00    +0.000 HD
BRANCH  18  21
ATOM     21  C   UNL     1       2.360  14.316  18.541  0.00  0.00    +0.000 A 
ATOM     22  C   UNL     1       3.456  14.677  17.781  0.00  0.00    +0.000 A 
ATOM     23  C   UNL     1       3.277  16.027  17.420  0.00  0.00    +0.000 A 
ATOM     24  C   UNL     1       2.069  16.404  17.964  0.00  0.00    +0.000 A 
ATOM     25  O   UNL     1       1.494  15.371  18.640  0.00  0.00    +0.000 OA
ENDBRANCH  18  21
ENDBRANCH  11  19
ENDBRANCH   1  15
BRANCH   9  26
ATOM     26  C   UNL     1       4.996   5.014  17.735  0.00  0.00    +0.000 A 
ATOM     27  C   UNL     1       4.454   4.384  16.605  0.00  0.00    +0.000 A 
ATOM     28  C   UNL     1       5.151   4.387  15.393  0.00  0.00    +0.000 A 
ATOM     29  C   UNL     1       6.390   5.019  15.293  0.00  0.00    +0.000 A 
ATOM     30  C   UNL     1       6.952   5.624  16.412  0.00  0.00    +0.000 A 
ATOM     31  C   UNL     1       6.266   5.613  17.627  0.00  0.00    +0.000 A 
ENDBRANCH   9  26
TORSDOF 4
ENDMDL
MODEL 9
REMARK VINA RESULT:      -7.7      1.576      2.143
REMARK  Name = 
REMARK  4 active torsions:
REMARK  status: ('A' for Active; 'I' for Inactive)
REMARK    1  A    between atoms: C_2  and  C_25
REMARK    2  A    between atoms: N_3  and  C_4
REMARK    3  A    between atoms: C_8  and  C_9
REMARK    4  A    between atoms: C_17  and  C_18
REMARK                            x       y       z     vdW  Elec       q    Type
REMARK                         _______ _______ _______ _____ _____    ______ ____
ROOT
ATOM      1  C   UNL     1       3.052   7.375  18.367  0.00  0.00    +0.000 C 
ATOM      2  O   UNL     1       3.776   7.632  17.410  0.00  0.00    +0.000 OA
ATOM      3  N   UNL     1       3.014   6.114  18.989  0.00  0.00    +0.000 N 
ATOM      4  C   UNL     1       2.020   5.766  20.002  0.00  0.00    +0.000 C 
ATOM      5  C   UNL     1       1.704   4.283  20.022  0.00  0.00    +0.000 C 
ATOM      6  N   UNL     1       2.900   3.504  20.195  0.00  0.00    +0.000 N 
ATOM      7  C   UNL     1       4.101   3.853  19.638  0.00  0.00    +0.000 C 
ATOM      8  O   UNL     1       5.029   3.038  19.715  0.00  0.00    +0.000 OA
ATOM      9  C   UNL     1       4.261   5.283  19.011  0.00  0.00    +0.000 C 
ATOM     10  H   UNL     1       2.845   2.546  20.520  0.00  0.00    +0.000 HD
ENDROOT
BRANCH   1  15
ATOM     11  C   UNL     1       1.433  10.819  18.765  0.00  0.00    +0.000 A 
ATOM     12  C   UNL     1       0.435  10.486  19.685  0.00  0.00    +0.000 A 
ATOM     13  C   UNL     1       0.342   9.201  20.218  0.00  0.00    +0.000 A 
ATOM     14  C   UNL     1       1.251   8.226  19.826  0.00  0.00    +0.000 A 
ATOM     15  C   UNL     1       2.206   8.512  18.838  0.00  0.00    +0.000 A 
ATOM     16  C   UNL     1       2.239   9.795  18.265  0.00  0.00    +0.000 A 
BRANCH  11  19
ATOM     17  O   UNL     1       2.320  13.011  20.402  0.00  0.00    +0.000 OA
ATOM     18  C   UNL     1       2.120  13.164  19.198  0.00  0.00    +0.000 C 
ATOM     19  N   UNL     1       1.683  12.150  18.345  0.00  0.00    +0.000 N 
ATOM     20  H   UNL     1       1.733  12.356  17.356  0.00  0.00    +0.000 HD
BRANCH  18  21
ATOM     21  C   UNL     1       2.384  14.448  18.587  0.00  0.00    +0.000 A 
ATOM     22  C   UNL     1       1.662  15.618  18.722  0.00  0.00    +0.000 A 
ATOM     23  C   UNL     1       2.281  16.579  17.899  0.00  0.00    +0.000 A 
ATOM     24  C   UNL     1       3.360  15.943  17.325  0.00  0.00    +0.000 A 
ATOM     25  O   UNL     1       3.442  14.648  17.743  0.00  0.00    +0.000 OA
ENDBRANCH  18  21
ENDBRANCH  11  19
ENDBRANCH   1  15
BRANCH   9  26
ATOM     26  C   UNL     1       5.017   5.189  17.688  0.00  0.00    +0.000 A 
ATOM     27  C   UNL     1       6.285   5.763  17.518  0.00  0.00    +0.000 A 
ATOM     28  C   UNL     1       6.984   5.590  16.319  0.00  0.00    +0.000 A 
ATOM     29  C   UNL     1       6.429   4.842  15.281  0.00  0.00    +0.000 A 
ATOM     30  C   UNL     1       5.160   4.289  15.425  0.00  0.00    +0.000 A 
ATOM     31  C   UNL     1       4.454   4.470  16.616  0.00  0.00    +0.000 A 
ENDBRANCH   9  26
TORSDOF 4
ENDMDL
