MODEL 1
REMARK VINA RESULT:      -7.1      0.000      0.000
REMARK  Name = 
REMARK  6 active torsions:
REMARK  status: ('A' for Active; 'I' for Inactive)
REMARK    1  A    between atoms: C_1  and  C_2
REMARK    2  A    between atoms: C_4  and  C_5
REMARK    3  A    between atoms: C_8  and  C_9
REMARK    4  A    between atoms: C_9  and  N_10
REMARK    5  A    between atoms: N_10  and  C_24
REMARK    6  A    between atoms: C_17  and  C_18
REMARK                            x       y       z     vdW  Elec       q    Type
REMARK                         _______ _______ _______ _____ _____    ______ ____
ROOT
ATOM      1  N   UNL     1       2.936   5.067  18.868  0.00  0.00    +0.000 N 
ATOM      2  C   UNL     1       4.264   4.862  18.485  0.00  0.00    +0.000 A 
ATOM      3  C   UNL     1       5.287   4.551  19.552  0.00  0.00    +0.000 A 
ATOM      4  C   UNL     1       6.578   4.453  19.223  0.00  0.00    +0.000 A 
ATOM      5  C   UNL     1       6.944   4.591  17.875  0.00  0.00    +0.000 A 
ATOM      6  N   UNL     1       8.105   4.549  17.264  0.00  0.00    +0.000 NA
ATOM      7  N   UNL     1       7.869   4.677  15.918  0.00  0.00    +0.000 NA
ATOM      8  C   UNL     1       6.561   4.793  15.742  0.00  0.00    +0.000 A 
ATOM      9  N   UNL     1       5.935   4.796  16.958  0.00  0.00    +0.000 N 
ATOM     10  N   UNL     1       4.605   4.968  17.220  0.00  0.00    +0.000 NA
ENDROOT
BRANCH   8  11
ATOM     11  C   UNL     1       5.812   4.858  14.480  0.00  0.00    +0.000 C 
ATOM     12  F   UNL     1       6.624   4.757  13.391  0.00  0.00    +0.000 F 
ATOM     13  F   UNL     1       4.909   3.846  14.369  0.00  0.00    +0.000 F 
ATOM     14  F   UNL     1       5.125   6.021  14.330  0.00  0.00    +0.000 F 
ENDBRANCH   8  11
BRANCH   1  15
ATOM     15  C   UNL     1       2.350   4.122  19.847  0.00  0.00    +0.000 C 
ATOM     16  C   UNL     1       0.947   4.203  20.388  0.00  0.00    +0.000 C 
ATOM     17  C   UNL     1       2.102   4.568  21.267  0.00  0.00    +0.000 C 
ENDBRANCH   1  15
BRANCH   1  18
ATOM     18  C   UNL     1       2.021   5.845  18.014  0.00  0.00    +0.000 C 
BRANCH  18  22
ATOM     19  C   UNL     1       1.425   9.169  19.242  0.00  0.00    +0.000 A 
ATOM     20  C   UNL     1       2.224   9.549  18.187  0.00  0.00    +0.000 A 
ATOM     21  C   UNL     1       2.580   8.369  17.495  0.00  0.00    +0.000 A 
ATOM     22  C   UNL     1       1.998   7.325  18.183  0.00  0.00    +0.000 A 
ATOM     23  O   UNL     1       1.280   7.813  19.244  0.00  0.00    +0.000 OA
BRANCH  19  27
ATOM     24  C   UNL     1      -1.398  10.505  18.781  0.00  0.00    +0.000 C 
ATOM     25  C   UNL     1      -0.542  10.821  19.958  0.00  0.00    +0.000 C 
ATOM     26  C   UNL     1       0.718  11.607  19.798  0.00  0.00    +0.000 C 
ATOM     27  C   UNL     1       0.797  10.153  20.215  0.00  0.00    +0.000 C 
ENDBRANCH  19  27
ENDBRANCH  18  22
ENDBRANCH   1  18
TORSDOF 5
ENDMDL
MODEL 2
REMARK VINA RESULT:      -7.1      0.967      1.238
REMARK  Name = 
REMARK  6 active torsions:
REMARK  status: ('A' for Active; 'I' for Inactive)
REMARK    1  A    between atoms: C_1  and  C_2
REMARK    2  A    between atoms: C_4  and  C_5
REMARK    3  A    between atoms: C_8  and  C_9
REMARK    4  A    between atoms: C_9  and  N_10
REMARK    5  A    between atoms: N_10  and  C_24
REMARK    6  A    between atoms: C_17  and  C_18
REMARK                            x       y       z     vdW  Elec       q    Type
REMARK                         _______ _______ _______ _____ _____    ______ ____
ROOT
ATOM      1  N   UNL     1       3.122   5.894  19.057  0.00  0.00    +0.000 N 
ATOM      2  C   UNL     1       4.393   5.490  18.641  0.00  0.00    +0.000 A 
ATOM      3  C   UNL     1       5.458   5.257  19.686  0.00  0.00    +0.000 A 
ATOM      4  C   UNL     1       6.706   4.970  19.306  0.00  0.00    +0.000 A 
ATOM      5  C   UNL     1       6.983   4.841  17.937  0.00  0.00    +0.000 A 
ATOM      6  N   UNL     1       8.087   4.576  17.278  0.00  0.00    +0.000 NA
ATOM      7  N   UNL     1       7.766   4.500  15.945  0.00  0.00    +0.000 NA
ATOM      8  C   UNL     1       6.464   4.722  15.827  0.00  0.00    +0.000 A 
ATOM      9  N   UNL     1       5.933   4.994  17.057  0.00  0.00    +0.000 N 
ATOM     10  N   UNL     1       4.648   5.346  17.360  0.00  0.00    +0.000 NA
ENDROOT
BRANCH   8  11
ATOM     11  C   UNL     1       5.634   4.653  14.617  0.00  0.00    +0.000 C 
ATOM     12  F   UNL     1       6.346   4.266  13.522  0.00  0.00    +0.000 F 
ATOM     13  F   UNL     1       4.622   3.752  14.742  0.00  0.00    +0.000 F 
ATOM     14  F   UNL     1       5.067   5.845  14.294  0.00  0.00    +0.000 F 
ENDBRANCH   8  11
BRANCH   1  15
ATOM     15  C   UNL     1       2.523   5.194  20.217  0.00  0.00    +0.000 C 
ATOM     16  C   UNL     1       2.374   3.700  20.338  0.00  0.00    +0.000 C 
ATOM     17  C   UNL     1       1.167   4.547  20.088  0.00  0.00    +0.000 C 
ENDBRANCH   1  15
BRANCH   1  18
ATOM     18  C   UNL     1       2.223   6.610  18.134  0.00  0.00    +0.000 C 
BRANCH  18  22
ATOM     19  C   UNL     1       1.366   9.622  19.895  0.00  0.00    +0.000 A 
ATOM     20  C   UNL     1       1.364  10.188  18.639  0.00  0.00    +0.000 A 
ATOM     21  C   UNL     1       1.656   9.152  17.723  0.00  0.00    +0.000 A 
ATOM     22  C   UNL     1       1.847   8.011  18.473  0.00  0.00    +0.000 A 
ATOM     23  O   UNL     1       1.656   8.293  19.801  0.00  0.00    +0.000 OA
BRANCH  19  27
ATOM     24  C   UNL     1      -0.565   8.557  22.154  0.00  0.00    +0.000 C 
ATOM     25  C   UNL     1       0.090   9.892  22.222  0.00  0.00    +0.000 C 
ATOM     26  C   UNL     1      -0.330  10.996  21.307  0.00  0.00    +0.000 C 
ATOM     27  C   UNL     1       1.055  10.399  21.164  0.00  0.00    +0.000 C 
ENDBRANCH  19  27
ENDBRANCH  18  22
ENDBRANCH   1  18
TORSDOF 5
ENDMDL
MODEL 3
REMARK VINA RESULT:      -6.9      5.625      9.205
REMARK  Name = 
REMARK  6 active torsions:
REMARK  status: ('A' for Active; 'I' for Inactive)
REMARK    1  A    between atoms: C_1  and  C_2
REMARK    2  A    between atoms: C_4  and  C_5
REMARK    3  A    between atoms: C_8  and  C_9
REMARK    4  A    between atoms: C_9  and  N_10
REMARK    5  A    between atoms: N_10  and  C_24
REMARK    6  A    between atoms: C_17  and  C_18
REMARK                            x       y       z     vdW  Elec       q    Type
REMARK                         _______ _______ _______ _____ _____    ______ ____
ROOT
ATOM      1  N   UNL     1       0.121  11.712  19.232  0.00  0.00    +0.000 N 
ATOM      2  C   UNL     1      -1.257  11.813  19.028  0.00  0.00    +0.000 A 
ATOM      3  C   UNL     1      -2.087  12.563  20.043  0.00  0.00    +0.000 A 
ATOM      4  C   UNL     1      -3.417  12.585  19.925  0.00  0.00    +0.000 A 
ATOM      5  C   UNL     1      -4.007  11.950  18.821  0.00  0.00    +0.000 A 
ATOM      6  N   UNL     1      -5.258  11.804  18.448  0.00  0.00    +0.000 NA
ATOM      7  N   UNL     1      -5.256  11.150  17.242  0.00  0.00    +0.000 NA
ATOM      8  C   UNL     1      -3.995  10.913  16.908  0.00  0.00    +0.000 A 
ATOM      9  N   UNL     1      -3.168  11.356  17.903  0.00  0.00    +0.000 N 
ATOM     10  N   UNL     1      -1.809  11.238  17.984  0.00  0.00    +0.000 NA
ENDROOT
BRANCH   8  11
ATOM     11  C   UNL     1      -3.475  10.325  15.667  0.00  0.00    +0.000 C 
ATOM     12  F   UNL     1      -2.566  11.133  15.053  0.00  0.00    +0.000 F 
ATOM     13  F   UNL     1      -2.836   9.144  15.889  0.00  0.00    +0.000 F 
ATOM     14  F   UNL     1      -4.445  10.084  14.746  0.00  0.00    +0.000 F 
ENDBRANCH   8  11
BRANCH   1  15
ATOM     15  C   UNL     1       0.846  12.936  19.648  0.00  0.00    +0.000 C 
ATOM     16  C   UNL     1       2.275  12.971  20.120  0.00  0.00    +0.000 C 
ATOM     17  C   UNL     1       1.165  13.163  21.104  0.00  0.00    +0.000 C 
ENDBRANCH   1  15
BRANCH   1  18
ATOM     18  C   UNL     1       0.893  10.620  18.611  0.00  0.00    +0.000 C 
BRANCH  18  22
ATOM     19  C   UNL     1       2.154   7.476  19.809  0.00  0.00    +0.000 A 
ATOM     20  C   UNL     1       1.371   7.743  20.911  0.00  0.00    +0.000 A 
ATOM     21  C   UNL     1       0.715   8.970  20.660  0.00  0.00    +0.000 A 
ATOM     22  C   UNL     1       1.153   9.400  19.425  0.00  0.00    +0.000 A 
ATOM     23  O   UNL     1       2.023   8.481  18.897  0.00  0.00    +0.000 OA
BRANCH  19  27
ATOM     24  C   UNL     1       1.460   5.139  17.803  0.00  0.00    +0.000 C 
ATOM     25  C   UNL     1       2.627   5.085  18.727  0.00  0.00    +0.000 C 
ATOM     26  C   UNL     1       2.428   4.921  20.199  0.00  0.00    +0.000 C 
ATOM     27  C   UNL     1       2.997   6.220  19.665  0.00  0.00    +0.000 C 
ENDBRANCH  19  27
ENDBRANCH  18  22
ENDBRANCH   1  18
TORSDOF 5
ENDMDL
MODEL 4
REMARK VINA RESULT:      -6.9      5.309      9.091
REMARK  Name = 
REMARK  6 active torsions:
REMARK  status: ('A' for Active; 'I' for Inactive)
REMARK    1  A    between atoms: C_1  and  C_2
REMARK    2  A    between atoms: C_4  and  C_5
REMARK    3  A    between atoms: C_8  and  C_9
REMARK    4  A    between atoms: C_9  and  N_10
REMARK    5  A    between atoms: N_10  and  C_24
REMARK    6  A    between atoms: C_17  and  C_18
REMARK                            x       y       z     vdW  Elec       q    Type
REMARK                         _______ _______ _______ _____ _____    ______ ____
ROOT
ATOM      1  N   UNL     1       0.773  11.204  18.898  0.00  0.00    +0.000 N 
ATOM      2  C   UNL     1      -0.591  11.507  18.898  0.00  0.00    +0.000 A 
ATOM      3  C   UNL     1      -1.154  12.315  20.043  0.00  0.00    +0.000 A 
ATOM      4  C   UNL     1      -2.470  12.528  20.118  0.00  0.00    +0.000 A 
ATOM      5  C   UNL     1      -3.294  12.037  19.094  0.00  0.00    +0.000 A 
ATOM      6  N   UNL     1      -4.592  12.085  18.901  0.00  0.00    +0.000 NA
ATOM      7  N   UNL     1      -4.852  11.498  17.688  0.00  0.00    +0.000 NA
ATOM      8  C   UNL     1      -3.698  11.103  17.170  0.00  0.00    +0.000 A 
ATOM      9  N   UNL     1      -2.685  11.377  18.048  0.00  0.00    +0.000 N 
ATOM     10  N   UNL     1      -1.360  11.066  17.928  0.00  0.00    +0.000 NA
ENDROOT
BRANCH   8  11
ATOM     11  C   UNL     1      -3.446  10.510  15.850  0.00  0.00    +0.000 C 
ATOM     12  F   UNL     1      -2.884   9.273  15.938  0.00  0.00    +0.000 F 
ATOM     13  F   UNL     1      -4.592  10.350  15.135  0.00  0.00    +0.000 F 
ATOM     14  F   UNL     1      -2.601  11.253  15.087  0.00  0.00    +0.000 F 
ENDBRANCH   8  11
BRANCH   1  15
ATOM     15  C   UNL     1       1.719  12.292  19.240  0.00  0.00    +0.000 C 
ATOM     16  C   UNL     1       1.599  13.716  18.767  0.00  0.00    +0.000 C 
ATOM     17  C   UNL     1       2.657  12.831  18.189  0.00  0.00    +0.000 C 
ENDBRANCH   1  15
BRANCH   1  18
ATOM     18  C   UNL     1       1.284  10.046  18.142  0.00  0.00    +0.000 C 
BRANCH  18  22
ATOM     19  C   UNL     1       2.722   6.913  19.151  0.00  0.00    +0.000 A 
ATOM     20  C   UNL     1       2.060   7.152  20.335  0.00  0.00    +0.000 A 
ATOM     21  C   UNL     1       1.359   8.369  20.174  0.00  0.00    +0.000 A 
ATOM     22  C   UNL     1       1.653   8.822  18.905  0.00  0.00    +0.000 A 
ATOM     23  O   UNL     1       2.475   7.926  18.273  0.00  0.00    +0.000 OA
BRANCH  19  27
ATOM     24  C   UNL     1       1.625   4.327  17.711  0.00  0.00    +0.000 C 
ATOM     25  C   UNL     1       3.012   4.422  18.244  0.00  0.00    +0.000 C 
ATOM     26  C   UNL     1       3.266   4.434  19.716  0.00  0.00    +0.000 C 
ATOM     27  C   UNL     1       3.567   5.674  18.899  0.00  0.00    +0.000 C 
ENDBRANCH  19  27
ENDBRANCH  18  22
ENDBRANCH   1  18
TORSDOF 5
ENDMDL
MODEL 5
REMARK VINA RESULT:      -6.7      1.084      1.517
REMARK  Name = 
REMARK  6 active torsions:
REMARK  status: ('A' for Active; 'I' for Inactive)
REMARK    1  A    between atoms: C_1  and  C_2
REMARK    2  A    between atoms: C_4  and  C_5
REMARK    3  A    between atoms: C_8  and  C_9
REMARK    4  A    between atoms: C_9  and  N_10
REMARK    5  A    between atoms: N_10  and  C_24
REMARK    6  A    between atoms: C_17  and  C_18
REMARK                            x       y       z     vdW  Elec       q    Type
REMARK                         _______ _______ _______ _____ _____    ______ ____
ROOT
ATOM      1  N   UNL     1       3.028   6.637  18.521  0.00  0.00    +0.000 N 
ATOM      2  C   UNL     1       4.262   6.009  18.335  0.00  0.00    +0.000 A 
ATOM      3  C   UNL     1       5.055   5.593  19.551  0.00  0.00    +0.000 A 
ATOM      4  C   UNL     1       6.281   5.085  19.399  0.00  0.00    +0.000 A 
ATOM      5  C   UNL     1       6.781   4.902  18.100  0.00  0.00    +0.000 A 
ATOM      6  N   UNL     1       7.924   4.441  17.648  0.00  0.00    +0.000 NA
ATOM      7  N   UNL     1       7.848   4.418  16.278  0.00  0.00    +0.000 NA
ATOM      8  C   UNL     1       6.652   4.870  15.928  0.00  0.00    +0.000 A 
ATOM      9  N   UNL     1       5.957   5.238  17.047  0.00  0.00    +0.000 N 
ATOM     10  N   UNL     1       4.721   5.817  17.118  0.00  0.00    +0.000 NA
ENDROOT
BRANCH   8  11
ATOM     11  C   UNL     1       6.063   4.947  14.585  0.00  0.00    +0.000 C 
ATOM     12  F   UNL     1       7.009   5.016  13.608  0.00  0.00    +0.000 F 
ATOM     13  F   UNL     1       5.306   3.853  14.296  0.00  0.00    +0.000 F 
ATOM     14  F   UNL     1       5.267   6.036  14.415  0.00  0.00    +0.000 F 
ENDBRANCH   8  11
BRANCH   1  15
ATOM     15  C   UNL     1       2.109   6.060  19.531  0.00  0.00    +0.000 C 
ATOM     16  C   UNL     1       2.436   4.894  20.425  0.00  0.00    +0.000 C 
ATOM     17  C   UNL     1       1.479   4.711  19.291  0.00  0.00    +0.000 C 
ENDBRANCH   1  15
BRANCH   1  18
ATOM     18  C   UNL     1       2.458   7.499  17.470  0.00  0.00    +0.000 C 
BRANCH  18  22
ATOM     19  C   UNL     1       0.200  10.074  18.557  0.00  0.00    +0.000 A 
ATOM     20  C   UNL     1       1.321  10.874  18.525  0.00  0.00    +0.000 A 
ATOM     21  C   UNL     1       2.390  10.064  18.076  0.00  0.00    +0.000 A 
ATOM     22  C   UNL     1       1.867   8.803  17.882  0.00  0.00    +0.000 A 
ATOM     23  O   UNL     1       0.525   8.810  18.162  0.00  0.00    +0.000 OA
BRANCH  19  27
ATOM     24  C   UNL     1      -2.297   9.993  16.627  0.00  0.00    +0.000 C 
ATOM     25  C   UNL     1      -2.359  10.574  17.997  0.00  0.00    +0.000 C 
ATOM     26  C   UNL     1      -1.671  11.862  18.313  0.00  0.00    +0.000 C 
ATOM     27  C   UNL     1      -1.179  10.579  18.951  0.00  0.00    +0.000 C 
ENDBRANCH  19  27
ENDBRANCH  18  22
ENDBRANCH   1  18
TORSDOF 5
ENDMDL
MODEL 6
REMARK VINA RESULT:      -6.7      0.961      1.720
REMARK  Name = 
REMARK  6 active torsions:
REMARK  status: ('A' for Active; 'I' for Inactive)
REMARK    1  A    between atoms: C_1  and  C_2
REMARK    2  A    between atoms: C_4  and  C_5
REMARK    3  A    between atoms: C_8  and  C_9
REMARK    4  A    between atoms: C_9  and  N_10
REMARK    5  A    between atoms: N_10  and  C_24
REMARK    6  A    between atoms: C_17  and  C_18
REMARK                            x       y       z     vdW  Elec       q    Type
REMARK                         _______ _______ _______ _____ _____    ______ ____
ROOT
ATOM      1  N   UNL     1       3.233   5.982  19.276  0.00  0.00    +0.000 N 
ATOM      2  C   UNL     1       4.458   5.506  18.804  0.00  0.00    +0.000 A 
ATOM      3  C   UNL     1       5.474   5.002  19.801  0.00  0.00    +0.000 A 
ATOM      4  C   UNL     1       6.689   4.638  19.382  0.00  0.00    +0.000 A 
ATOM      5  C   UNL     1       6.972   4.685  18.008  0.00  0.00    +0.000 A 
ATOM      6  N   UNL     1       8.051   4.400  17.316  0.00  0.00    +0.000 NA
ATOM      7  N   UNL     1       7.744   4.561  15.988  0.00  0.00    +0.000 NA
ATOM      8  C   UNL     1       6.477   4.941  15.905  0.00  0.00    +0.000 A 
ATOM      9  N   UNL     1       5.959   5.084  17.162  0.00  0.00    +0.000 N 
ATOM     10  N   UNL     1       4.716   5.528  17.515  0.00  0.00    +0.000 NA
ENDROOT
BRANCH   8  11
ATOM     11  C   UNL     1       5.664   5.147  14.699  0.00  0.00    +0.000 C 
ATOM     12  F   UNL     1       5.049   6.362  14.691  0.00  0.00    +0.000 F 
ATOM     13  F   UNL     1       6.413   5.100  13.563  0.00  0.00    +0.000 F 
ATOM     14  F   UNL     1       4.675   4.225  14.562  0.00  0.00    +0.000 F 
ENDBRANCH   8  11
BRANCH   1  15
ATOM     15  C   UNL     1       2.542   5.187  20.319  0.00  0.00    +0.000 C 
ATOM     16  C   UNL     1       2.432   3.686  20.325  0.00  0.00    +0.000 C 
ATOM     17  C   UNL     1       1.229   4.515  20.006  0.00  0.00    +0.000 C 
ENDBRANCH   1  15
BRANCH   1  18
ATOM     18  C   UNL     1       2.434   6.924  18.472  0.00  0.00    +0.000 C 
BRANCH  18  22
ATOM     19  C   UNL     1       0.771  10.022  19.214  0.00  0.00    +0.000 A 
ATOM     20  C   UNL     1       0.831   9.578  20.517  0.00  0.00    +0.000 A 
ATOM     21  C   UNL     1       1.502   8.334  20.496  0.00  0.00    +0.000 A 
ATOM     22  C   UNL     1       1.793   8.071  19.174  0.00  0.00    +0.000 A 
ATOM     23  O   UNL     1       1.359   9.109  18.390  0.00  0.00    +0.000 OA
BRANCH  19  27
ATOM     24  C   UNL     1       2.478  12.522  18.320  0.00  0.00    +0.000 C 
ATOM     25  C   UNL     1       0.993  12.559  18.423  0.00  0.00    +0.000 C 
ATOM     26  C   UNL     1       0.319  12.523  19.756  0.00  0.00    +0.000 C 
ATOM     27  C   UNL     1       0.157  11.352  18.809  0.00  0.00    +0.000 C 
ENDBRANCH  19  27
ENDBRANCH  18  22
ENDBRANCH   1  18
TORSDOF 5
ENDMDL
MODEL 7
REMARK VINA RESULT:      -6.7      2.748      5.438
REMARK  Name = 
REMARK  6 active torsions:
REMARK  status: ('A' for Active; 'I' for Inactive)
REMARK    1  A    between atoms: C_1  and  C_2
REMARK    2  A    between atoms: C_4  and  C_5
REMARK    3  A    between atoms: C_8  and  C_9
REMARK    4  A    between atoms: C_9  and  N_10
REMARK    5  A    between atoms: N_10  and  C_24
REMARK    6  A    between atoms: C_17  and  C_18
REMARK                            x       y       z     vdW  Elec       q    Type
REMARK                         _______ _______ _______ _____ _____    ______ ____
ROOT
ATOM      1  N   UNL     1       3.135   7.501  18.035  0.00  0.00    +0.000 N 
ATOM      2  C   UNL     1       4.217   6.901  17.387  0.00  0.00    +0.000 A 
ATOM      3  C   UNL     1       4.168   6.746  15.885  0.00  0.00    +0.000 A 
ATOM      4  C   UNL     1       5.143   6.084  15.256  0.00  0.00    +0.000 A 
ATOM      5  C   UNL     1       6.220   5.593  16.008  0.00  0.00    +0.000 A 
ATOM      6  N   UNL     1       7.296   4.916  15.677  0.00  0.00    +0.000 NA
ATOM      7  N   UNL     1       8.052   4.759  16.812  0.00  0.00    +0.000 NA
ATOM      8  C   UNL     1       7.412   5.348  17.812  0.00  0.00    +0.000 A 
ATOM      9  N   UNL     1       6.221   5.847  17.363  0.00  0.00    +0.000 N 
ATOM     10  N   UNL     1       5.238   6.460  18.088  0.00  0.00    +0.000 NA
ENDROOT
BRANCH   8  11
ATOM     11  C   UNL     1       7.860   5.531  19.199  0.00  0.00    +0.000 C 
ATOM     12  F   UNL     1       6.888   5.226  20.102  0.00  0.00    +0.000 F 
ATOM     13  F   UNL     1       8.918   4.731  19.504  0.00  0.00    +0.000 F 
ATOM     14  F   UNL     1       8.237   6.809  19.471  0.00  0.00    +0.000 F 
ENDBRANCH   8  11
BRANCH   1  15
ATOM     15  C   UNL     1       2.572   8.733  17.435  0.00  0.00    +0.000 C 
ATOM     16  C   UNL     1       2.085   9.925  18.215  0.00  0.00    +0.000 C 
ATOM     17  C   UNL     1       1.096   9.020  17.552  0.00  0.00    +0.000 C 
ENDBRANCH   1  15
BRANCH   1  18
ATOM     18  C   UNL     1       2.875   7.237  19.462  0.00  0.00    +0.000 C 
BRANCH  18  22
ATOM     19  C   UNL     1       1.841   3.796  19.516  0.00  0.00    +0.000 A 
ATOM     20  C   UNL     1       1.216   4.150  20.692  0.00  0.00    +0.000 A 
ATOM     21  C   UNL     1       1.457   5.529  20.885  0.00  0.00    +0.000 A 
ATOM     22  C   UNL     1       2.241   5.939  19.827  0.00  0.00    +0.000 A 
ATOM     23  O   UNL     1       2.465   4.884  18.981  0.00  0.00    +0.000 OA
BRANCH  19  27
ATOM     24  C   UNL     1       4.342   1.875  19.380  0.00  0.00    +0.000 C 
ATOM     25  C   UNL     1       3.010   1.500  18.830  0.00  0.00    +0.000 C 
ATOM     26  C   UNL     1       2.478   2.160  17.600  0.00  0.00    +0.000 C 
ATOM     27  C   UNL     1       1.788   2.395  18.928  0.00  0.00    +0.000 C 
ENDBRANCH  19  27
ENDBRANCH  18  22
ENDBRANCH   1  18
TORSDOF 5
ENDMDL
MODEL 8
REMARK VINA RESULT:      -6.6      5.058      9.014
REMARK  Name = 
REMARK  6 active torsions:
REMARK  status: ('A' for Active; 'I' for Inactive)
REMARK    1  A    between atoms: C_1  and  C_2
REMARK    2  A    between atoms: C_4  and  C_5
REMARK    3  A    between atoms: C_8  and  C_9
REMARK    4  A    between atoms: C_9  and  N_10
REMARK    5  A    between atoms: N_10  and  C_24
REMARK    6  A    between atoms: C_17  and  C_18
REMARK                            x       y       z     vdW  Elec       q    Type
REMARK                         _______ _______ _______ _____ _____    ______ ____
ROOT
ATOM      1  N   UNL     1       0.918  10.955  18.824  0.00  0.00    +0.000 N 
ATOM      2  C   UNL     1      -0.444  11.266  18.834  0.00  0.00    +0.000 A 
ATOM      3  C   UNL     1      -0.998  12.058  19.994  0.00  0.00    +0.000 A 
ATOM      4  C   UNL     1      -2.313  12.278  20.077  0.00  0.00    +0.000 A 
ATOM      5  C   UNL     1      -3.143  11.807  19.048  0.00  0.00    +0.000 A 
ATOM      6  N   UNL     1      -4.441  11.866  18.860  0.00  0.00    +0.000 NA
ATOM      7  N   UNL     1      -4.709  11.300  17.639  0.00  0.00    +0.000 NA
ATOM      8  C   UNL     1      -3.559  10.907  17.111  0.00  0.00    +0.000 A 
ATOM      9  N   UNL     1      -2.542  11.161  17.989  0.00  0.00    +0.000 N 
ATOM     10  N   UNL     1      -1.219  10.845  17.859  0.00  0.00    +0.000 NA
ENDROOT
BRANCH   8  11
ATOM     11  C   UNL     1      -3.314  10.334  15.781  0.00  0.00    +0.000 C 
ATOM     12  F   UNL     1      -4.458  10.212  15.052  0.00  0.00    +0.000 F 
ATOM     13  F   UNL     1      -2.477  11.107  15.037  0.00  0.00    +0.000 F 
ATOM     14  F   UNL     1      -2.767   9.091  15.831  0.00  0.00    +0.000 F 
ENDBRANCH   8  11
BRANCH   1  15
ATOM     15  C   UNL     1       1.872  12.033  19.180  0.00  0.00    +0.000 C 
ATOM     16  C   UNL     1       1.674  13.493  18.872  0.00  0.00    +0.000 C 
ATOM     17  C   UNL     1       2.684  12.705  18.101  0.00  0.00    +0.000 C 
ENDBRANCH   1  15
BRANCH   1  18
ATOM     18  C   UNL     1       1.420   9.807  18.047  0.00  0.00    +0.000 C 
BRANCH  18  22
ATOM     19  C   UNL     1       2.388   6.450  18.886  0.00  0.00    +0.000 A 
ATOM     20  C   UNL     1       2.127   6.849  20.178  0.00  0.00    +0.000 A 
ATOM     21  C   UNL     1       1.678   8.188  20.112  0.00  0.00    +0.000 A 
ATOM     22  C   UNL     1       1.714   8.544  18.780  0.00  0.00    +0.000 A 
ATOM     23  O   UNL     1       2.135   7.478  18.027  0.00  0.00    +0.000 OA
BRANCH  19  27
ATOM     24  C   UNL     1       5.372   5.477  19.223  0.00  0.00    +0.000 C 
ATOM     25  C   UNL     1       4.306   4.613  18.647  0.00  0.00    +0.000 C 
ATOM     26  C   UNL     1       3.737   4.900  17.295  0.00  0.00    +0.000 C 
ATOM     27  C   UNL     1       2.858   5.052  18.520  0.00  0.00    +0.000 C 
ENDBRANCH  19  27
ENDBRANCH  18  22
ENDBRANCH   1  18
TORSDOF 5
ENDMDL
MODEL 9
REMARK VINA RESULT:      -6.5      8.211     11.335
REMARK  Name = 
REMARK  6 active torsions:
REMARK  status: ('A' for Active; 'I' for Inactive)
REMARK    1  A    between atoms: C_1  and  C_2
REMARK    2  A    between atoms: C_4  and  C_5
REMARK    3  A    between atoms: C_8  and  C_9
REMARK    4  A    between atoms: C_9  and  N_10
REMARK    5  A    between atoms: N_10  and  C_24
REMARK    6  A    between atoms: C_17  and  C_18
REMARK                            x       y       z     vdW  Elec       q    Type
REMARK                         _______ _______ _______ _____ _____    ______ ____
ROOT
ATOM      1  N   UNL     1      -3.226  11.665  17.992  0.00  0.00    +0.000 N 
ATOM      2  C   UNL     1      -4.265  12.030  18.852  0.00  0.00    +0.000 A 
ATOM      3  C   UNL     1      -5.684  11.977  18.338  0.00  0.00    +0.000 A 
ATOM      4  C   UNL     1      -6.683  12.419  19.107  0.00  0.00    +0.000 A 
ATOM      5  C   UNL     1      -6.388  12.876  20.401  0.00  0.00    +0.000 A 
ATOM      6  N   UNL     1      -7.141  13.362  21.361  0.00  0.00    +0.000 NA
ATOM      7  N   UNL     1      -6.333  13.584  22.448  0.00  0.00    +0.000 NA
ATOM      8  C   UNL     1      -5.100  13.224  22.120  0.00  0.00    +0.000 A 
ATOM      9  N   UNL     1      -5.075  12.817  20.814  0.00  0.00    +0.000 N 
ATOM     10  N   UNL     1      -3.992  12.437  20.072  0.00  0.00    +0.000 NA
ENDROOT
BRANCH   8  11
ATOM     11  C   UNL     1      -3.904  13.184  22.971  0.00  0.00    +0.000 C 
ATOM     12  F   UNL     1      -2.834  13.794  22.390  0.00  0.00    +0.000 F 
ATOM     13  F   UNL     1      -4.100  13.823  24.157  0.00  0.00    +0.000 F 
ATOM     14  F   UNL     1      -3.502  11.919  23.263  0.00  0.00    +0.000 F 
ENDBRANCH   8  11
BRANCH   1  15
ATOM     15  C   UNL     1      -3.406  10.438  17.180  0.00  0.00    +0.000 C 
ATOM     16  C   UNL     1      -2.473   9.983  16.089  0.00  0.00    +0.000 C 
ATOM     17  C   UNL     1      -3.810  10.549  15.731  0.00  0.00    +0.000 C 
ENDBRANCH   1  15
BRANCH   1  18
ATOM     18  C   UNL     1      -1.855  12.156  18.220  0.00  0.00    +0.000 C 
BRANCH  18  22
ATOM     19  C   UNL     1      -0.145   9.714  20.226  0.00  0.00    +0.000 A 
ATOM     20  C   UNL     1       0.819   9.792  19.245  0.00  0.00    +0.000 A 
ATOM     21  C   UNL     1       0.377  10.756  18.310  0.00  0.00    +0.000 A 
ATOM     22  C   UNL     1      -0.850  11.197  18.758  0.00  0.00    +0.000 A 
ATOM     23  O   UNL     1      -1.166  10.571  19.937  0.00  0.00    +0.000 OA
BRANCH  19  27
ATOM     24  C   UNL     1      -0.765  10.683  23.166  0.00  0.00    +0.000 C 
ATOM     25  C   UNL     1      -0.290   9.306  22.857  0.00  0.00    +0.000 C 
ATOM     26  C   UNL     1       1.114   9.066  22.405  0.00  0.00    +0.000 C 
ATOM     27  C   UNL     1      -0.030   8.813  21.445  0.00  0.00    +0.000 C 
ENDBRANCH  19  27
ENDBRANCH  18  22
ENDBRANCH   1  18
TORSDOF 5
ENDMDL
