MODEL 1
REMARK VINA RESULT:      -8.7      0.000      0.000
REMARK  Name = 
REMARK  7 active torsions:
REMARK  status: ('A' for Active; 'I' for Inactive)
REMARK    1  A    between atoms: C_1  and  C_2
REMARK    2  A    between atoms: C_2  and  C_3
REMARK    3  A    between atoms: C_5  and  N_6
REMARK    4  A    between atoms: C_7  and  C_9
REMARK    5  A    between atoms: C_9  and  C_10
REMARK    6  A    between atoms: C_10  and  C_11
REMARK    7  A    between atoms: C_13  and  C_14
REMARK                            x       y       z     vdW  Elec       q    Type
REMARK                         _______ _______ _______ _____ _____    ______ ____
ROOT
ATOM      1  N   UNL     1       4.465   4.500  17.523  0.00  0.00    +0.000 N 
ATOM      2  C   UNL     1       3.731   3.928  18.536  0.00  0.00    +0.000 C 
ATOM      3  O   UNL     1       4.169   3.061  19.284  0.00  0.00    +0.000 OA
ATOM      4  H   UNL     1       4.078   5.263  16.986  0.00  0.00    +0.000 HD
ENDROOT
BRANCH   1   9
ATOM      5  C   UNL     1       8.054   7.157  18.316  0.00  0.00    +0.000 C 
ATOM      6  C   UNL     1       7.033   6.389  17.464  0.00  0.00    +0.000 C 
ATOM      7  C   UNL     1       5.762   7.250  17.368  0.00  0.00    +0.000 C 
ATOM      8  C   UNL     1       6.830   5.008  18.099  0.00  0.00    +0.000 C 
ATOM      9  C   UNL     1       5.860   4.149  17.286  0.00  0.00    +0.000 C 
ATOM     10  C   UNL     1       6.194   4.271  15.815  0.00  0.00    +0.000 A 
ATOM     11  C   UNL     1       5.662   3.353  14.893  0.00  0.00    +0.000 A 
ATOM     12  C   UNL     1       5.986   3.445  13.538  0.00  0.00    +0.000 A 
ATOM     13  C   UNL     1       6.848   4.447  13.106  0.00  0.00    +0.000 A 
ATOM     14  F   UNL     1       7.164   4.528  11.806  0.00  0.00    +0.000 F 
ATOM     15  C   UNL     1       7.380   5.367  13.998  0.00  0.00    +0.000 A 
ATOM     16  C   UNL     1       7.042   5.289  15.350  0.00  0.00    +0.000 A 
ATOM     17  O   UNL     1       7.599   6.254  16.149  0.00  0.00    +0.000 OA
ENDBRANCH   1   9
BRANCH   2  18
ATOM     18  C   UNL     1       2.337   4.492  18.698  0.00  0.00    +0.000 C 
BRANCH  18  19
ATOM     19  C   UNL     1       2.043   4.917  20.130  0.00  0.00    +0.000 C 
BRANCH  19  20
ATOM     20  C   UNL     1       1.818   6.376  20.228  0.00  0.00    +0.000 A 
ATOM     21  N   UNL     1       1.163   7.053  21.139  0.00  0.00    +0.000 NA
ATOM     22  C   UNL     1       1.227   8.349  20.651  0.00  0.00    +0.000 A 
ATOM     23  N   UNL     1       1.933   8.458  19.510  0.00  0.00    +0.000 NA
ATOM     24  O   UNL     1       2.317   7.150  19.227  0.00  0.00    +0.000 OA
BRANCH  22  25
ATOM     25  C   UNL     1       0.553   9.460  21.328  0.00  0.00    +0.000 A 
ATOM     26  C   UNL     1      -0.113   9.238  22.534  0.00  0.00    +0.000 A 
ATOM     27  C   UNL     1      -0.789  10.294  23.139  0.00  0.00    +0.000 A 
ATOM     28  C   UNL     1      -0.783  11.541  22.528  0.00  0.00    +0.000 A 
ATOM     29  C   UNL     1      -0.088  11.685  21.339  0.00  0.00    +0.000 A 
ATOM     30  N   UNL     1       0.579  10.682  20.729  0.00  0.00    +0.000 NA
ENDBRANCH  22  25
ENDBRANCH  19  20
ENDBRANCH  18  19
ENDBRANCH   2  18
TORSDOF 5
ENDMDL
MODEL 2
REMARK VINA RESULT:      -8.6      2.743      4.737
REMARK  Name = 
REMARK  7 active torsions:
REMARK  status: ('A' for Active; 'I' for Inactive)
REMARK    1  A    between atoms: C_1  and  C_2
REMARK    2  A    between atoms: C_2  and  C_3
REMARK    3  A    between atoms: C_5  and  N_6
REMARK    4  A    between atoms: C_7  and  C_9
REMARK    5  A    between atoms: C_9  and  C_10
REMARK    6  A    between atoms: C_10  and  C_11
REMARK    7  A    between atoms: C_13  and  C_14
REMARK                            x       y       z     vdW  Elec       q    Type
REMARK                         _______ _______ _______ _____ _____    ______ ____
ROOT
ATOM      1  N   UNL     1       2.184   7.117  18.712  0.00  0.00    +0.000 N 
ATOM      2  C   UNL     1       1.972   8.408  18.285  0.00  0.00    +0.000 C 
ATOM      3  O   UNL     1       2.156   8.779  17.131  0.00  0.00    +0.000 OA
ATOM      4  H   UNL     1       1.944   6.851  19.656  0.00  0.00    +0.000 HD
ENDROOT
BRANCH   1   9
ATOM      5  C   UNL     1       1.517   2.670  19.296  0.00  0.00    +0.000 C 
ATOM      6  C   UNL     1       2.327   3.972  19.207  0.00  0.00    +0.000 C 
ATOM      7  C   UNL     1       2.196   4.697  20.558  0.00  0.00    +0.000 C 
ATOM      8  C   UNL     1       1.820   4.764  17.997  0.00  0.00    +0.000 C 
ATOM      9  C   UNL     1       2.606   6.061  17.800  0.00  0.00    +0.000 C 
ATOM     10  C   UNL     1       4.084   5.781  17.963  0.00  0.00    +0.000 A 
ATOM     11  C   UNL     1       5.032   6.724  17.530  0.00  0.00    +0.000 A 
ATOM     12  C   UNL     1       6.399   6.460  17.655  0.00  0.00    +0.000 A 
ATOM     13  C   UNL     1       6.817   5.253  18.203  0.00  0.00    +0.000 A 
ATOM     14  F   UNL     1       8.128   4.999  18.314  0.00  0.00    +0.000 F 
ATOM     15  C   UNL     1       5.897   4.311  18.642  0.00  0.00    +0.000 A 
ATOM     16  C   UNL     1       4.532   4.580  18.537  0.00  0.00    +0.000 A 
ATOM     17  O   UNL     1       3.703   3.599  19.016  0.00  0.00    +0.000 OA
ENDBRANCH   1   9
BRANCH   2  18
ATOM     18  C   UNL     1       1.435   9.341  19.347  0.00  0.00    +0.000 C 
BRANCH  18  19
ATOM     19  C   UNL     1       1.423   8.704  20.730  0.00  0.00    +0.000 C 
BRANCH  19  20
ATOM     20  C   UNL     1       0.614   9.494  21.685  0.00  0.00    +0.000 A 
ATOM     21  N   UNL     1      -0.041  10.611  21.489  0.00  0.00    +0.000 NA
ATOM     22  C   UNL     1      -0.522  10.902  22.756  0.00  0.00    +0.000 A 
ATOM     23  N   UNL     1      -0.206   9.971  23.676  0.00  0.00    +0.000 NA
ATOM     24  O   UNL     1       0.552   9.043  22.967  0.00  0.00    +0.000 OA
BRANCH  22  25
ATOM     25  C   UNL     1      -1.274  12.129  23.032  0.00  0.00    +0.000 A 
ATOM     26  C   UNL     1      -2.665  12.083  23.140  0.00  0.00    +0.000 A 
ATOM     27  C   UNL     1      -3.367  13.266  23.352  0.00  0.00    +0.000 A 
ATOM     28  C   UNL     1      -2.667  14.461  23.453  0.00  0.00    +0.000 A 
ATOM     29  C   UNL     1      -1.287  14.423  23.348  0.00  0.00    +0.000 A 
ATOM     30  N   UNL     1      -0.577  13.292  23.145  0.00  0.00    +0.000 NA
ENDBRANCH  22  25
ENDBRANCH  19  20
ENDBRANCH  18  19
ENDBRANCH   2  18
TORSDOF 5
ENDMDL
MODEL 3
REMARK VINA RESULT:      -8.6      5.605      8.188
REMARK  Name = 
REMARK  7 active torsions:
REMARK  status: ('A' for Active; 'I' for Inactive)
REMARK    1  A    between atoms: C_1  and  C_2
REMARK    2  A    between atoms: C_2  and  C_3
REMARK    3  A    between atoms: C_5  and  N_6
REMARK    4  A    between atoms: C_7  and  C_9
REMARK    5  A    between atoms: C_9  and  C_10
REMARK    6  A    between atoms: C_10  and  C_11
REMARK    7  A    between atoms: C_13  and  C_14
REMARK                            x       y       z     vdW  Elec       q    Type
REMARK                         _______ _______ _______ _____ _____    ______ ____
ROOT
ATOM      1  N   UNL     1       6.794   6.694  17.500  0.00  0.00    +0.000 N 
ATOM      2  C   UNL     1       7.789   7.349  18.186  0.00  0.00    +0.000 C 
ATOM      3  O   UNL     1       8.515   6.806  19.012  0.00  0.00    +0.000 OA
ATOM      4  H   UNL     1       6.277   7.173  16.777  0.00  0.00    +0.000 HD
ENDROOT
BRANCH   1   9
ATOM      5  C   UNL     1       6.098   3.696  14.168  0.00  0.00    +0.000 C 
ATOM      6  C   UNL     1       5.726   4.571  15.375  0.00  0.00    +0.000 C 
ATOM      7  C   UNL     1       5.456   5.993  14.857  0.00  0.00    +0.000 C 
ATOM      8  C   UNL     1       6.856   4.462  16.405  0.00  0.00    +0.000 C 
ATOM      9  C   UNL     1       6.549   5.267  17.669  0.00  0.00    +0.000 C 
ATOM     10  C   UNL     1       5.115   5.021  18.083  0.00  0.00    +0.000 A 
ATOM     11  C   UNL     1       4.679   5.389  19.368  0.00  0.00    +0.000 A 
ATOM     12  C   UNL     1       3.362   5.142  19.765  0.00  0.00    +0.000 A 
ATOM     13  C   UNL     1       2.486   4.520  18.883  0.00  0.00    +0.000 A 
ATOM     14  F   UNL     1       1.226   4.277  19.269  0.00  0.00    +0.000 F 
ATOM     15  C   UNL     1       2.894   4.154  17.608  0.00  0.00    +0.000 A 
ATOM     16  C   UNL     1       4.202   4.418  17.202  0.00  0.00    +0.000 A 
ATOM     17  O   UNL     1       4.505   4.039  15.920  0.00  0.00    +0.000 OA
ENDBRANCH   1   9
BRANCH   2  18
ATOM     18  C   UNL     1       7.965   8.803  17.804  0.00  0.00    +0.000 C 
BRANCH  18  19
ATOM     19  C   UNL     1       8.903   9.544  18.746  0.00  0.00    +0.000 C 
BRANCH  19  20
ATOM     20  C   UNL     1       9.101  10.948  18.322  0.00  0.00    +0.000 A 
ATOM     21  N   UNL     1      10.106  11.752  18.566  0.00  0.00    +0.000 NA
ATOM     22  C   UNL     1       9.684  12.940  17.990  0.00  0.00    +0.000 A 
ATOM     23  N   UNL     1       8.488  12.845  17.381  0.00  0.00    +0.000 NA
ATOM     24  O   UNL     1       8.100  11.528  17.608  0.00  0.00    +0.000 OA
BRANCH  22  25
ATOM     25  C   UNL     1      10.483  14.166  18.081  0.00  0.00    +0.000 A 
ATOM     26  C   UNL     1      10.438  14.939  19.243  0.00  0.00    +0.000 A 
ATOM     27  C   UNL     1      11.164  16.126  19.293  0.00  0.00    +0.000 A 
ATOM     28  C   UNL     1      11.915  16.509  18.190  0.00  0.00    +0.000 A 
ATOM     29  C   UNL     1      11.918  15.681  17.080  0.00  0.00    +0.000 A 
ATOM     30  N   UNL     1      11.227  14.524  17.001  0.00  0.00    +0.000 NA
ENDBRANCH  22  25
ENDBRANCH  19  20
ENDBRANCH  18  19
ENDBRANCH   2  18
TORSDOF 5
ENDMDL
MODEL 4
REMARK VINA RESULT:      -8.5      2.584      4.920
REMARK  Name = 
REMARK  7 active torsions:
REMARK  status: ('A' for Active; 'I' for Inactive)
REMARK    1  A    between atoms: C_1  and  C_2
REMARK    2  A    between atoms: C_2  and  C_3
REMARK    3  A    between atoms: C_5  and  N_6
REMARK    4  A    between atoms: C_7  and  C_9
REMARK    5  A    between atoms: C_9  and  C_10
REMARK    6  A    between atoms: C_10  and  C_11
REMARK    7  A    between atoms: C_13  and  C_14
REMARK                            x       y       z     vdW  Elec       q    Type
REMARK                         _______ _______ _______ _____ _____    ______ ____
ROOT
ATOM      1  N   UNL     1       2.261   6.780  18.988  0.00  0.00    +0.000 N 
ATOM      2  C   UNL     1       1.962   8.112  18.817  0.00  0.00    +0.000 C 
ATOM      3  O   UNL     1       1.960   8.671  17.726  0.00  0.00    +0.000 OA
ATOM      4  H   UNL     1       2.174   6.355  19.900  0.00  0.00    +0.000 HD
ENDROOT
BRANCH   1   9
ATOM      5  C   UNL     1       1.492   2.314  18.814  0.00  0.00    +0.000 C 
ATOM      6  C   UNL     1       2.337   3.595  18.885  0.00  0.00    +0.000 C 
ATOM      7  C   UNL     1       2.359   4.060  20.351  0.00  0.00    +0.000 C 
ATOM      8  C   UNL     1       1.747   4.607  17.896  0.00  0.00    +0.000 C 
ATOM      9  C   UNL     1       2.558   5.903  17.862  0.00  0.00    +0.000 C 
ATOM     10  C   UNL     1       4.033   5.571  17.824  0.00  0.00    +0.000 A 
ATOM     11  C   UNL     1       4.970   6.561  17.479  0.00  0.00    +0.000 A 
ATOM     12  C   UNL     1       6.331   6.254  17.418  0.00  0.00    +0.000 A 
ATOM     13  C   UNL     1       6.755   4.959  17.692  0.00  0.00    +0.000 A 
ATOM     14  F   UNL     1       8.061   4.666  17.624  0.00  0.00    +0.000 F 
ATOM     15  C   UNL     1       5.848   3.969  18.040  0.00  0.00    +0.000 A 
ATOM     16  C   UNL     1       4.490   4.277  18.121  0.00  0.00    +0.000 A 
ATOM     17  O   UNL     1       3.675   3.239  18.494  0.00  0.00    +0.000 OA
ENDBRANCH   1   9
BRANCH   2  18
ATOM     18  C   UNL     1       1.577   8.838  20.087  0.00  0.00    +0.000 C 
BRANCH  18  19
ATOM     19  C   UNL     1       0.641  10.010  19.827  0.00  0.00    +0.000 C 
BRANCH  19  20
ATOM     20  C   UNL     1      -0.024  10.461  21.069  0.00  0.00    +0.000 A 
ATOM     21  N   UNL     1      -0.928  11.395  21.233  0.00  0.00    +0.000 NA
ATOM     22  C   UNL     1      -1.095  11.412  22.609  0.00  0.00    +0.000 A 
ATOM     23  N   UNL     1      -0.350  10.492  23.250  0.00  0.00    +0.000 NA
ATOM     24  O   UNL     1       0.363   9.868  22.231  0.00  0.00    +0.000 OA
BRANCH  22  25
ATOM     25  C   UNL     1      -1.985  12.375  23.264  0.00  0.00    +0.000 A 
ATOM     26  C   UNL     1      -1.544  13.677  23.503  0.00  0.00    +0.000 A 
ATOM     27  C   UNL     1      -2.385  14.564  24.171  0.00  0.00    +0.000 A 
ATOM     28  C   UNL     1      -3.639  14.131  24.580  0.00  0.00    +0.000 A 
ATOM     29  C   UNL     1      -4.008  12.828  24.295  0.00  0.00    +0.000 A 
ATOM     30  N   UNL     1      -3.217  11.945  23.647  0.00  0.00    +0.000 NA
ENDBRANCH  22  25
ENDBRANCH  19  20
ENDBRANCH  18  19
ENDBRANCH   2  18
TORSDOF 5
ENDMDL
MODEL 5
REMARK VINA RESULT:      -8.4      1.850      2.074
REMARK  Name = 
REMARK  7 active torsions:
REMARK  status: ('A' for Active; 'I' for Inactive)
REMARK    1  A    between atoms: C_1  and  C_2
REMARK    2  A    between atoms: C_2  and  C_3
REMARK    3  A    between atoms: C_5  and  N_6
REMARK    4  A    between atoms: C_7  and  C_9
REMARK    5  A    between atoms: C_9  and  C_10
REMARK    6  A    between atoms: C_10  and  C_11
REMARK    7  A    between atoms: C_13  and  C_14
REMARK                            x       y       z     vdW  Elec       q    Type
REMARK                         _______ _______ _______ _____ _____    ______ ____
ROOT
ATOM      1  N   UNL     1       4.372   4.818  17.562  0.00  0.00    +0.000 N 
ATOM      2  C   UNL     1       3.641   4.509  18.686  0.00  0.00    +0.000 C 
ATOM      3  O   UNL     1       4.049   3.774  19.578  0.00  0.00    +0.000 OA
ATOM      4  H   UNL     1       4.017   5.489  16.896  0.00  0.00    +0.000 HD
ENDROOT
BRANCH   1   9
ATOM      5  C   UNL     1       8.194   7.128  18.351  0.00  0.00    +0.000 C 
ATOM      6  C   UNL     1       7.115   6.440  17.501  0.00  0.00    +0.000 C 
ATOM      7  C   UNL     1       5.938   7.420  17.356  0.00  0.00    +0.000 C 
ATOM      8  C   UNL     1       6.766   5.105  18.169  0.00  0.00    +0.000 C 
ATOM      9  C   UNL     1       5.728   4.323  17.361  0.00  0.00    +0.000 C 
ATOM     10  C   UNL     1       6.097   4.368  15.895  0.00  0.00    +0.000 A 
ATOM     11  C   UNL     1       5.491   3.481  14.988  0.00  0.00    +0.000 A 
ATOM     12  C   UNL     1       5.846   3.501  13.637  0.00  0.00    +0.000 A 
ATOM     13  C   UNL     1       6.810   4.400  13.194  0.00  0.00    +0.000 A 
ATOM     14  F   UNL     1       7.154   4.411  11.899  0.00  0.00    +0.000 F 
ATOM     15  C   UNL     1       7.416   5.288  14.071  0.00  0.00    +0.000 A 
ATOM     16  C   UNL     1       7.049   5.283  15.418  0.00  0.00    +0.000 A 
ATOM     17  O   UNL     1       7.687   6.211  16.201  0.00  0.00    +0.000 OA
ENDBRANCH   1   9
BRANCH   2  18
ATOM     18  C   UNL     1       2.297   5.198  18.771  0.00  0.00    +0.000 C 
BRANCH  18  19
ATOM     19  C   UNL     1       2.286   6.331  19.787  0.00  0.00    +0.000 C 
BRANCH  19  20
ATOM     20  C   UNL     1       2.070   7.642  19.135  0.00  0.00    +0.000 A 
ATOM     21  N   UNL     1       1.447   8.701  19.592  0.00  0.00    +0.000 NA
ATOM     22  C   UNL     1       1.499   9.568  18.511  0.00  0.00    +0.000 A 
ATOM     23  N   UNL     1       2.167   9.068  17.455  0.00  0.00    +0.000 NA
ATOM     24  O   UNL     1       2.538   7.791  17.867  0.00  0.00    +0.000 OA
BRANCH  22  25
ATOM     25  C   UNL     1       0.851  10.882  18.547  0.00  0.00    +0.000 A 
ATOM     26  C   UNL     1       1.622  12.031  18.730  0.00  0.00    +0.000 A 
ATOM     27  C   UNL     1       0.985  13.267  18.811  0.00  0.00    +0.000 A 
ATOM     28  C   UNL     1      -0.399  13.324  18.706  0.00  0.00    +0.000 A 
ATOM     29  C   UNL     1      -1.091  12.141  18.512  0.00  0.00    +0.000 A 
ATOM     30  N   UNL     1      -0.503  10.928  18.427  0.00  0.00    +0.000 NA
ENDBRANCH  22  25
ENDBRANCH  19  20
ENDBRANCH  18  19
ENDBRANCH   2  18
TORSDOF 5
ENDMDL
MODEL 6
REMARK VINA RESULT:      -8.4      1.372      1.760
REMARK  Name = 
REMARK  7 active torsions:
REMARK  status: ('A' for Active; 'I' for Inactive)
REMARK    1  A    between atoms: C_1  and  C_2
REMARK    2  A    between atoms: C_2  and  C_3
REMARK    3  A    between atoms: C_5  and  N_6
REMARK    4  A    between atoms: C_7  and  C_9
REMARK    5  A    between atoms: C_9  and  C_10
REMARK    6  A    between atoms: C_10  and  C_11
REMARK    7  A    between atoms: C_13  and  C_14
REMARK                            x       y       z     vdW  Elec       q    Type
REMARK                         _______ _______ _______ _____ _____    ______ ____
ROOT
ATOM      1  N   UNL     1       3.992   5.316  17.351  0.00  0.00    +0.000 N 
ATOM      2  C   UNL     1       2.815   5.045  18.009  0.00  0.00    +0.000 C 
ATOM      3  O   UNL     1       2.551   3.955  18.504  0.00  0.00    +0.000 OA
ATOM      4  H   UNL     1       4.187   6.253  17.029  0.00  0.00    +0.000 HD
ENDROOT
BRANCH   1   9
ATOM      5  C   UNL     1       8.211   5.725  18.964  0.00  0.00    +0.000 C 
ATOM      6  C   UNL     1       7.117   5.645  17.889  0.00  0.00    +0.000 C 
ATOM      7  C   UNL     1       6.468   7.035  17.778  0.00  0.00    +0.000 C 
ATOM      8  C   UNL     1       6.157   4.513  18.273  0.00  0.00    +0.000 C 
ATOM      9  C   UNL     1       5.055   4.327  17.228  0.00  0.00    +0.000 C 
ATOM     10  C   UNL     1       5.665   4.373  15.844  0.00  0.00    +0.000 A 
ATOM     11  C   UNL     1       4.928   3.923  14.734  0.00  0.00    +0.000 A 
ATOM     12  C   UNL     1       5.494   3.940  13.457  0.00  0.00    +0.000 A 
ATOM     13  C   UNL     1       6.797   4.397  13.290  0.00  0.00    +0.000 A 
ATOM     14  F   UNL     1       7.340   4.404  12.065  0.00  0.00    +0.000 F 
ATOM     15  C   UNL     1       7.539   4.851  14.371  0.00  0.00    +0.000 A 
ATOM     16  C   UNL     1       6.969   4.854  15.645  0.00  0.00    +0.000 A 
ATOM     17  O   UNL     1       7.771   5.341  16.644  0.00  0.00    +0.000 OA
ENDBRANCH   1   9
BRANCH   2  18
ATOM     18  C   UNL     1       1.875   6.224  18.128  0.00  0.00    +0.000 C 
BRANCH  18  19
ATOM     19  C   UNL     1       2.595   7.559  17.996  0.00  0.00    +0.000 C 
BRANCH  19  20
ATOM     20  C   UNL     1       1.823   8.657  18.618  0.00  0.00    +0.000 A 
ATOM     21  N   UNL     1       1.325   8.738  19.827  0.00  0.00    +0.000 NA
ATOM     22  C   UNL     1       0.646   9.946  19.790  0.00  0.00    +0.000 A 
ATOM     23  N   UNL     1       0.766  10.593  18.616  0.00  0.00    +0.000 NA
ATOM     24  O   UNL     1       1.539   9.735  17.838  0.00  0.00    +0.000 OA
BRANCH  22  25
ATOM     25  C   UNL     1      -0.137  10.424  20.933  0.00  0.00    +0.000 A 
ATOM     26  C   UNL     1      -0.847  11.622  20.838  0.00  0.00    +0.000 A 
ATOM     27  C   UNL     1      -1.545  12.085  21.949  0.00  0.00    +0.000 A 
ATOM     28  C   UNL     1      -1.521  11.343  23.123  0.00  0.00    +0.000 A 
ATOM     29  C   UNL     1      -0.805  10.158  23.134  0.00  0.00    +0.000 A 
ATOM     30  N   UNL     1      -0.119   9.681  22.073  0.00  0.00    +0.000 NA
ENDBRANCH  22  25
ENDBRANCH  19  20
ENDBRANCH  18  19
ENDBRANCH   2  18
TORSDOF 5
ENDMDL
MODEL 7
REMARK VINA RESULT:      -8.4      5.518      7.909
REMARK  Name = 
REMARK  7 active torsions:
REMARK  status: ('A' for Active; 'I' for Inactive)
REMARK    1  A    between atoms: C_1  and  C_2
REMARK    2  A    between atoms: C_2  and  C_3
REMARK    3  A    between atoms: C_5  and  N_6
REMARK    4  A    between atoms: C_7  and  C_9
REMARK    5  A    between atoms: C_9  and  C_10
REMARK    6  A    between atoms: C_10  and  C_11
REMARK    7  A    between atoms: C_13  and  C_14
REMARK                            x       y       z     vdW  Elec       q    Type
REMARK                         _______ _______ _______ _____ _____    ______ ____
ROOT
ATOM      1  N   UNL     1       6.966   6.771  17.442  0.00  0.00    +0.000 N 
ATOM      2  C   UNL     1       7.894   7.403  18.237  0.00  0.00    +0.000 C 
ATOM      3  O   UNL     1       8.522   6.837  19.125  0.00  0.00    +0.000 OA
ATOM      4  H   UNL     1       6.533   7.269  16.677  0.00  0.00    +0.000 HD
ENDROOT
BRANCH   1   9
ATOM      5  C   UNL     1       6.114   3.924  14.016  0.00  0.00    +0.000 C 
ATOM      6  C   UNL     1       5.793   4.761  15.264  0.00  0.00    +0.000 C 
ATOM      7  C   UNL     1       5.551   6.209  14.806  0.00  0.00    +0.000 C 
ATOM      8  C   UNL     1       6.943   4.583  16.262  0.00  0.00    +0.000 C 
ATOM      9  C   UNL     1       6.686   5.346  17.562  0.00  0.00    +0.000 C 
ATOM     10  C   UNL     1       5.255   5.122  18.000  0.00  0.00    +0.000 A 
ATOM     11  C   UNL     1       4.859   5.452  19.308  0.00  0.00    +0.000 A 
ATOM     12  C   UNL     1       3.545   5.225  19.726  0.00  0.00    +0.000 A 
ATOM     13  C   UNL     1       2.632   4.661  18.842  0.00  0.00    +0.000 A 
ATOM     14  F   UNL     1       1.375   4.437  19.248  0.00  0.00    +0.000 F 
ATOM     15  C   UNL     1       3.002   4.334  17.545  0.00  0.00    +0.000 A 
ATOM     16  C   UNL     1       4.308   4.578  17.119  0.00  0.00    +0.000 A 
ATOM     17  O   UNL     1       4.571   4.241  15.816  0.00  0.00    +0.000 OA
ENDBRANCH   1   9
BRANCH   2  18
ATOM     18  C   UNL     1       8.127   8.858  17.898  0.00  0.00    +0.000 C 
BRANCH  18  19
ATOM     19  C   UNL     1       8.893   9.595  18.988  0.00  0.00    +0.000 C 
BRANCH  19  20
ATOM     20  C   UNL     1       9.406  10.897  18.506  0.00  0.00    +0.000 A 
ATOM     21  N   UNL     1       8.975  12.106  18.772  0.00  0.00    +0.000 NA
ATOM     22  C   UNL     1       9.789  12.895  17.974  0.00  0.00    +0.000 A 
ATOM     23  N   UNL     1      10.708  12.192  17.285  0.00  0.00    +0.000 NA
ATOM     24  O   UNL     1      10.448  10.870  17.633  0.00  0.00    +0.000 OA
BRANCH  22  25
ATOM     25  C   UNL     1       9.615  14.348  17.896  0.00  0.00    +0.000 A 
ATOM     26  C   UNL     1      10.657  15.148  17.426  0.00  0.00    +0.000 A 
ATOM     27  C   UNL     1      10.492  16.531  17.405  0.00  0.00    +0.000 A 
ATOM     28  C   UNL     1       9.295  17.077  17.851  0.00  0.00    +0.000 A 
ATOM     29  C   UNL     1       8.305  16.216  18.290  0.00  0.00    +0.000 A 
ATOM     30  N   UNL     1       8.434  14.872  18.320  0.00  0.00    +0.000 NA
ENDBRANCH  22  25
ENDBRANCH  19  20
ENDBRANCH  18  19
ENDBRANCH   2  18
TORSDOF 5
ENDMDL
MODEL 8
REMARK VINA RESULT:      -8.3      1.051      1.393
REMARK  Name = 
REMARK  7 active torsions:
REMARK  status: ('A' for Active; 'I' for Inactive)
REMARK    1  A    between atoms: C_1  and  C_2
REMARK    2  A    between atoms: C_2  and  C_3
REMARK    3  A    between atoms: C_5  and  N_6
REMARK    4  A    between atoms: C_7  and  C_9
REMARK    5  A    between atoms: C_9  and  C_10
REMARK    6  A    between atoms: C_10  and  C_11
REMARK    7  A    between atoms: C_13  and  C_14
REMARK                            x       y       z     vdW  Elec       q    Type
REMARK                         _______ _______ _______ _____ _____    ______ ____
ROOT
ATOM      1  N   UNL     1       4.628   4.701  17.898  0.00  0.00    +0.000 N 
ATOM      2  C   UNL     1       3.865   3.960  18.771  0.00  0.00    +0.000 C 
ATOM      3  O   UNL     1       4.272   2.953  19.340  0.00  0.00    +0.000 OA
ATOM      4  H   UNL     1       4.266   5.564  17.517  0.00  0.00    +0.000 HD
ENDROOT
BRANCH   1   9
ATOM      5  C   UNL     1       8.169   7.512  18.265  0.00  0.00    +0.000 C 
ATOM      6  C   UNL     1       7.128   6.647  17.538  0.00  0.00    +0.000 C 
ATOM      7  C   UNL     1       5.827   7.462  17.443  0.00  0.00    +0.000 C 
ATOM      8  C   UNL     1       7.003   5.319  18.295  0.00  0.00    +0.000 C 
ATOM      9  C   UNL     1       6.018   4.369  17.613  0.00  0.00    +0.000 C 
ATOM     10  C   UNL     1       6.269   4.375  16.120  0.00  0.00    +0.000 A 
ATOM     11  C   UNL     1       5.716   3.369  15.309  0.00  0.00    +0.000 A 
ATOM     12  C   UNL     1       5.964   3.355  13.934  0.00  0.00    +0.000 A 
ATOM     13  C   UNL     1       6.769   4.340  13.373  0.00  0.00    +0.000 A 
ATOM     14  F   UNL     1       7.012   4.319  12.055  0.00  0.00    +0.000 F 
ATOM     15  C   UNL     1       7.319   5.346  14.155  0.00  0.00    +0.000 A 
ATOM     16  C   UNL     1       7.057   5.373  15.525  0.00  0.00    +0.000 A 
ATOM     17  O   UNL     1       7.626   6.416  16.209  0.00  0.00    +0.000 OA
ENDBRANCH   1   9
BRANCH   2  18
ATOM     18  C   UNL     1       2.481   4.516  19.024  0.00  0.00    +0.000 C 
BRANCH  18  19
ATOM     19  C   UNL     1       2.451   5.490  20.194  0.00  0.00    +0.000 C 
BRANCH  19  20
ATOM     20  C   UNL     1       2.153   6.868  19.745  0.00  0.00    +0.000 A 
ATOM     21  N   UNL     1       1.527   7.829  20.379  0.00  0.00    +0.000 NA
ATOM     22  C   UNL     1       1.484   8.837  19.428  0.00  0.00    +0.000 A 
ATOM     23  N   UNL     1       2.101   8.513  18.276  0.00  0.00    +0.000 NA
ATOM     24  O   UNL     1       2.536   7.207  18.484  0.00  0.00    +0.000 OA
BRANCH  22  25
ATOM     25  C   UNL     1       0.799  10.107  19.683  0.00  0.00    +0.000 A 
ATOM     26  C   UNL     1       0.048  10.707  18.671  0.00  0.00    +0.000 A 
ATOM     27  C   UNL     1      -0.555  11.938  18.916  0.00  0.00    +0.000 A 
ATOM     28  C   UNL     1      -0.396  12.536  20.159  0.00  0.00    +0.000 A 
ATOM     29  C   UNL     1       0.353  11.871  21.114  0.00  0.00    +0.000 A 
ATOM     30  N   UNL     1       0.948  10.676  20.909  0.00  0.00    +0.000 NA
ENDBRANCH  22  25
ENDBRANCH  19  20
ENDBRANCH  18  19
ENDBRANCH   2  18
TORSDOF 5
ENDMDL
MODEL 9
REMARK VINA RESULT:      -8.3      2.388      4.749
REMARK  Name = 
REMARK  7 active torsions:
REMARK  status: ('A' for Active; 'I' for Inactive)
REMARK    1  A    between atoms: C_1  and  C_2
REMARK    2  A    between atoms: C_2  and  C_3
REMARK    3  A    between atoms: C_5  and  N_6
REMARK    4  A    between atoms: C_7  and  C_9
REMARK    5  A    between atoms: C_9  and  C_10
REMARK    6  A    between atoms: C_10  and  C_11
REMARK    7  A    between atoms: C_13  and  C_14
REMARK                            x       y       z     vdW  Elec       q    Type
REMARK                         _______ _______ _______ _____ _____    ______ ____
ROOT
ATOM      1  N   UNL     1       2.289   6.541  19.490  0.00  0.00    +0.000 N 
ATOM      2  C   UNL     1       1.885   7.847  19.641  0.00  0.00    +0.000 C 
ATOM      3  O   UNL     1       1.597   8.581  18.702  0.00  0.00    +0.000 OA
ATOM      4  H   UNL     1       2.441   5.961  20.302  0.00  0.00    +0.000 HD
ENDROOT
BRANCH   1   9
ATOM      5  C   UNL     1       1.446   2.173  18.608  0.00  0.00    +0.000 C 
ATOM      6  C   UNL     1       2.305   3.436  18.768  0.00  0.00    +0.000 C 
ATOM      7  C   UNL     1       2.600   3.614  20.267  0.00  0.00    +0.000 C 
ATOM      8  C   UNL     1       1.558   4.604  18.114  0.00  0.00    +0.000 C 
ATOM      9  C   UNL     1       2.365   5.902  18.182  0.00  0.00    +0.000 C 
ATOM     10  C   UNL     1       3.804   5.616  17.814  0.00  0.00    +0.000 A 
ATOM     11  C   UNL     1       4.674   6.675  17.500  0.00  0.00    +0.000 A 
ATOM     12  C   UNL     1       5.998   6.416  17.136  0.00  0.00    +0.000 A 
ATOM     13  C   UNL     1       6.448   5.102  17.076  0.00  0.00    +0.000 A 
ATOM     14  F   UNL     1       7.716   4.856  16.718  0.00  0.00    +0.000 F 
ATOM     15  C   UNL     1       5.607   4.043  17.387  0.00  0.00    +0.000 A 
ATOM     16  C   UNL     1       4.291   4.300  17.771  0.00  0.00    +0.000 A 
ATOM     17  O   UNL     1       3.545   3.192  18.080  0.00  0.00    +0.000 OA
ENDBRANCH   1   9
BRANCH   2  18
ATOM     18  C   UNL     1       1.766   8.306  21.078  0.00  0.00    +0.000 C 
BRANCH  18  19
ATOM     19  C   UNL     1       0.319   8.505  21.508  0.00  0.00    +0.000 C 
BRANCH  19  20
ATOM     20  C   UNL     1       0.058   9.907  21.904  0.00  0.00    +0.000 A 
ATOM     21  N   UNL     1      -0.895  10.390  22.662  0.00  0.00    +0.000 NA
ATOM     22  C   UNL     1      -0.669  11.755  22.594  0.00  0.00    +0.000 A 
ATOM     23  N   UNL     1       0.408  12.084  21.857  0.00  0.00    +0.000 NA
ATOM     24  O   UNL     1       0.884  10.860  21.395  0.00  0.00    +0.000 OA
BRANCH  22  25
ATOM     25  C   UNL     1      -1.558  12.716  23.253  0.00  0.00    +0.000 A 
ATOM     26  C   UNL     1      -2.929  12.462  23.320  0.00  0.00    +0.000 A 
ATOM     27  C   UNL     1      -3.764  13.409  23.905  0.00  0.00    +0.000 A 
ATOM     28  C   UNL     1      -3.213  14.580  24.410  0.00  0.00    +0.000 A 
ATOM     29  C   UNL     1      -1.843  14.752  24.318  0.00  0.00    +0.000 A 
ATOM     30  N   UNL     1      -1.006  13.852  23.759  0.00  0.00    +0.000 NA
ENDBRANCH  22  25
ENDBRANCH  19  20
ENDBRANCH  18  19
ENDBRANCH   2  18
TORSDOF 5
ENDMDL
