MODEL 1
REMARK VINA RESULT:      -8.5      0.000      0.000
REMARK  Name = 
REMARK  4 active torsions:
REMARK  status: ('A' for Active; 'I' for Inactive)
REMARK    1  A    between atoms: C_2  and  C_15
REMARK    2  A    between atoms: N_3  and  C_4
REMARK    3  A    between atoms: N_19  and  C_20
REMARK    4  A    between atoms: C_20  and  C_21
REMARK                            x       y       z     vdW  Elec       q    Type
REMARK                         _______ _______ _______ _____ _____    ______ ____
ROOT
ATOM      1  O   UNL     1       3.907   2.484  17.748  0.00  0.00    +0.000 OA
ATOM      2  C   UNL     1       4.281   2.956  18.821  0.00  0.00    +0.000 C 
ATOM      3  N   UNL     1       5.343   3.826  18.973  0.00  0.00    +0.000 N 
ATOM      4  H   UNL     1       5.639   4.102  19.903  0.00  0.00    +0.000 HD
ENDROOT
BRANCH   3   5
ATOM      5  C   UNL     1       6.072   4.370  17.930  0.00  0.00    +0.000 A 
ATOM      6  C   UNL     1       6.997   5.428  17.883  0.00  0.00    +0.000 A 
ATOM      7  N   UNL     1       7.480   5.637  16.656  0.00  0.00    +0.000 NA
ATOM      8  N   UNL     1       6.844   4.711  15.880  0.00  0.00    +0.000 N 
ATOM      9  C   UNL     1       7.011   4.638  14.453  0.00  0.00    +0.000 A 
ATOM     10  N   UNL     1       7.849   5.515  13.854  0.00  0.00    +0.000 NA
ATOM     11  C   UNL     1       7.943   5.446  12.514  0.00  0.00    +0.000 A 
ATOM     12  C   UNL     1       7.242   4.545  11.749  0.00  0.00    +0.000 A 
ATOM     13  C   UNL     1       6.423   3.687  12.444  0.00  0.00    +0.000 A 
ATOM     14  N   UNL     1       6.287   3.706  13.784  0.00  0.00    +0.000 NA
ATOM     15  C   UNL     1       6.014   3.906  16.641  0.00  0.00    +0.000 A 
ENDBRANCH   3   5
BRANCH   2  16
ATOM     16  C   UNL     1       3.537   2.600  20.113  0.00  0.00    +0.000 C 
ATOM     17  C   UNL     1       2.115   2.115  19.831  0.00  0.00    +0.000 C 
ATOM     18  C   UNL     1       1.303   3.389  19.923  0.00  0.00    +0.000 C 
ATOM     19  O   UNL     1       0.185   3.551  19.466  0.00  0.00    +0.000 OA
ATOM     20  N   UNL     1       2.083   4.341  20.564  0.00  0.00    +0.000 N 
ATOM     21  C   UNL     1       3.336   3.795  21.027  0.00  0.00    +0.000 C 
BRANCH  20  22
ATOM     22  C   UNL     1       1.605   5.654  20.961  0.00  0.00    +0.000 C 
BRANCH  22  23
ATOM     23  C   UNL     1       1.879   6.724  19.937  0.00  0.00    +0.000 A 
ATOM     24  C   UNL     1       2.567   6.433  18.751  0.00  0.00    +0.000 A 
ATOM     25  C   UNL     1       2.806   7.435  17.808  0.00  0.00    +0.000 A 
ATOM     26  C   UNL     1       2.362   8.736  18.041  0.00  0.00    +0.000 A 
ATOM     27  C   UNL     1       1.680   9.038  19.218  0.00  0.00    +0.000 A 
ATOM     28  C   UNL     1       1.445   8.039  20.162  0.00  0.00    +0.000 A 
ENDBRANCH  22  23
ENDBRANCH  20  22
ENDBRANCH   2  16
TORSDOF 4
ENDMDL
MODEL 2
REMARK VINA RESULT:      -8.0      4.909      6.933
REMARK  Name = 
REMARK  4 active torsions:
REMARK  status: ('A' for Active; 'I' for Inactive)
REMARK    1  A    between atoms: C_2  and  C_15
REMARK    2  A    between atoms: N_3  and  C_4
REMARK    3  A    between atoms: N_19  and  C_20
REMARK    4  A    between atoms: C_20  and  C_21
REMARK                            x       y       z     vdW  Elec       q    Type
REMARK                         _______ _______ _______ _____ _____    ______ ____
ROOT
ATOM      1  O   UNL     1       7.885   6.911  16.325  0.00  0.00    +0.000 OA
ATOM      2  C   UNL     1       7.718   6.698  17.525  0.00  0.00    +0.000 C 
ATOM      3  N   UNL     1       7.929   7.625  18.527  0.00  0.00    +0.000 N 
ATOM      4  H   UNL     1       7.849   7.344  19.498  0.00  0.00    +0.000 HD
ENDROOT
BRANCH   3   5
ATOM      5  C   UNL     1       8.259   8.952  18.317  0.00  0.00    +0.000 A 
ATOM      6  C   UNL     1       7.669   9.952  17.522  0.00  0.00    +0.000 A 
ATOM      7  N   UNL     1       8.312  11.120  17.603  0.00  0.00    +0.000 NA
ATOM      8  N   UNL     1       9.353  10.876  18.450  0.00  0.00    +0.000 N 
ATOM      9  C   UNL     1      10.361  11.857  18.754  0.00  0.00    +0.000 A 
ATOM     10  N   UNL     1      10.264  13.082  18.188  0.00  0.00    +0.000 NA
ATOM     11  C   UNL     1      11.249  13.955  18.460  0.00  0.00    +0.000 A 
ATOM     12  C   UNL     1      12.323  13.663  19.268  0.00  0.00    +0.000 A 
ATOM     13  C   UNL     1      12.333  12.399  19.806  0.00  0.00    +0.000 A 
ATOM     14  N   UNL     1      11.376  11.480  19.573  0.00  0.00    +0.000 NA
ATOM     15  C   UNL     1       9.317   9.577  18.926  0.00  0.00    +0.000 A 
ENDBRANCH   3   5
BRANCH   2  16
ATOM     16  C   UNL     1       7.222   5.327  17.996  0.00  0.00    +0.000 C 
ATOM     17  C   UNL     1       6.996   4.373  16.823  0.00  0.00    +0.000 C 
ATOM     18  C   UNL     1       5.536   4.591  16.491  0.00  0.00    +0.000 C 
ATOM     19  O   UNL     1       4.996   4.292  15.441  0.00  0.00    +0.000 OA
ATOM     20  N   UNL     1       4.951   5.240  17.570  0.00  0.00    +0.000 N 
ATOM     21  C   UNL     1       5.866   5.391  18.675  0.00  0.00    +0.000 C 
BRANCH  20  22
ATOM     22  C   UNL     1       3.528   5.503  17.688  0.00  0.00    +0.000 C 
BRANCH  22  23
ATOM     23  C   UNL     1       2.838   4.618  18.694  0.00  0.00    +0.000 A 
ATOM     24  C   UNL     1       2.589   3.266  18.419  0.00  0.00    +0.000 A 
ATOM     25  C   UNL     1       1.955   2.457  19.365  0.00  0.00    +0.000 A 
ATOM     26  C   UNL     1       1.565   2.990  20.593  0.00  0.00    +0.000 A 
ATOM     27  C   UNL     1       1.804   4.334  20.875  0.00  0.00    +0.000 A 
ATOM     28  C   UNL     1       2.432   5.143  19.930  0.00  0.00    +0.000 A 
ENDBRANCH  22  23
ENDBRANCH  20  22
ENDBRANCH   2  16
TORSDOF 4
ENDMDL
MODEL 3
REMARK VINA RESULT:      -8.0      5.449      7.335
REMARK  Name = 
REMARK  4 active torsions:
REMARK  status: ('A' for Active; 'I' for Inactive)
REMARK    1  A    between atoms: C_2  and  C_15
REMARK    2  A    between atoms: N_3  and  C_4
REMARK    3  A    between atoms: N_19  and  C_20
REMARK    4  A    between atoms: C_20  and  C_21
REMARK                            x       y       z     vdW  Elec       q    Type
REMARK                         _______ _______ _______ _____ _____    ______ ____
ROOT
ATOM      1  O   UNL     1       8.425   6.859  18.971  0.00  0.00    +0.000 OA
ATOM      2  C   UNL     1       7.828   7.365  18.022  0.00  0.00    +0.000 C 
ATOM      3  N   UNL     1       7.854   8.708  17.700  0.00  0.00    +0.000 N 
ATOM      4  H   UNL     1       7.266   9.057  16.951  0.00  0.00    +0.000 HD
ENDROOT
BRANCH   3   5
ATOM      5  C   UNL     1       8.635   9.656  18.335  0.00  0.00    +0.000 A 
ATOM      6  C   UNL     1       8.976   9.839  19.688  0.00  0.00    +0.000 A 
ATOM      7  N   UNL     1       9.766  10.898  19.882  0.00  0.00    +0.000 NA
ATOM      8  N   UNL     1       9.928  11.432  18.636  0.00  0.00    +0.000 N 
ATOM      9  C   UNL     1      10.652  12.653  18.396  0.00  0.00    +0.000 A 
ATOM     10  N   UNL     1      11.211  13.291  19.449  0.00  0.00    +0.000 NA
ATOM     11  C   UNL     1      11.839  14.451  19.191  0.00  0.00    +0.000 A 
ATOM     12  C   UNL     1      11.934  15.001  17.934  0.00  0.00    +0.000 A 
ATOM     13  C   UNL     1      11.345  14.278  16.925  0.00  0.00    +0.000 A 
ATOM     14  N   UNL     1      10.702  13.110  17.120  0.00  0.00    +0.000 NA
ATOM     15  C   UNL     1       9.281  10.671  17.677  0.00  0.00    +0.000 A 
ENDBRANCH   3   5
BRANCH   2  16
ATOM     16  C   UNL     1       6.996   6.483  17.085  0.00  0.00    +0.000 C 
ATOM     17  C   UNL     1       5.559   6.991  16.957  0.00  0.00    +0.000 C 
ATOM     18  C   UNL     1       4.835   6.219  18.039  0.00  0.00    +0.000 C 
ATOM     19  O   UNL     1       3.757   6.518  18.521  0.00  0.00    +0.000 OA
ATOM     20  N   UNL     1       5.646   5.157  18.415  0.00  0.00    +0.000 N 
ATOM     21  C   UNL     1       6.832   5.064  17.599  0.00  0.00    +0.000 C 
BRANCH  20  22
ATOM     22  C   UNL     1       5.242   4.108  19.334  0.00  0.00    +0.000 C 
BRANCH  22  23
ATOM     23  C   UNL     1       3.879   3.541  19.031  0.00  0.00    +0.000 A 
ATOM     24  C   UNL     1       3.620   2.885  17.820  0.00  0.00    +0.000 A 
ATOM     25  C   UNL     1       2.353   2.359  17.558  0.00  0.00    +0.000 A 
ATOM     26  C   UNL     1       1.334   2.483  18.501  0.00  0.00    +0.000 A 
ATOM     27  C   UNL     1       1.579   3.137  19.707  0.00  0.00    +0.000 A 
ATOM     28  C   UNL     1       2.843   3.667  19.968  0.00  0.00    +0.000 A 
ENDBRANCH  22  23
ENDBRANCH  20  22
ENDBRANCH   2  16
TORSDOF 4
ENDMDL
MODEL 4
REMARK VINA RESULT:      -7.9      5.265      7.361
REMARK  Name = 
REMARK  4 active torsions:
REMARK  status: ('A' for Active; 'I' for Inactive)
REMARK    1  A    between atoms: C_2  and  C_15
REMARK    2  A    between atoms: N_3  and  C_4
REMARK    3  A    between atoms: N_19  and  C_20
REMARK    4  A    between atoms: C_20  and  C_21
REMARK                            x       y       z     vdW  Elec       q    Type
REMARK                         _______ _______ _______ _____ _____    ______ ____
ROOT
ATOM      1  O   UNL     1       8.347   6.915  18.880  0.00  0.00    +0.000 OA
ATOM      2  C   UNL     1       7.706   7.315  17.910  0.00  0.00    +0.000 C 
ATOM      3  N   UNL     1       7.629   8.634  17.504  0.00  0.00    +0.000 N 
ATOM      4  H   UNL     1       7.011   8.891  16.743  0.00  0.00    +0.000 HD
ENDROOT
BRANCH   3   5
ATOM      5  C   UNL     1       8.344   9.675  18.069  0.00  0.00    +0.000 A 
ATOM      6  C   UNL     1       9.373   9.696  19.028  0.00  0.00    +0.000 A 
ATOM      7  N   UNL     1       9.795  10.933  19.304  0.00  0.00    +0.000 NA
ATOM      8  N   UNL     1       9.014  11.738  18.526  0.00  0.00    +0.000 N 
ATOM      9  C   UNL     1       9.079  13.175  18.575  0.00  0.00    +0.000 A 
ATOM     10  N   UNL     1       9.966  13.755  19.416  0.00  0.00    +0.000 NA
ATOM     11  C   UNL     1       9.965  15.098  19.467  0.00  0.00    +0.000 A 
ATOM     12  C   UNL     1       9.123  15.886  18.719  0.00  0.00    +0.000 A 
ATOM     13  C   UNL     1       8.263  15.211  17.886  0.00  0.00    +0.000 A 
ATOM     14  N   UNL     1       8.217  13.868  17.789  0.00  0.00    +0.000 NA
ATOM     15  C   UNL     1       8.153  10.992  17.740  0.00  0.00    +0.000 A 
ENDBRANCH   3   5
BRANCH   2  16
ATOM     16  C   UNL     1       6.933   6.317  17.041  0.00  0.00    +0.000 C 
ATOM     17  C   UNL     1       5.509   6.798  16.758  0.00  0.00    +0.000 C 
ATOM     18  C   UNL     1       4.714   6.166  17.879  0.00  0.00    +0.000 C 
ATOM     19  O   UNL     1       3.608   6.518  18.249  0.00  0.00    +0.000 OA
ATOM     20  N   UNL     1       5.496   5.165  18.439  0.00  0.00    +0.000 N 
ATOM     21  C   UNL     1       6.732   4.975  17.719  0.00  0.00    +0.000 C 
BRANCH  20  22
ATOM     22  C   UNL     1       5.030   4.239  19.455  0.00  0.00    +0.000 C 
BRANCH  22  23
ATOM     23  C   UNL     1       3.710   3.596  19.117  0.00  0.00    +0.000 A 
ATOM     24  C   UNL     1       3.566   2.790  17.979  0.00  0.00    +0.000 A 
ATOM     25  C   UNL     1       2.336   2.196  17.685  0.00  0.00    +0.000 A 
ATOM     26  C   UNL     1       1.241   2.401  18.522  0.00  0.00    +0.000 A 
ATOM     27  C   UNL     1       1.371   3.202  19.654  0.00  0.00    +0.000 A 
ATOM     28  C   UNL     1       2.597   3.801  19.947  0.00  0.00    +0.000 A 
ENDBRANCH  22  23
ENDBRANCH  20  22
ENDBRANCH   2  16
TORSDOF 4
ENDMDL
MODEL 5
REMARK VINA RESULT:      -7.8      5.714      7.563
REMARK  Name = 
REMARK  4 active torsions:
REMARK  status: ('A' for Active; 'I' for Inactive)
REMARK    1  A    between atoms: C_2  and  C_15
REMARK    2  A    between atoms: N_3  and  C_4
REMARK    3  A    between atoms: N_19  and  C_20
REMARK    4  A    between atoms: C_20  and  C_21
REMARK                            x       y       z     vdW  Elec       q    Type
REMARK                         _______ _______ _______ _____ _____    ______ ____
ROOT
ATOM      1  O   UNL     1       7.267   8.774  17.337  0.00  0.00    +0.000 OA
ATOM      2  C   UNL     1       7.972   8.034  18.021  0.00  0.00    +0.000 C 
ATOM      3  N   UNL     1       8.934   8.465  18.915  0.00  0.00    +0.000 N 
ATOM      4  H   UNL     1       9.530   7.788  19.378  0.00  0.00    +0.000 HD
ENDROOT
BRANCH   3   5
ATOM      5  C   UNL     1       9.169   9.788  19.243  0.00  0.00    +0.000 A 
ATOM      6  C   UNL     1       8.879  10.535  20.399  0.00  0.00    +0.000 A 
ATOM      7  N   UNL     1       9.281  11.805  20.306  0.00  0.00    +0.000 NA
ATOM      8  N   UNL     1       9.824  11.898  19.058  0.00  0.00    +0.000 N 
ATOM      9  C   UNL     1      10.312  13.135  18.506  0.00  0.00    +0.000 A 
ATOM     10  N   UNL     1      10.244  14.253  19.265  0.00  0.00    +0.000 NA
ATOM     11  C   UNL     1      10.667  15.396  18.698  0.00  0.00    +0.000 A 
ATOM     12  C   UNL     1      11.152  15.474  17.414  0.00  0.00    +0.000 A 
ATOM     13  C   UNL     1      11.193  14.288  16.723  0.00  0.00    +0.000 A 
ATOM     14  N   UNL     1      10.785  13.110  17.235  0.00  0.00    +0.000 NA
ATOM     15  C   UNL     1       9.802  10.675  18.410  0.00  0.00    +0.000 A 
ENDBRANCH   3   5
BRANCH   2  16
ATOM     16  C   UNL     1       7.799   6.514  17.929  0.00  0.00    +0.000 C 
ATOM     17  C   UNL     1       7.164   6.097  16.602  0.00  0.00    +0.000 C 
ATOM     18  C   UNL     1       5.688   6.067  16.933  0.00  0.00    +0.000 C 
ATOM     19  O   UNL     1       4.779   6.099  16.123  0.00  0.00    +0.000 OA
ATOM     20  N   UNL     1       5.566   6.056  18.316  0.00  0.00    +0.000 N 
ATOM     21  C   UNL     1       6.847   5.963  18.973  0.00  0.00    +0.000 C 
BRANCH  20  22
ATOM     22  C   UNL     1       4.308   5.892  19.022  0.00  0.00    +0.000 C 
BRANCH  22  23
ATOM     23  C   UNL     1       3.594   4.610  18.681  0.00  0.00    +0.000 A 
ATOM     24  C   UNL     1       4.222   3.367  18.836  0.00  0.00    +0.000 A 
ATOM     25  C   UNL     1       3.543   2.187  18.522  0.00  0.00    +0.000 A 
ATOM     26  C   UNL     1       2.233   2.238  18.049  0.00  0.00    +0.000 A 
ATOM     27  C   UNL     1       1.599   3.469  17.887  0.00  0.00    +0.000 A 
ATOM     28  C   UNL     1       2.278   4.647  18.196  0.00  0.00    +0.000 A 
ENDBRANCH  22  23
ENDBRANCH  20  22
ENDBRANCH   2  16
TORSDOF 4
ENDMDL
MODEL 6
REMARK VINA RESULT:      -7.8      3.590      7.635
REMARK  Name = 
REMARK  4 active torsions:
REMARK  status: ('A' for Active; 'I' for Inactive)
REMARK    1  A    between atoms: C_2  and  C_15
REMARK    2  A    between atoms: N_3  and  C_4
REMARK    3  A    between atoms: N_19  and  C_20
REMARK    4  A    between atoms: C_20  and  C_21
REMARK                            x       y       z     vdW  Elec       q    Type
REMARK                         _______ _______ _______ _____ _____    ______ ____
ROOT
ATOM      1  O   UNL     1       2.765   6.342  19.905  0.00  0.00    +0.000 OA
ATOM      2  C   UNL     1       1.647   5.993  20.280  0.00  0.00    +0.000 C 
ATOM      3  N   UNL     1       0.754   6.801  20.957  0.00  0.00    +0.000 N 
ATOM      4  H   UNL     1      -0.114   6.411  21.305  0.00  0.00    +0.000 HD
ENDROOT
BRANCH   3   5
ATOM      5  C   UNL     1       0.949   8.146  21.219  0.00  0.00    +0.000 A 
ATOM      6  C   UNL     1       1.336   8.829  22.386  0.00  0.00    +0.000 A 
ATOM      7  N   UNL     1       1.406  10.151  22.210  0.00  0.00    +0.000 NA
ATOM      8  N   UNL     1       1.037  10.339  20.909  0.00  0.00    +0.000 N 
ATOM      9  C   UNL     1       0.894  11.643  20.317  0.00  0.00    +0.000 A 
ATOM     10  N   UNL     1       1.151  12.732  21.079  0.00  0.00    +0.000 NA
ATOM     11  C   UNL     1       0.962  13.932  20.504  0.00  0.00    +0.000 A 
ATOM     12  C   UNL     1       0.528  14.095  19.210  0.00  0.00    +0.000 A 
ATOM     13  C   UNL     1       0.301  12.935  18.510  0.00  0.00    +0.000 A 
ATOM     14  N   UNL     1       0.474  11.703  19.029  0.00  0.00    +0.000 NA
ATOM     15  C   UNL     1       0.794   9.132  20.279  0.00  0.00    +0.000 A 
ENDBRANCH   3   5
BRANCH   2  16
ATOM     16  C   UNL     1       1.150   4.574  19.984  0.00  0.00    +0.000 C 
ATOM     17  C   UNL     1       1.540   3.595  21.092  0.00  0.00    +0.000 C 
ATOM     18  C   UNL     1       2.861   3.045  20.602  0.00  0.00    +0.000 C 
ATOM     19  O   UNL     1       3.693   2.481  21.291  0.00  0.00    +0.000 OA
ATOM     20  N   UNL     1       2.972   3.352  19.253  0.00  0.00    +0.000 N 
ATOM     21  C   UNL     1       1.777   3.976  18.738  0.00  0.00    +0.000 C 
BRANCH  20  22
ATOM     22  C   UNL     1       4.040   2.874  18.393  0.00  0.00    +0.000 C 
BRANCH  22  23
ATOM     23  C   UNL     1       4.832   3.984  17.752  0.00  0.00    +0.000 A 
ATOM     24  C   UNL     1       4.738   4.241  16.378  0.00  0.00    +0.000 A 
ATOM     25  C   UNL     1       5.474   5.279  15.801  0.00  0.00    +0.000 A 
ATOM     26  C   UNL     1       6.309   6.068  16.590  0.00  0.00    +0.000 A 
ATOM     27  C   UNL     1       6.414   5.819  17.957  0.00  0.00    +0.000 A 
ATOM     28  C   UNL     1       5.683   4.780  18.533  0.00  0.00    +0.000 A 
ENDBRANCH  22  23
ENDBRANCH  20  22
ENDBRANCH   2  16
TORSDOF 4
ENDMDL
MODEL 7
REMARK VINA RESULT:      -7.8      5.369      7.750
REMARK  Name = 
REMARK  4 active torsions:
REMARK  status: ('A' for Active; 'I' for Inactive)
REMARK    1  A    between atoms: C_2  and  C_15
REMARK    2  A    between atoms: N_3  and  C_4
REMARK    3  A    between atoms: N_19  and  C_20
REMARK    4  A    between atoms: C_20  and  C_21
REMARK                            x       y       z     vdW  Elec       q    Type
REMARK                         _______ _______ _______ _____ _____    ______ ____
ROOT
ATOM      1  O   UNL     1       7.583   7.516  16.945  0.00  0.00    +0.000 OA
ATOM      2  C   UNL     1       7.854   7.190  18.099  0.00  0.00    +0.000 C 
ATOM      3  N   UNL     1       8.493   8.001  19.018  0.00  0.00    +0.000 N 
ATOM      4  H   UNL     1       8.755   7.626  19.923  0.00  0.00    +0.000 HD
ENDROOT
BRANCH   3   5
ATOM      5  C   UNL     1       8.826   9.326  18.803  0.00  0.00    +0.000 A 
ATOM      6  C   UNL     1       9.109  10.045  17.627  0.00  0.00    +0.000 A 
ATOM      7  N   UNL     1       9.390  11.329  17.863  0.00  0.00    +0.000 NA
ATOM      8  N   UNL     1       9.310  11.449  19.220  0.00  0.00    +0.000 N 
ATOM      9  C   UNL     1       9.626  12.668  19.918  0.00  0.00    +0.000 A 
ATOM     10  N   UNL     1      10.002  13.748  19.196  0.00  0.00    +0.000 NA
ATOM     11  C   UNL     1      10.333  14.853  19.886  0.00  0.00    +0.000 A 
ATOM     12  C   UNL     1      10.306  14.929  21.258  0.00  0.00    +0.000 A 
ATOM     13  C   UNL     1       9.902  13.787  21.907  0.00  0.00    +0.000 A 
ATOM     14  N   UNL     1       9.557  12.650  21.273  0.00  0.00    +0.000 NA
ATOM     15  C   UNL     1       8.931  10.254  19.807  0.00  0.00    +0.000 A 
ENDBRANCH   3   5
BRANCH   2  16
ATOM     16  C   UNL     1       7.461   5.802  18.614  0.00  0.00    +0.000 C 
ATOM     17  C   UNL     1       7.806   4.705  17.607  0.00  0.00    +0.000 C 
ATOM     18  C   UNL     1       6.530   4.575  16.804  0.00  0.00    +0.000 C 
ATOM     19  O   UNL     1       6.434   4.062  15.703  0.00  0.00    +0.000 OA
ATOM     20  N   UNL     1       5.516   5.194  17.521  0.00  0.00    +0.000 N 
ATOM     21  C   UNL     1       5.965   5.648  18.815  0.00  0.00    +0.000 C 
BRANCH  20  22
ATOM     22  C   UNL     1       4.114   5.163  17.144  0.00  0.00    +0.000 C 
BRANCH  22  23
ATOM     23  C   UNL     1       3.321   4.114  17.879  0.00  0.00    +0.000 A 
ATOM     24  C   UNL     1       2.145   4.445  18.568  0.00  0.00    +0.000 A 
ATOM     25  C   UNL     1       1.418   3.459  19.239  0.00  0.00    +0.000 A 
ATOM     26  C   UNL     1       1.857   2.136  19.228  0.00  0.00    +0.000 A 
ATOM     27  C   UNL     1       3.026   1.796  18.550  0.00  0.00    +0.000 A 
ATOM     28  C   UNL     1       3.756   2.780  17.884  0.00  0.00    +0.000 A 
ENDBRANCH  22  23
ENDBRANCH  20  22
ENDBRANCH   2  16
TORSDOF 4
ENDMDL
MODEL 8
REMARK VINA RESULT:      -7.7      5.231      7.270
REMARK  Name = 
REMARK  4 active torsions:
REMARK  status: ('A' for Active; 'I' for Inactive)
REMARK    1  A    between atoms: C_2  and  C_15
REMARK    2  A    between atoms: N_3  and  C_4
REMARK    3  A    between atoms: N_19  and  C_20
REMARK    4  A    between atoms: C_20  and  C_21
REMARK                            x       y       z     vdW  Elec       q    Type
REMARK                         _______ _______ _______ _____ _____    ______ ____
ROOT
ATOM      1  O   UNL     1       6.996   7.554  17.250  0.00  0.00    +0.000 OA
ATOM      2  C   UNL     1       7.722   7.163  18.162  0.00  0.00    +0.000 C 
ATOM      3  N   UNL     1       8.617   7.956  18.854  0.00  0.00    +0.000 N 
ATOM      4  H   UNL     1       9.239   7.537  19.535  0.00  0.00    +0.000 HD
ENDROOT
BRANCH   3   5
ATOM      5  C   UNL     1       8.749   9.323  18.689  0.00  0.00    +0.000 A 
ATOM      6  C   UNL     1       8.701  10.141  17.545  0.00  0.00    +0.000 A 
ATOM      7  N   UNL     1       8.880  11.434  17.827  0.00  0.00    +0.000 NA
ATOM      8  N   UNL     1       9.071  11.462  19.178  0.00  0.00    +0.000 N 
ATOM      9  C   UNL     1       9.387  12.667  19.899  0.00  0.00    +0.000 A 
ATOM     10  N   UNL     1       9.484  13.827  19.210  0.00  0.00    +0.000 NA
ATOM     11  C   UNL     1       9.827  14.922  19.911  0.00  0.00    +0.000 A 
ATOM     12  C   UNL     1      10.076  14.911  21.263  0.00  0.00    +0.000 A 
ATOM     13  C   UNL     1       9.944  13.691  21.881  0.00  0.00    +0.000 A 
ATOM     14  N   UNL     1       9.603  12.559  21.234  0.00  0.00    +0.000 NA
ATOM     15  C   UNL     1       8.956  10.196  19.726  0.00  0.00    +0.000 A 
ENDBRANCH   3   5
BRANCH   2  16
ATOM     16  C   UNL     1       7.656   5.701  18.617  0.00  0.00    +0.000 C 
ATOM     17  C   UNL     1       7.676   4.737  17.430  0.00  0.00    +0.000 C 
ATOM     18  C   UNL     1       6.205   4.530  17.145  0.00  0.00    +0.000 C 
ATOM     19  O   UNL     1       5.739   4.101  16.104  0.00  0.00    +0.000 OA
ATOM     20  N   UNL     1       5.494   4.969  18.253  0.00  0.00    +0.000 N 
ATOM     21  C   UNL     1       6.363   5.363  19.335  0.00  0.00    +0.000 C 
BRANCH  20  22
ATOM     22  C   UNL     1       4.060   4.809  18.416  0.00  0.00    +0.000 C 
BRANCH  22  23
ATOM     23  C   UNL     1       3.331   6.115  18.602  0.00  0.00    +0.000 A 
ATOM     24  C   UNL     1       2.611   6.383  19.774  0.00  0.00    +0.000 A 
ATOM     25  C   UNL     1       1.947   7.602  19.933  0.00  0.00    +0.000 A 
ATOM     26  C   UNL     1       1.995   8.562  18.923  0.00  0.00    +0.000 A 
ATOM     27  C   UNL     1       2.705   8.305  17.752  0.00  0.00    +0.000 A 
ATOM     28  C   UNL     1       3.365   7.087  17.590  0.00  0.00    +0.000 A 
ENDBRANCH  22  23
ENDBRANCH  20  22
ENDBRANCH   2  16
TORSDOF 4
ENDMDL
MODEL 9
REMARK VINA RESULT:      -7.5      2.879      8.115
REMARK  Name = 
REMARK  4 active torsions:
REMARK  status: ('A' for Active; 'I' for Inactive)
REMARK    1  A    between atoms: C_2  and  C_15
REMARK    2  A    between atoms: N_3  and  C_4
REMARK    3  A    between atoms: N_19  and  C_20
REMARK    4  A    between atoms: C_20  and  C_21
REMARK                            x       y       z     vdW  Elec       q    Type
REMARK                         _______ _______ _______ _____ _____    ______ ____
ROOT
ATOM      1  O   UNL     1       1.752   4.823  17.535  0.00  0.00    +0.000 OA
ATOM      2  C   UNL     1       2.908   5.011  17.911  0.00  0.00    +0.000 C 
ATOM      3  N   UNL     1       3.389   6.201  18.423  0.00  0.00    +0.000 N 
ATOM      4  H   UNL     1       4.376   6.297  18.631  0.00  0.00    +0.000 HD
ENDROOT
BRANCH   3   5
ATOM      5  C   UNL     1       2.614   7.318  18.680  0.00  0.00    +0.000 A 
ATOM      6  C   UNL     1       2.264   8.422  17.883  0.00  0.00    +0.000 A 
ATOM      7  N   UNL     1       1.486   9.296  18.526  0.00  0.00    +0.000 NA
ATOM      8  N   UNL     1       1.341   8.766  19.775  0.00  0.00    +0.000 N 
ATOM      9  C   UNL     1       0.634   9.437  20.834  0.00  0.00    +0.000 A 
ATOM     10  N   UNL     1       0.074  10.641  20.576  0.00  0.00    +0.000 NA
ATOM     11  C   UNL     1      -0.537  11.258  21.602  0.00  0.00    +0.000 A 
ATOM     12  C   UNL     1      -0.614  10.730  22.869  0.00  0.00    +0.000 A 
ATOM     13  C   UNL     1      -0.026   9.499  23.035  0.00  0.00    +0.000 A 
ATOM     14  N   UNL     1       0.600   8.831  22.047  0.00  0.00    +0.000 NA
ATOM     15  C   UNL     1       1.986   7.545  19.878  0.00  0.00    +0.000 A 
ENDBRANCH   3   5
BRANCH   2  16
ATOM     16  C   UNL     1       3.927   3.868  17.846  0.00  0.00    +0.000 C 
ATOM     17  C   UNL     1       4.885   3.895  19.038  0.00  0.00    +0.000 C 
ATOM     18  C   UNL     1       6.042   4.719  18.517  0.00  0.00    +0.000 C 
ATOM     19  O   UNL     1       6.884   5.271  19.203  0.00  0.00    +0.000 OA
ATOM     20  N   UNL     1       5.930   4.777  17.134  0.00  0.00    +0.000 N 
ATOM     21  C   UNL     1       4.846   3.962  16.643  0.00  0.00    +0.000 C 
BRANCH  20  22
ATOM     22  C   UNL     1       6.929   5.366  16.260  0.00  0.00    +0.000 C 
BRANCH  22  23
ATOM     23  C   UNL     1       6.829   4.889  14.834  0.00  0.00    +0.000 A 
ATOM     24  C   UNL     1       7.706   5.363  13.849  0.00  0.00    +0.000 A 
ATOM     25  C   UNL     1       7.604   4.905  12.533  0.00  0.00    +0.000 A 
ATOM     26  C   UNL     1       6.628   3.972  12.189  0.00  0.00    +0.000 A 
ATOM     27  C   UNL     1       5.748   3.497  13.160  0.00  0.00    +0.000 A 
ATOM     28  C   UNL     1       5.845   3.956  14.473  0.00  0.00    +0.000 A 
ENDBRANCH  22  23
ENDBRANCH  20  22
ENDBRANCH   2  16
TORSDOF 4
ENDMDL
