MODEL 1
REMARK VINA RESULT:      -8.6      0.000      0.000
REMARK  Name = 
REMARK  3 active torsions:
REMARK  status: ('A' for Active; 'I' for Inactive)
REMARK    1  A    between atoms: C_2  and  C_15
REMARK    2  A    between atoms: N_3  and  C_4
REMARK    3  A    between atoms: C_15  and  C_16
REMARK                            x       y       z     vdW  Elec       q    Type
REMARK                         _______ _______ _______ _____ _____    ______ ____
ROOT
ATOM      1  O   UNL     1       1.585   4.883  17.825  0.00  0.00    +0.000 OA
ATOM      2  C   UNL     1       2.662   5.138  18.350  0.00  0.00    +0.000 C 
ATOM      3  N   UNL     1       3.090   6.344  18.867  0.00  0.00    +0.000 N 
ATOM      4  H   UNL     1       4.061   6.396  19.138  0.00  0.00    +0.000 HD
ENDROOT
BRANCH   3   5
ATOM      5  C   UNL     1       2.334   7.533  18.936  0.00  0.00    +0.000 A 
ATOM      6  C   UNL     1       2.089   8.338  17.821  0.00  0.00    +0.000 A 
ATOM      7  C   UNL     1       1.324   9.503  17.931  0.00  0.00    +0.000 A 
ATOM      8  C   UNL     1       0.793   9.882  19.158  0.00  0.00    +0.000 A 
ATOM      9  N   UNL     1       0.015  11.050  19.221  0.00  0.00    +0.000 NA
ATOM     10  C   UNL     1      -0.469  11.379  20.367  0.00  0.00    +0.000 A 
ATOM     11  N   UNL     1      -0.265  10.671  21.515  0.00  0.00    +0.000 N 
ATOM     12  C   UNL     1       0.487   9.524  21.561  0.00  0.00    +0.000 A 
ATOM     13  O   UNL     1       0.681   8.910  22.603  0.00  0.00    +0.000 OA
ATOM     14  C   UNL     1       1.047   9.079  20.272  0.00  0.00    +0.000 A 
ATOM     15  C   UNL     1       1.807   7.906  20.175  0.00  0.00    +0.000 A 
ATOM     16  H   UNL     1      -0.660  10.985  22.390  0.00  0.00    +0.000 HD
ENDBRANCH   3   5
BRANCH   2  17
ATOM     17  C   UNL     1       3.715   4.056  18.403  0.00  0.00    +0.000 C 
ATOM     18  C   UNL     1       3.213   2.622  18.522  0.00  0.00    +0.000 C 
ATOM     19  C   UNL     1       3.859   3.275  19.703  0.00  0.00    +0.000 C 
BRANCH  17  20
ATOM     20  C   UNL     1       4.925   4.338  17.520  0.00  0.00    +0.000 A 
ATOM     21  C   UNL     1       6.173   4.624  18.109  0.00  0.00    +0.000 A 
ATOM     22  C   UNL     1       7.350   4.654  17.356  0.00  0.00    +0.000 A 
ATOM     23  C   UNL     1       7.298   4.421  15.985  0.00  0.00    +0.000 A 
ATOM     24  C   UNL     1       6.069   4.197  15.373  0.00  0.00    +0.000 A 
ATOM     25 CL   UNL     1       6.000   3.898  13.680  0.00  0.00    +0.000 Cl
ATOM     26  C   UNL     1       4.895   4.162  16.127  0.00  0.00    +0.000 A 
ENDBRANCH  17  20
ENDBRANCH   2  17
TORSDOF 3
ENDMDL
MODEL 2
REMARK VINA RESULT:      -8.3      1.328      1.649
REMARK  Name = 
REMARK  3 active torsions:
REMARK  status: ('A' for Active; 'I' for Inactive)
REMARK    1  A    between atoms: C_2  and  C_15
REMARK    2  A    between atoms: N_3  and  C_4
REMARK    3  A    between atoms: C_15  and  C_16
REMARK                            x       y       z     vdW  Elec       q    Type
REMARK                         _______ _______ _______ _____ _____    ______ ____
ROOT
ATOM      1  O   UNL     1       1.368   4.867  17.699  0.00  0.00    +0.000 OA
ATOM      2  C   UNL     1       2.390   4.971  18.365  0.00  0.00    +0.000 C 
ATOM      3  N   UNL     1       2.893   6.101  18.978  0.00  0.00    +0.000 N 
ATOM      4  H   UNL     1       3.820   6.023  19.372  0.00  0.00    +0.000 HD
ENDROOT
BRANCH   3   5
ATOM      5  C   UNL     1       2.288   7.375  18.995  0.00  0.00    +0.000 A 
ATOM      6  C   UNL     1       2.166   8.168  17.851  0.00  0.00    +0.000 A 
ATOM      7  C   UNL     1       1.547   9.421  17.910  0.00  0.00    +0.000 A 
ATOM      8  C   UNL     1       1.045   9.901  19.113  0.00  0.00    +0.000 A 
ATOM      9  N   UNL     1       0.415  11.157  19.124  0.00  0.00    +0.000 NA
ATOM     10  C   UNL     1      -0.047  11.579  20.249  0.00  0.00    +0.000 A 
ATOM     11  N   UNL     1       0.046  10.887  21.421  0.00  0.00    +0.000 N 
ATOM     12  C   UNL     1       0.650   9.659  21.518  0.00  0.00    +0.000 A 
ATOM     13  O   UNL     1       0.748   9.060  22.582  0.00  0.00    +0.000 OA
ATOM     14  C   UNL     1       1.176   9.108  20.256  0.00  0.00    +0.000 A 
ATOM     15  C   UNL     1       1.788   7.848  20.210  0.00  0.00    +0.000 A 
ATOM     16  H   UNL     1      -0.323  11.275  22.277  0.00  0.00    +0.000 HD
ENDBRANCH   3   5
BRANCH   2  17
ATOM     17  C   UNL     1       3.286   3.762  18.511  0.00  0.00    +0.000 C 
ATOM     18  C   UNL     1       2.621   2.400  18.349  0.00  0.00    +0.000 C 
ATOM     19  C   UNL     1       3.051   2.851  19.709  0.00  0.00    +0.000 C 
BRANCH  17  20
ATOM     20  C   UNL     1       4.686   3.968  17.945  0.00  0.00    +0.000 A 
ATOM     21  C   UNL     1       4.916   3.806  16.564  0.00  0.00    +0.000 A 
ATOM     22  C   UNL     1       6.113   4.210  15.967  0.00  0.00    +0.000 A 
ATOM     23  C   UNL     1       7.121   4.766  16.749  0.00  0.00    +0.000 A 
ATOM     24  C   UNL     1       6.938   4.880  18.124  0.00  0.00    +0.000 A 
ATOM     25 CL   UNL     1       8.177   5.576  19.095  0.00  0.00    +0.000 Cl
ATOM     26  C   UNL     1       5.740   4.481  18.718  0.00  0.00    +0.000 A 
ENDBRANCH  17  20
ENDBRANCH   2  17
TORSDOF 3
ENDMDL
MODEL 3
REMARK VINA RESULT:      -8.3      1.329      1.933
REMARK  Name = 
REMARK  3 active torsions:
REMARK  status: ('A' for Active; 'I' for Inactive)
REMARK    1  A    between atoms: C_2  and  C_15
REMARK    2  A    between atoms: N_3  and  C_4
REMARK    3  A    between atoms: C_15  and  C_16
REMARK                            x       y       z     vdW  Elec       q    Type
REMARK                         _______ _______ _______ _____ _____    ______ ____
ROOT
ATOM      1  O   UNL     1       1.763   4.798  17.829  0.00  0.00    +0.000 OA
ATOM      2  C   UNL     1       2.731   4.856  18.577  0.00  0.00    +0.000 C 
ATOM      3  N   UNL     1       3.029   5.834  19.505  0.00  0.00    +0.000 N 
ATOM      4  H   UNL     1       3.941   5.780  19.936  0.00  0.00    +0.000 HD
ENDROOT
BRANCH   3   5
ATOM      5  C   UNL     1       2.234   6.958  19.812  0.00  0.00    +0.000 A 
ATOM      6  C   UNL     1       1.439   7.030  20.958  0.00  0.00    +0.000 A 
ATOM      7  C   UNL     1       0.675   8.169  21.231  0.00  0.00    +0.000 A 
ATOM      8  C   UNL     1       0.692   9.252  20.361  0.00  0.00    +0.000 A 
ATOM      9  N   UNL     1      -0.076  10.384  20.681  0.00  0.00    +0.000 NA
ATOM     10  C   UNL     1      -0.040  11.376  19.862  0.00  0.00    +0.000 A 
ATOM     11  N   UNL     1       0.686  11.389  18.707  0.00  0.00    +0.000 N 
ATOM     12  C   UNL     1       1.459  10.331  18.300  0.00  0.00    +0.000 A 
ATOM     13  O   UNL     1       2.087  10.346  17.248  0.00  0.00    +0.000 OA
ATOM     14  C   UNL     1       1.482   9.172  19.210  0.00  0.00    +0.000 A 
ATOM     15  C   UNL     1       2.257   8.040  18.928  0.00  0.00    +0.000 A 
ATOM     16  H   UNL     1       0.664  12.192  18.095  0.00  0.00    +0.000 HD
ENDBRANCH   3   5
BRANCH   2  17
ATOM     17  C   UNL     1       3.796   3.790  18.468  0.00  0.00    +0.000 C 
ATOM     18  C   UNL     1       3.315   2.344  18.473  0.00  0.00    +0.000 C 
ATOM     19  C   UNL     1       4.018   2.888  19.675  0.00  0.00    +0.000 C 
BRANCH  17  20
ATOM     20  C   UNL     1       4.953   4.175  17.553  0.00  0.00    +0.000 A 
ATOM     21  C   UNL     1       6.202   4.521  18.108  0.00  0.00    +0.000 A 
ATOM     22  C   UNL     1       7.347   4.649  17.317  0.00  0.00    +0.000 A 
ATOM     23  C   UNL     1       7.259   4.455  15.942  0.00  0.00    +0.000 A 
ATOM     24  C   UNL     1       6.025   4.173  15.365  0.00  0.00    +0.000 A 
ATOM     25 CL   UNL     1       5.914   3.922  13.667  0.00  0.00    +0.000 Cl
ATOM     26  C   UNL     1       4.884   4.040  16.157  0.00  0.00    +0.000 A 
ENDBRANCH  17  20
ENDBRANCH   2  17
TORSDOF 3
ENDMDL
MODEL 4
REMARK VINA RESULT:      -8.0      1.088      1.242
REMARK  Name = 
REMARK  3 active torsions:
REMARK  status: ('A' for Active; 'I' for Inactive)
REMARK    1  A    between atoms: C_2  and  C_15
REMARK    2  A    between atoms: N_3  and  C_4
REMARK    3  A    between atoms: C_15  and  C_16
REMARK                            x       y       z     vdW  Elec       q    Type
REMARK                         _______ _______ _______ _____ _____    ______ ____
ROOT
ATOM      1  O   UNL     1       1.805   5.945  17.933  0.00  0.00    +0.000 OA
ATOM      2  C   UNL     1       2.464   5.890  18.964  0.00  0.00    +0.000 C 
ATOM      3  N   UNL     1       2.522   6.816  19.985  0.00  0.00    +0.000 N 
ATOM      4  H   UNL     1       3.225   6.661  20.693  0.00  0.00    +0.000 HD
ENDROOT
BRANCH   3   5
ATOM      5  C   UNL     1       1.779   8.013  20.064  0.00  0.00    +0.000 A 
ATOM      6  C   UNL     1       1.544   8.830  18.955  0.00  0.00    +0.000 A 
ATOM      7  C   UNL     1       0.792  10.002  19.074  0.00  0.00    +0.000 A 
ATOM      8  C   UNL     1       0.264  10.378  20.304  0.00  0.00    +0.000 A 
ATOM      9  N   UNL     1      -0.501  11.553  20.376  0.00  0.00    +0.000 NA
ATOM     10  C   UNL     1      -0.983  11.878  21.525  0.00  0.00    +0.000 A 
ATOM     11  N   UNL     1      -0.788  11.158  22.667  0.00  0.00    +0.000 N 
ATOM     12  C   UNL     1      -0.048  10.002  22.704  0.00  0.00    +0.000 A 
ATOM     13  O   UNL     1       0.139   9.378  23.741  0.00  0.00    +0.000 OA
ATOM     14  C   UNL     1       0.508   9.562  21.412  0.00  0.00    +0.000 A 
ATOM     15  C   UNL     1       1.255   8.381  21.305  0.00  0.00    +0.000 A 
ATOM     16  H   UNL     1      -1.179  11.469  23.544  0.00  0.00    +0.000 HD
ENDBRANCH   3   5
BRANCH   2  17
ATOM     17  C   UNL     1       3.399   4.719  19.164  0.00  0.00    +0.000 C 
ATOM     18  C   UNL     1       2.752   3.344  19.276  0.00  0.00    +0.000 C 
ATOM     19  C   UNL     1       3.332   3.984  20.496  0.00  0.00    +0.000 C 
BRANCH  17  20
ATOM     20  C   UNL     1       4.714   4.852  18.407  0.00  0.00    +0.000 A 
ATOM     21  C   UNL     1       5.891   5.200  19.100  0.00  0.00    +0.000 A 
ATOM     22  C   UNL     1       7.151   5.103  18.502  0.00  0.00    +0.000 A 
ATOM     23  C   UNL     1       7.257   4.676  17.182  0.00  0.00    +0.000 A 
ATOM     24  C   UNL     1       6.104   4.385  16.460  0.00  0.00    +0.000 A 
ATOM     25 CL   UNL     1       6.229   3.846  14.831  0.00  0.00    +0.000 Cl
ATOM     26  C   UNL     1       4.846   4.477  17.060  0.00  0.00    +0.000 A 
ENDBRANCH  17  20
ENDBRANCH   2  17
TORSDOF 3
ENDMDL
MODEL 5
REMARK VINA RESULT:      -7.9      2.580      3.739
REMARK  Name = 
REMARK  3 active torsions:
REMARK  status: ('A' for Active; 'I' for Inactive)
REMARK    1  A    between atoms: C_2  and  C_15
REMARK    2  A    between atoms: N_3  and  C_4
REMARK    3  A    between atoms: C_15  and  C_16
REMARK                            x       y       z     vdW  Elec       q    Type
REMARK                         _______ _______ _______ _____ _____    ______ ____
ROOT
ATOM      1  O   UNL     1       3.088   7.841  17.431  0.00  0.00    +0.000 OA
ATOM      2  C   UNL     1       2.949   7.120  18.412  0.00  0.00    +0.000 C 
ATOM      3  N   UNL     1       2.215   7.372  19.552  0.00  0.00    +0.000 N 
ATOM      4  H   UNL     1       2.328   6.717  20.313  0.00  0.00    +0.000 HD
ENDROOT
BRANCH   3   5
ATOM      5  C   UNL     1       1.425   8.516  19.796  0.00  0.00    +0.000 A 
ATOM      6  C   UNL     1       0.995   9.367  18.776  0.00  0.00    +0.000 A 
ATOM      7  C   UNL     1       0.202  10.484  19.060  0.00  0.00    +0.000 A 
ATOM      8  C   UNL     1      -0.170  10.767  20.368  0.00  0.00    +0.000 A 
ATOM      9  N   UNL     1      -0.982  11.888  20.608  0.00  0.00    +0.000 NA
ATOM     10  C   UNL     1      -1.319  12.127  21.827  0.00  0.00    +0.000 A 
ATOM     11  N   UNL     1      -0.928  11.368  22.891  0.00  0.00    +0.000 N 
ATOM     12  C   UNL     1      -0.128  10.260  22.764  0.00  0.00    +0.000 A 
ATOM     13  O   UNL     1       0.234   9.600  23.730  0.00  0.00    +0.000 OA
ATOM     14  C   UNL     1       0.269   9.917  21.387  0.00  0.00    +0.000 A 
ATOM     15  C   UNL     1       1.058   8.791  21.115  0.00  0.00    +0.000 A 
ATOM     16  H   UNL     1      -1.212  11.613  23.829  0.00  0.00    +0.000 HD
ENDBRANCH   3   5
BRANCH   2  17
ATOM     17  C   UNL     1       3.706   5.813  18.463  0.00  0.00    +0.000 C 
ATOM     18  C   UNL     1       5.090   5.854  19.101  0.00  0.00    +0.000 C 
ATOM     19  C   UNL     1       4.968   5.695  17.619  0.00  0.00    +0.000 C 
BRANCH  17  20
ATOM     20  C   UNL     1       2.816   4.602  18.717  0.00  0.00    +0.000 A 
ATOM     21  C   UNL     1       2.530   3.709  17.665  0.00  0.00    +0.000 A 
ATOM     22  C   UNL     1       1.924   2.471  17.898  0.00  0.00    +0.000 A 
ATOM     23  C   UNL     1       1.568   2.110  19.193  0.00  0.00    +0.000 A 
ATOM     24  C   UNL     1       1.786   3.002  20.239  0.00  0.00    +0.000 A 
ATOM     25 CL   UNL     1       1.358   2.557  21.845  0.00  0.00    +0.000 Cl
ATOM     26  C   UNL     1       2.397   4.236  20.006  0.00  0.00    +0.000 A 
ENDBRANCH  17  20
ENDBRANCH   2  17
TORSDOF 3
ENDMDL
MODEL 6
REMARK VINA RESULT:      -7.9      1.910      2.595
REMARK  Name = 
REMARK  3 active torsions:
REMARK  status: ('A' for Active; 'I' for Inactive)
REMARK    1  A    between atoms: C_2  and  C_15
REMARK    2  A    between atoms: N_3  and  C_4
REMARK    3  A    between atoms: C_15  and  C_16
REMARK                            x       y       z     vdW  Elec       q    Type
REMARK                         _______ _______ _______ _____ _____    ______ ____
ROOT
ATOM      1  O   UNL     1       1.461   4.738  18.318  0.00  0.00    +0.000 OA
ATOM      2  C   UNL     1       2.386   4.801  19.119  0.00  0.00    +0.000 C 
ATOM      3  N   UNL     1       2.694   5.836  19.978  0.00  0.00    +0.000 N 
ATOM      4  H   UNL     1       3.574   5.764  20.469  0.00  0.00    +0.000 HD
ENDROOT
BRANCH   3   5
ATOM      5  C   UNL     1       1.960   7.029  20.139  0.00  0.00    +0.000 A 
ATOM      6  C   UNL     1       1.119   7.256  21.231  0.00  0.00    +0.000 A 
ATOM      7  C   UNL     1       0.418   8.460  21.358  0.00  0.00    +0.000 A 
ATOM      8  C   UNL     1       0.545   9.453  20.395  0.00  0.00    +0.000 A 
ATOM      9  N   UNL     1      -0.163  10.654  20.571  0.00  0.00    +0.000 NA
ATOM     10  C   UNL     1      -0.025  11.561  19.668  0.00  0.00    +0.000 A 
ATOM     11  N   UNL     1       0.754  11.421  18.556  0.00  0.00    +0.000 N 
ATOM     12  C   UNL     1       1.475  10.286  18.288  0.00  0.00    +0.000 A 
ATOM     13  O   UNL     1       2.152  10.164  17.274  0.00  0.00    +0.000 OA
ATOM     14  C   UNL     1       1.381   9.218  19.300  0.00  0.00    +0.000 A 
ATOM     15  C   UNL     1       2.094   8.020  19.164  0.00  0.00    +0.000 A 
ATOM     16  H   UNL     1       0.812  12.163  17.874  0.00  0.00    +0.000 HD
ENDBRANCH   3   5
BRANCH   2  17
ATOM     17  C   UNL     1       3.382   3.666  19.166  0.00  0.00    +0.000 C 
ATOM     18  C   UNL     1       2.808   2.255  19.125  0.00  0.00    +0.000 C 
ATOM     19  C   UNL     1       3.381   2.778  20.403  0.00  0.00    +0.000 C 
BRANCH  17  20
ATOM     20  C   UNL     1       4.673   3.955  18.409  0.00  0.00    +0.000 A 
ATOM     21  C   UNL     1       4.740   3.722  17.021  0.00  0.00    +0.000 A 
ATOM     22  C   UNL     1       5.808   4.188  16.249  0.00  0.00    +0.000 A 
ATOM     23  C   UNL     1       6.849   4.881  16.859  0.00  0.00    +0.000 A 
ATOM     24  C   UNL     1       6.832   5.070  18.237  0.00  0.00    +0.000 A 
ATOM     25 CL   UNL     1       8.112   5.936  18.996  0.00  0.00    +0.000 Cl
ATOM     26  C   UNL     1       5.763   4.609  19.006  0.00  0.00    +0.000 A 
ENDBRANCH  17  20
ENDBRANCH   2  17
TORSDOF 3
ENDMDL
MODEL 7
REMARK VINA RESULT:      -7.8      3.349      7.824
REMARK  Name = 
REMARK  3 active torsions:
REMARK  status: ('A' for Active; 'I' for Inactive)
REMARK    1  A    between atoms: C_2  and  C_15
REMARK    2  A    between atoms: N_3  and  C_4
REMARK    3  A    between atoms: C_15  and  C_16
REMARK                            x       y       z     vdW  Elec       q    Type
REMARK                         _______ _______ _______ _____ _____    ______ ____
ROOT
ATOM      1  O   UNL     1       1.849   9.589  17.447  0.00  0.00    +0.000 OA
ATOM      2  C   UNL     1       1.462   9.496  18.606  0.00  0.00    +0.000 C 
ATOM      3  N   UNL     1       1.618   8.430  19.469  0.00  0.00    +0.000 N 
ATOM      4  H   UNL     1       1.114   8.483  20.342  0.00  0.00    +0.000 HD
ENDROOT
BRANCH   3   5
ATOM      5  C   UNL     1       2.311   7.232  19.194  0.00  0.00    +0.000 A 
ATOM      6  C   UNL     1       3.160   7.087  18.094  0.00  0.00    +0.000 A 
ATOM      7  C   UNL     1       3.837   5.886  17.865  0.00  0.00    +0.000 A 
ATOM      8  C   UNL     1       3.675   4.810  18.729  0.00  0.00    +0.000 A 
ATOM      9  N   UNL     1       4.388   3.628  18.473  0.00  0.00    +0.000 NA
ATOM     10  C   UNL     1       4.224   2.647  19.290  0.00  0.00    +0.000 A 
ATOM     11  N   UNL     1       3.399   2.686  20.376  0.00  0.00    +0.000 N 
ATOM     12  C   UNL     1       2.653   3.789  20.708  0.00  0.00    +0.000 A 
ATOM     13  O   UNL     1       1.898   3.803  21.672  0.00  0.00    +0.000 OA
ATOM     14  C   UNL     1       2.818   4.957  19.824  0.00  0.00    +0.000 A 
ATOM     15  C   UNL     1       2.138   6.158  20.069  0.00  0.00    +0.000 A 
ATOM     16  H   UNL     1       3.300   1.880  20.976  0.00  0.00    +0.000 HD
ENDBRANCH   3   5
BRANCH   2  17
ATOM     17  C   UNL     1       0.650  10.627  19.191  0.00  0.00    +0.000 C 
ATOM     18  C   UNL     1       1.385  11.942  19.425  0.00  0.00    +0.000 C 
ATOM     19  C   UNL     1       1.004  11.095  20.597  0.00  0.00    +0.000 C 
BRANCH  17  20
ATOM     20  C   UNL     1      -0.788  10.669  18.690  0.00  0.00    +0.000 A 
ATOM     21  C   UNL     1      -1.739  11.472  19.352  0.00  0.00    +0.000 A 
ATOM     22  C   UNL     1      -2.997  11.728  18.798  0.00  0.00    +0.000 A 
ATOM     23  C   UNL     1      -3.339  11.163  17.574  0.00  0.00    +0.000 A 
ATOM     24  C   UNL     1      -2.438  10.319  16.932  0.00  0.00    +0.000 A 
ATOM     25 CL   UNL     1      -2.852   9.625  15.412  0.00  0.00    +0.000 Cl
ATOM     26  C   UNL     1      -1.181  10.068  17.483  0.00  0.00    +0.000 A 
ENDBRANCH  17  20
ENDBRANCH   2  17
TORSDOF 3
ENDMDL
MODEL 8
REMARK VINA RESULT:      -7.7      3.311      7.935
REMARK  Name = 
REMARK  3 active torsions:
REMARK  status: ('A' for Active; 'I' for Inactive)
REMARK    1  A    between atoms: C_2  and  C_15
REMARK    2  A    between atoms: N_3  and  C_4
REMARK    3  A    between atoms: C_15  and  C_16
REMARK                            x       y       z     vdW  Elec       q    Type
REMARK                         _______ _______ _______ _____ _____    ______ ____
ROOT
ATOM      1  O   UNL     1       1.548   8.607  17.562  0.00  0.00    +0.000 OA
ATOM      2  C   UNL     1       1.362   8.998  18.707  0.00  0.00    +0.000 C 
ATOM      3  N   UNL     1       1.532   8.294  19.882  0.00  0.00    +0.000 N 
ATOM      4  H   UNL     1       1.200   8.742  20.725  0.00  0.00    +0.000 HD
ENDROOT
BRANCH   3   5
ATOM      5  C   UNL     1       2.008   6.971  19.997  0.00  0.00    +0.000 A 
ATOM      6  C   UNL     1       1.314   5.977  20.691  0.00  0.00    +0.000 A 
ATOM      7  C   UNL     1       1.816   4.674  20.770  0.00  0.00    +0.000 A 
ATOM      8  C   UNL     1       3.019   4.346  20.158  0.00  0.00    +0.000 A 
ATOM      9  N   UNL     1       3.478   3.021  20.246  0.00  0.00    +0.000 NA
ATOM     10  C   UNL     1       4.593   2.740  19.666  0.00  0.00    +0.000 A 
ATOM     11  N   UNL     1       5.352   3.647  18.986  0.00  0.00    +0.000 N 
ATOM     12  C   UNL     1       4.996   4.966  18.852  0.00  0.00    +0.000 A 
ATOM     13  O   UNL     1       5.699   5.775  18.259  0.00  0.00    +0.000 OA
ATOM     14  C   UNL     1       3.714   5.345  19.471  0.00  0.00    +0.000 A 
ATOM     15  C   UNL     1       3.220   6.653  19.379  0.00  0.00    +0.000 A 
ATOM     16  H   UNL     1       6.226   3.371  18.564  0.00  0.00    +0.000 HD
ENDBRANCH   3   5
BRANCH   2  17
ATOM     17  C   UNL     1       0.816  10.391  18.917  0.00  0.00    +0.000 C 
ATOM     18  C   UNL     1       1.763  11.546  18.612  0.00  0.00    +0.000 C 
ATOM     19  C   UNL     1       1.427  11.227  20.034  0.00  0.00    +0.000 C 
BRANCH  17  20
ATOM     20  C   UNL     1      -0.656  10.532  18.548  0.00  0.00    +0.000 A 
ATOM     21  C   UNL     1      -1.492  11.378  19.305  0.00  0.00    +0.000 A 
ATOM     22  C   UNL     1      -2.775  11.722  18.869  0.00  0.00    +0.000 A 
ATOM     23  C   UNL     1      -3.259  11.203  17.673  0.00  0.00    +0.000 A 
ATOM     24  C   UNL     1      -2.474  10.318  16.941  0.00  0.00    +0.000 A 
ATOM     25 CL   UNL     1      -3.065   9.682  15.455  0.00  0.00    +0.000 Cl
ATOM     26  C   UNL     1      -1.191   9.980  17.373  0.00  0.00    +0.000 A 
ENDBRANCH  17  20
ENDBRANCH   2  17
TORSDOF 3
ENDMDL
MODEL 9
REMARK VINA RESULT:      -7.7      3.587      7.903
REMARK  Name = 
REMARK  3 active torsions:
REMARK  status: ('A' for Active; 'I' for Inactive)
REMARK    1  A    between atoms: C_2  and  C_15
REMARK    2  A    between atoms: N_3  and  C_4
REMARK    3  A    between atoms: C_15  and  C_16
REMARK                            x       y       z     vdW  Elec       q    Type
REMARK                         _______ _______ _______ _____ _____    ______ ____
ROOT
ATOM      1  O   UNL     1       1.838   8.739  19.005  0.00  0.00    +0.000 OA
ATOM      2  C   UNL     1       1.436   8.341  20.091  0.00  0.00    +0.000 C 
ATOM      3  N   UNL     1       1.567   7.079  20.634  0.00  0.00    +0.000 N 
ATOM      4  H   UNL     1       1.052   6.901  21.484  0.00  0.00    +0.000 HD
ENDROOT
BRANCH   3   5
ATOM      5  C   UNL     1       2.247   5.990  20.049  0.00  0.00    +0.000 A 
ATOM      6  C   UNL     1       3.614   6.019  19.764  0.00  0.00    +0.000 A 
ATOM      7  C   UNL     1       4.252   4.912  19.195  0.00  0.00    +0.000 A 
ATOM      8  C   UNL     1       3.533   3.761  18.901  0.00  0.00    +0.000 A 
ATOM      9  N   UNL     1       4.216   2.665  18.347  0.00  0.00    +0.000 NA
ATOM     10  C   UNL     1       3.530   1.608  18.088  0.00  0.00    +0.000 A 
ATOM     11  N   UNL     1       2.188   1.493  18.309  0.00  0.00    +0.000 N 
ATOM     12  C   UNL     1       1.430   2.508  18.836  0.00  0.00    +0.000 A 
ATOM     13  O   UNL     1       0.221   2.401  19.007  0.00  0.00    +0.000 OA
ATOM     14  C   UNL     1       2.164   3.738  19.181  0.00  0.00    +0.000 A 
ATOM     15  C   UNL     1       1.514   4.838  19.756  0.00  0.00    +0.000 A 
ATOM     16  H   UNL     1       1.699   0.642  18.072  0.00  0.00    +0.000 HD
ENDBRANCH   3   5
BRANCH   2  17
ATOM     17  C   UNL     1       0.631   9.284  20.955  0.00  0.00    +0.000 C 
ATOM     18  C   UNL     1       1.054   9.396  22.415  0.00  0.00    +0.000 C 
ATOM     19  C   UNL     1      -0.210   8.674  22.070  0.00  0.00    +0.000 C 
BRANCH  17  20
ATOM     20  C   UNL     1       0.173  10.540  20.226  0.00  0.00    +0.000 A 
ATOM     21  C   UNL     1       0.990  11.689  20.223  0.00  0.00    +0.000 A 
ATOM     22  C   UNL     1       0.729  12.773  19.381  0.00  0.00    +0.000 A 
ATOM     23  C   UNL     1      -0.376  12.740  18.536  0.00  0.00    +0.000 A 
ATOM     24  C   UNL     1      -1.230  11.642  18.565  0.00  0.00    +0.000 A 
ATOM     25 CL   UNL     1      -2.592  11.592  17.515  0.00  0.00    +0.000 Cl
ATOM     26  C   UNL     1      -0.966  10.557  19.403  0.00  0.00    +0.000 A 
ENDBRANCH  17  20
ENDBRANCH   2  17
TORSDOF 3
ENDMDL
