MODEL 1
REMARK VINA RESULT:      -8.9      0.000      0.000
REMARK  Name = 
REMARK  5 active torsions:
REMARK  status: ('A' for Active; 'I' for Inactive)
REMARK    1  A    between atoms: C_2  and  C_20
REMARK    2  A    between atoms: N_3  and  C_4
REMARK    3  A    between atoms: C_4  and  C_5
REMARK    4  A    between atoms: C_9  and  C_10
REMARK    5  A    between atoms: C_10  and  C_11
REMARK                            x       y       z     vdW  Elec       q    Type
REMARK                         _______ _______ _______ _____ _____    ______ ____
ROOT
ATOM      1  C   UNL     1       1.507   2.181  19.112  0.00  0.00    +0.000 C 
ATOM      2  O   UNL     1       0.453   1.974  18.510  0.00  0.00    +0.000 OA
ATOM      3  N   UNL     1       1.597   3.086  20.134  0.00  0.00    +0.000 N 
ATOM      4  C   UNL     1       2.720   3.581  20.904  0.00  0.00    +0.000 C 
ATOM      5  C   UNL     1       2.093   4.979  20.780  0.00  0.00    +0.000 C 
ATOM      6  C   UNL     1       0.795   4.289  20.309  0.00  0.00    +0.000 C 
ENDROOT
BRANCH   1   7
ATOM      7  C   UNL     1       2.787   1.431  18.742  0.00  0.00    +0.000 C 
BRANCH   7  10
ATOM      8  O   UNL     1       2.698   3.391  16.708  0.00  0.00    +0.000 OA
ATOM      9  C   UNL     1       3.748   3.197  17.310  0.00  0.00    +0.000 C 
ATOM     10  N   UNL     1       3.880   2.302  18.347  0.00  0.00    +0.000 N 
ATOM     11  H   UNL     1       4.721   2.275  18.909  0.00  0.00    +0.000 HD
BRANCH   9  12
ATOM     12  C   UNL     1       4.958   3.962  16.925  0.00  0.00    +0.000 A 
ATOM     13  C   UNL     1       5.236   4.118  15.561  0.00  0.00    +0.000 A 
ATOM     14  C   UNL     1       6.390   4.784  15.168  0.00  0.00    +0.000 A 
ATOM     15  F   UNL     1       6.651   4.935  13.864  0.00  0.00    +0.000 F 
ATOM     16  C   UNL     1       7.281   5.288  16.104  0.00  0.00    +0.000 A 
ATOM     17  C   UNL     1       7.006   5.114  17.456  0.00  0.00    +0.000 A 
ATOM     18  F   UNL     1       7.871   5.572  18.366  0.00  0.00    +0.000 F 
ATOM     19  C   UNL     1       5.853   4.456  17.879  0.00  0.00    +0.000 A 
ENDBRANCH   9  12
ENDBRANCH   7  10
ENDBRANCH   1   7
BRANCH   5  20
ATOM     20  C   UNL     1       2.800   5.874  19.762  0.00  0.00    +0.000 C 
BRANCH  20  21
ATOM     21  C   UNL     1       2.128   7.224  19.725  0.00  0.00    +0.000 A 
ATOM     22  C   UNL     1       1.491   7.742  20.865  0.00  0.00    +0.000 A 
ATOM     23  C   UNL     1       0.920   9.016  20.836  0.00  0.00    +0.000 A 
ATOM     24  C   UNL     1       0.982   9.772  19.670  0.00  0.00    +0.000 A 
ATOM     25  F   UNL     1       0.438  10.997  19.651  0.00  0.00    +0.000 F 
ATOM     26  C   UNL     1       1.605   9.267  18.537  0.00  0.00    +0.000 A 
ATOM     27  F   UNL     1       1.668   9.997  17.416  0.00  0.00    +0.000 F 
ATOM     28  C   UNL     1       2.180   7.999  18.557  0.00  0.00    +0.000 A 
ENDBRANCH  20  21
ENDBRANCH   5  20
TORSDOF 5
ENDMDL
MODEL 2
REMARK VINA RESULT:      -8.9      0.540      1.280
REMARK  Name = 
REMARK  5 active torsions:
REMARK  status: ('A' for Active; 'I' for Inactive)
REMARK    1  A    between atoms: C_2  and  C_20
REMARK    2  A    between atoms: N_3  and  C_4
REMARK    3  A    between atoms: C_4  and  C_5
REMARK    4  A    between atoms: C_9  and  C_10
REMARK    5  A    between atoms: C_10  and  C_11
REMARK                            x       y       z     vdW  Elec       q    Type
REMARK                         _______ _______ _______ _____ _____    ______ ____
ROOT
ATOM      1  C   UNL     1       1.430   2.364  19.156  0.00  0.00    +0.000 C 
ATOM      2  O   UNL     1       0.359   2.150  18.587  0.00  0.00    +0.000 OA
ATOM      3  N   UNL     1       1.562   3.320  20.126  0.00  0.00    +0.000 N 
ATOM      4  C   UNL     1       2.711   3.830  20.846  0.00  0.00    +0.000 C 
ATOM      5  C   UNL     1       2.112   5.233  20.659  0.00  0.00    +0.000 C 
ATOM      6  C   UNL     1       0.790   4.548  20.253  0.00  0.00    +0.000 C 
ENDROOT
BRANCH   1   7
ATOM      7  C   UNL     1       2.686   1.567  18.801  0.00  0.00    +0.000 C 
BRANCH   7  10
ATOM      8  O   UNL     1       2.688   3.444  16.689  0.00  0.00    +0.000 OA
ATOM      9  C   UNL     1       3.720   3.250  17.321  0.00  0.00    +0.000 C 
ATOM     10  N   UNL     1       3.807   2.395  18.397  0.00  0.00    +0.000 N 
ATOM     11  H   UNL     1       4.635   2.371  18.977  0.00  0.00    +0.000 HD
BRANCH   9  12
ATOM     12  C   UNL     1       4.956   3.970  16.933  0.00  0.00    +0.000 A 
ATOM     13  C   UNL     1       5.232   4.120  15.569  0.00  0.00    +0.000 A 
ATOM     14  C   UNL     1       6.410   4.744  15.172  0.00  0.00    +0.000 A 
ATOM     15  F   UNL     1       6.669   4.890  13.867  0.00  0.00    +0.000 F 
ATOM     16  C   UNL     1       7.324   5.210  16.104  0.00  0.00    +0.000 A 
ATOM     17  C   UNL     1       7.049   5.041  17.458  0.00  0.00    +0.000 A 
ATOM     18  F   UNL     1       7.934   5.463  18.365  0.00  0.00    +0.000 F 
ATOM     19  C   UNL     1       5.873   4.426  17.884  0.00  0.00    +0.000 A 
ENDBRANCH   9  12
ENDBRANCH   7  10
ENDBRANCH   1   7
BRANCH   5  20
ATOM     20  C   UNL     1       2.816   6.057  19.581  0.00  0.00    +0.000 C 
BRANCH  20  21
ATOM     21  C   UNL     1       2.178   7.420  19.491  0.00  0.00    +0.000 A 
ATOM     22  C   UNL     1       2.143   8.119  18.273  0.00  0.00    +0.000 A 
ATOM     23  C   UNL     1       1.502   9.356  18.187  0.00  0.00    +0.000 A 
ATOM     24  C   UNL     1       0.897   9.898  19.317  0.00  0.00    +0.000 A 
ATOM     25  F   UNL     1       0.277  11.082  19.226  0.00  0.00    +0.000 F 
ATOM     26  C   UNL     1       0.930   9.218  20.526  0.00  0.00    +0.000 A 
ATOM     27  F   UNL     1       0.344   9.737  21.612  0.00  0.00    +0.000 F 
ATOM     28  C   UNL     1       1.565   7.982  20.620  0.00  0.00    +0.000 A 
ENDBRANCH  20  21
ENDBRANCH   5  20
TORSDOF 5
ENDMDL
MODEL 3
REMARK VINA RESULT:      -8.9      0.359      1.606
REMARK  Name = 
REMARK  5 active torsions:
REMARK  status: ('A' for Active; 'I' for Inactive)
REMARK    1  A    between atoms: C_2  and  C_20
REMARK    2  A    between atoms: N_3  and  C_4
REMARK    3  A    between atoms: C_4  and  C_5
REMARK    4  A    between atoms: C_9  and  C_10
REMARK    5  A    between atoms: C_10  and  C_11
REMARK                            x       y       z     vdW  Elec       q    Type
REMARK                         _______ _______ _______ _____ _____    ______ ____
ROOT
ATOM      1  C   UNL     1       1.724   2.183  19.212  0.00  0.00    +0.000 C 
ATOM      2  O   UNL     1       0.704   1.912  18.578  0.00  0.00    +0.000 OA
ATOM      3  N   UNL     1       1.732   3.112  20.216  0.00  0.00    +0.000 N 
ATOM      4  C   UNL     1       2.800   3.678  21.015  0.00  0.00    +0.000 C 
ATOM      5  C   UNL     1       2.108   5.039  20.839  0.00  0.00    +0.000 C 
ATOM      6  C   UNL     1       0.865   4.275  20.338  0.00  0.00    +0.000 C 
ENDROOT
BRANCH   1   7
ATOM      7  C   UNL     1       3.053   1.493  18.902  0.00  0.00    +0.000 C 
BRANCH   7  10
ATOM      8  O   UNL     1       2.946   3.403  16.823  0.00  0.00    +0.000 OA
ATOM      9  C   UNL     1       3.979   3.276  17.470  0.00  0.00    +0.000 C 
ATOM     10  N   UNL     1       4.115   2.411  18.532  0.00  0.00    +0.000 N 
ATOM     11  H   UNL     1       4.933   2.439  19.125  0.00  0.00    +0.000 HD
BRANCH   9  12
ATOM     12  C   UNL     1       5.163   4.095  17.115  0.00  0.00    +0.000 A 
ATOM     13  C   UNL     1       5.805   4.805  18.137  0.00  0.00    +0.000 A 
ATOM     14  C   UNL     1       6.886   5.624  17.829  0.00  0.00    +0.000 A 
ATOM     15  F   UNL     1       7.501   6.298  18.808  0.00  0.00    +0.000 F 
ATOM     16  C   UNL     1       7.334   5.759  16.523  0.00  0.00    +0.000 A 
ATOM     17  C   UNL     1       6.679   5.062  15.512  0.00  0.00    +0.000 A 
ATOM     18  F   UNL     1       7.085   5.206  14.248  0.00  0.00    +0.000 F 
ATOM     19  C   UNL     1       5.597   4.230  15.793  0.00  0.00    +0.000 A 
ENDBRANCH   9  12
ENDBRANCH   7  10
ENDBRANCH   1   7
BRANCH   5  20
ATOM     20  C   UNL     1       2.806   5.950  19.828  0.00  0.00    +0.000 C 
BRANCH  20  21
ATOM     21  C   UNL     1       2.103   7.284  19.782  0.00  0.00    +0.000 A 
ATOM     22  C   UNL     1       1.433   7.784  20.910  0.00  0.00    +0.000 A 
ATOM     23  C   UNL     1       0.833   9.044  20.874  0.00  0.00    +0.000 A 
ATOM     24  C   UNL     1       0.898   9.804  19.711  0.00  0.00    +0.000 A 
ATOM     25  F   UNL     1       0.327  11.017  19.685  0.00  0.00    +0.000 F 
ATOM     26  C   UNL     1       1.554   9.317  18.589  0.00  0.00    +0.000 A 
ATOM     27  F   UNL     1       1.622  10.052  17.471  0.00  0.00    +0.000 F 
ATOM     28  C   UNL     1       2.159   8.063  18.617  0.00  0.00    +0.000 A 
ENDBRANCH  20  21
ENDBRANCH   5  20
TORSDOF 5
ENDMDL
MODEL 4
REMARK VINA RESULT:      -8.8      0.633      2.051
REMARK  Name = 
REMARK  5 active torsions:
REMARK  status: ('A' for Active; 'I' for Inactive)
REMARK    1  A    between atoms: C_2  and  C_20
REMARK    2  A    between atoms: N_3  and  C_4
REMARK    3  A    between atoms: C_4  and  C_5
REMARK    4  A    between atoms: C_9  and  C_10
REMARK    5  A    between atoms: C_10  and  C_11
REMARK                            x       y       z     vdW  Elec       q    Type
REMARK                         _______ _______ _______ _____ _____    ______ ____
ROOT
ATOM      1  C   UNL     1       1.669   2.311  19.103  0.00  0.00    +0.000 C 
ATOM      2  O   UNL     1       0.654   2.048  18.457  0.00  0.00    +0.000 OA
ATOM      3  N   UNL     1       1.681   3.264  20.084  0.00  0.00    +0.000 N 
ATOM      4  C   UNL     1       2.748   3.826  20.887  0.00  0.00    +0.000 C 
ATOM      5  C   UNL     1       2.093   5.198  20.664  0.00  0.00    +0.000 C 
ATOM      6  C   UNL     1       0.840   4.451  20.160  0.00  0.00    +0.000 C 
ENDROOT
BRANCH   1   7
ATOM      7  C   UNL     1       2.986   1.582  18.835  0.00  0.00    +0.000 C 
BRANCH   7  10
ATOM      8  O   UNL     1       2.946   3.501  16.762  0.00  0.00    +0.000 OA
ATOM      9  C   UNL     1       3.973   3.338  17.410  0.00  0.00    +0.000 C 
ATOM     10  N   UNL     1       4.078   2.465  18.469  0.00  0.00    +0.000 N 
ATOM     11  H   UNL     1       4.896   2.464  19.065  0.00  0.00    +0.000 HD
BRANCH   9  12
ATOM     12  C   UNL     1       5.184   4.118  17.060  0.00  0.00    +0.000 A 
ATOM     13  C   UNL     1       5.827   4.833  18.078  0.00  0.00    +0.000 A 
ATOM     14  C   UNL     1       6.934   5.616  17.773  0.00  0.00    +0.000 A 
ATOM     15  F   UNL     1       7.549   6.295  18.749  0.00  0.00    +0.000 F 
ATOM     16  C   UNL     1       7.408   5.713  16.473  0.00  0.00    +0.000 A 
ATOM     17  C   UNL     1       6.752   5.013  15.465  0.00  0.00    +0.000 A 
ATOM     18  F   UNL     1       7.184   5.120  14.205  0.00  0.00    +0.000 F 
ATOM     19  C   UNL     1       5.644   4.215  15.744  0.00  0.00    +0.000 A 
ENDBRANCH   9  12
ENDBRANCH   7  10
ENDBRANCH   1   7
BRANCH   5  20
ATOM     20  C   UNL     1       2.830   6.065  19.644  0.00  0.00    +0.000 C 
BRANCH  20  21
ATOM     21  C   UNL     1       2.171   7.420  19.564  0.00  0.00    +0.000 A 
ATOM     22  C   UNL     1       2.154   8.142  18.359  0.00  0.00    +0.000 A 
ATOM     23  C   UNL     1       1.494   9.370  18.281  0.00  0.00    +0.000 A 
ATOM     24  C   UNL     1       0.854   9.880  19.406  0.00  0.00    +0.000 A 
ATOM     25  F   UNL     1       0.216  11.055  19.323  0.00  0.00    +0.000 F 
ATOM     26  C   UNL     1       0.870   9.177  20.603  0.00  0.00    +0.000 A 
ATOM     27  F   UNL     1       0.249   9.666  21.684  0.00  0.00    +0.000 F 
ATOM     28  C   UNL     1       1.522   7.950  20.689  0.00  0.00    +0.000 A 
ENDBRANCH  20  21
ENDBRANCH   5  20
TORSDOF 5
ENDMDL
MODEL 5
REMARK VINA RESULT:      -8.8      1.174      1.712
REMARK  Name = 
REMARK  5 active torsions:
REMARK  status: ('A' for Active; 'I' for Inactive)
REMARK    1  A    between atoms: C_2  and  C_20
REMARK    2  A    between atoms: N_3  and  C_4
REMARK    3  A    between atoms: C_4  and  C_5
REMARK    4  A    between atoms: C_9  and  C_10
REMARK    5  A    between atoms: C_10  and  C_11
REMARK                            x       y       z     vdW  Elec       q    Type
REMARK                         _______ _______ _______ _____ _____    ______ ____
ROOT
ATOM      1  C   UNL     1       1.765   2.381  19.241  0.00  0.00    +0.000 C 
ATOM      2  O   UNL     1       0.792   2.003  18.589  0.00  0.00    +0.000 OA
ATOM      3  N   UNL     1       1.670   3.363  20.189  0.00  0.00    +0.000 N 
ATOM      4  C   UNL     1       2.664   4.047  20.990  0.00  0.00    +0.000 C 
ATOM      5  C   UNL     1       1.889   5.344  20.709  0.00  0.00    +0.000 C 
ATOM      6  C   UNL     1       0.721   4.467  20.211  0.00  0.00    +0.000 C 
ENDROOT
BRANCH   1   7
ATOM      7  C   UNL     1       3.149   1.770  19.021  0.00  0.00    +0.000 C 
BRANCH   7  10
ATOM      8  O   UNL     1       5.297   3.520  19.574  0.00  0.00    +0.000 OA
ATOM      9  C   UNL     1       4.949   3.344  18.412  0.00  0.00    +0.000 C 
ATOM     10  N   UNL     1       3.949   2.476  18.037  0.00  0.00    +0.000 N 
ATOM     11  H   UNL     1       3.791   2.254  17.063  0.00  0.00    +0.000 HD
BRANCH   9  12
ATOM     12  C   UNL     1       5.633   4.090  17.328  0.00  0.00    +0.000 A 
ATOM     13  C   UNL     1       5.573   3.570  16.029  0.00  0.00    +0.000 A 
ATOM     14  C   UNL     1       6.248   4.217  15.000  0.00  0.00    +0.000 A 
ATOM     15  F   UNL     1       6.185   3.721  13.759  0.00  0.00    +0.000 F 
ATOM     16  C   UNL     1       6.992   5.363  15.239  0.00  0.00    +0.000 A 
ATOM     17  C   UNL     1       7.059   5.862  16.536  0.00  0.00    +0.000 A 
ATOM     18  F   UNL     1       7.794   6.950  16.782  0.00  0.00    +0.000 F 
ATOM     19  C   UNL     1       6.387   5.238  17.585  0.00  0.00    +0.000 A 
ENDBRANCH   9  12
ENDBRANCH   7  10
ENDBRANCH   1   7
BRANCH   5  20
ATOM     20  C   UNL     1       2.562   6.243  19.672  0.00  0.00    +0.000 C 
BRANCH  20  21
ATOM     21  C   UNL     1       1.961   7.625  19.735  0.00  0.00    +0.000 A 
ATOM     22  C   UNL     1       1.910   8.440  18.592  0.00  0.00    +0.000 A 
ATOM     23  C   UNL     1       1.301   9.696  18.648  0.00  0.00    +0.000 A 
ATOM     24  C   UNL     1       0.746  10.139  19.844  0.00  0.00    +0.000 A 
ATOM     25  F   UNL     1       0.157  11.342  19.889  0.00  0.00    +0.000 F 
ATOM     26  C   UNL     1       0.796   9.343  20.980  0.00  0.00    +0.000 A 
ATOM     27  F   UNL     1       0.257   9.768  22.130  0.00  0.00    +0.000 F 
ATOM     28  C   UNL     1       1.397   8.088  20.933  0.00  0.00    +0.000 A 
ENDBRANCH  20  21
ENDBRANCH   5  20
TORSDOF 5
ENDMDL
MODEL 6
REMARK VINA RESULT:      -8.7      1.052      1.093
REMARK  Name = 
REMARK  5 active torsions:
REMARK  status: ('A' for Active; 'I' for Inactive)
REMARK    1  A    between atoms: C_2  and  C_20
REMARK    2  A    between atoms: N_3  and  C_4
REMARK    3  A    between atoms: C_4  and  C_5
REMARK    4  A    between atoms: C_9  and  C_10
REMARK    5  A    between atoms: C_10  and  C_11
REMARK                            x       y       z     vdW  Elec       q    Type
REMARK                         _______ _______ _______ _____ _____    ______ ____
ROOT
ATOM      1  C   UNL     1       1.814   2.346  19.224  0.00  0.00    +0.000 C 
ATOM      2  O   UNL     1       0.857   1.968  18.547  0.00  0.00    +0.000 OA
ATOM      3  N   UNL     1       1.685   3.295  20.201  0.00  0.00    +0.000 N 
ATOM      4  C   UNL     1       2.653   3.975  21.036  0.00  0.00    +0.000 C 
ATOM      5  C   UNL     1       1.854   5.264  20.785  0.00  0.00    +0.000 C 
ATOM      6  C   UNL     1       0.712   4.379  20.243  0.00  0.00    +0.000 C 
ENDROOT
BRANCH   1   7
ATOM      7  C   UNL     1       3.213   1.771  19.004  0.00  0.00    +0.000 C 
BRANCH   7  10
ATOM      8  O   UNL     1       5.297   3.590  19.579  0.00  0.00    +0.000 OA
ATOM      9  C   UNL     1       4.966   3.404  18.413  0.00  0.00    +0.000 C 
ATOM     10  N   UNL     1       3.998   2.504  18.029  0.00  0.00    +0.000 N 
ATOM     11  H   UNL     1       3.856   2.278  17.053  0.00  0.00    +0.000 HD
BRANCH   9  12
ATOM     12  C   UNL     1       5.635   4.173  17.337  0.00  0.00    +0.000 A 
ATOM     13  C   UNL     1       5.525   3.702  16.022  0.00  0.00    +0.000 A 
ATOM     14  C   UNL     1       6.184   4.370  14.997  0.00  0.00    +0.000 A 
ATOM     15  F   UNL     1       6.074   3.920  13.741  0.00  0.00    +0.000 F 
ATOM     16  C   UNL     1       6.961   5.490  15.254  0.00  0.00    +0.000 A 
ATOM     17  C   UNL     1       7.078   5.940  16.565  0.00  0.00    +0.000 A 
ATOM     18  F   UNL     1       7.844   7.003  16.827  0.00  0.00    +0.000 F 
ATOM     19  C   UNL     1       6.423   5.294  17.611  0.00  0.00    +0.000 A 
ENDBRANCH   9  12
ENDBRANCH   7  10
ENDBRANCH   1   7
BRANCH   5  20
ATOM     20  C   UNL     1       2.522   6.208  19.785  0.00  0.00    +0.000 C 
BRANCH  20  21
ATOM     21  C   UNL     1       1.877   7.570  19.869  0.00  0.00    +0.000 A 
ATOM     22  C   UNL     1       1.255   7.999  21.053  0.00  0.00    +0.000 A 
ATOM     23  C   UNL     1       0.710   9.282  21.138  0.00  0.00    +0.000 A 
ATOM     24  C   UNL     1       0.782  10.135  20.042  0.00  0.00    +0.000 A 
ATOM     25  F   UNL     1       0.264  11.368  20.133  0.00  0.00    +0.000 F 
ATOM     26  C   UNL     1       1.391   9.718  18.866  0.00  0.00    +0.000 A 
ATOM     27  F   UNL     1       1.465  10.541  17.812  0.00  0.00    +0.000 F 
ATOM     28  C   UNL     1       1.940   8.442  18.773  0.00  0.00    +0.000 A 
ENDBRANCH  20  21
ENDBRANCH   5  20
TORSDOF 5
ENDMDL
MODEL 7
REMARK VINA RESULT:      -8.6      1.221      2.261
REMARK  Name = 
REMARK  5 active torsions:
REMARK  status: ('A' for Active; 'I' for Inactive)
REMARK    1  A    between atoms: C_2  and  C_20
REMARK    2  A    between atoms: N_3  and  C_4
REMARK    3  A    between atoms: C_4  and  C_5
REMARK    4  A    between atoms: C_9  and  C_10
REMARK    5  A    between atoms: C_10  and  C_11
REMARK                            x       y       z     vdW  Elec       q    Type
REMARK                         _______ _______ _______ _____ _____    ______ ____
ROOT
ATOM      1  C   UNL     1       2.027   2.465  19.339  0.00  0.00    +0.000 C 
ATOM      2  O   UNL     1       1.142   1.997  18.621  0.00  0.00    +0.000 OA
ATOM      3  N   UNL     1       1.786   3.476  20.227  0.00  0.00    +0.000 N 
ATOM      4  C   UNL     1       2.659   4.257  21.079  0.00  0.00    +0.000 C 
ATOM      5  C   UNL     1       1.834   5.488  20.672  0.00  0.00    +0.000 C 
ATOM      6  C   UNL     1       0.773   4.516  20.114  0.00  0.00    +0.000 C 
ENDROOT
BRANCH   1   7
ATOM      7  C   UNL     1       3.460   1.938  19.269  0.00  0.00    +0.000 C 
BRANCH   7  10
ATOM      8  O   UNL     1       5.377   3.974  19.672  0.00  0.00    +0.000 OA
ATOM      9  C   UNL     1       5.143   3.587  18.533  0.00  0.00    +0.000 C 
ATOM     10  N   UNL     1       4.265   2.568  18.238  0.00  0.00    +0.000 N 
ATOM     11  H   UNL     1       4.207   2.184  17.304  0.00  0.00    +0.000 HD
BRANCH   9  12
ATOM     12  C   UNL     1       5.836   4.228  17.390  0.00  0.00    +0.000 A 
ATOM     13  C   UNL     1       6.538   5.416  17.626  0.00  0.00    +0.000 A 
ATOM     14  C   UNL     1       7.155   6.070  16.565  0.00  0.00    +0.000 A 
ATOM     15  F   UNL     1       7.829   7.204  16.794  0.00  0.00    +0.000 F 
ATOM     16  C   UNL     1       7.077   5.573  15.273  0.00  0.00    +0.000 A 
ATOM     17  C   UNL     1       6.363   4.400  15.046  0.00  0.00    +0.000 A 
ATOM     18  F   UNL     1       6.260   3.926  13.801  0.00  0.00    +0.000 F 
ATOM     19  C   UNL     1       5.741   3.720  16.091  0.00  0.00    +0.000 A 
ENDBRANCH   9  12
ENDBRANCH   7  10
ENDBRANCH   1   7
BRANCH   5  20
ATOM     20  C   UNL     1       2.541   6.386  19.656  0.00  0.00    +0.000 C 
BRANCH  20  21
ATOM     21  C   UNL     1       1.929   7.764  19.689  0.00  0.00    +0.000 A 
ATOM     22  C   UNL     1       1.866   8.551  18.527  0.00  0.00    +0.000 A 
ATOM     23  C   UNL     1       1.248   9.802  18.555  0.00  0.00    +0.000 A 
ATOM     24  C   UNL     1       0.695  10.271  19.742  0.00  0.00    +0.000 A 
ATOM     25  F   UNL     1       0.096  11.470  19.760  0.00  0.00    +0.000 F 
ATOM     26  C   UNL     1       0.756   9.503  20.897  0.00  0.00    +0.000 A 
ATOM     27  F   UNL     1       0.220   9.952  22.039  0.00  0.00    +0.000 F 
ATOM     28  C   UNL     1       1.368   8.252  20.878  0.00  0.00    +0.000 A 
ENDBRANCH  20  21
ENDBRANCH   5  20
TORSDOF 5
ENDMDL
MODEL 8
REMARK VINA RESULT:      -8.5      1.586      2.239
REMARK  Name = 
REMARK  5 active torsions:
REMARK  status: ('A' for Active; 'I' for Inactive)
REMARK    1  A    between atoms: C_2  and  C_20
REMARK    2  A    between atoms: N_3  and  C_4
REMARK    3  A    between atoms: C_4  and  C_5
REMARK    4  A    between atoms: C_9  and  C_10
REMARK    5  A    between atoms: C_10  and  C_11
REMARK                            x       y       z     vdW  Elec       q    Type
REMARK                         _______ _______ _______ _____ _____    ______ ____
ROOT
ATOM      1  C   UNL     1       1.986   2.334  19.504  0.00  0.00    +0.000 C 
ATOM      2  O   UNL     1       0.977   1.779  19.070  0.00  0.00    +0.000 OA
ATOM      3  N   UNL     1       1.920   3.407  20.351  0.00  0.00    +0.000 N 
ATOM      4  C   UNL     1       2.935   4.285  20.896  0.00  0.00    +0.000 C 
ATOM      5  C   UNL     1       1.968   5.448  20.625  0.00  0.00    +0.000 C 
ATOM      6  C   UNL     1       0.856   4.398  20.425  0.00  0.00    +0.000 C 
ENDROOT
BRANCH   1   7
ATOM      7  C   UNL     1       3.383   1.853  19.111  0.00  0.00    +0.000 C 
BRANCH   7  10
ATOM      8  O   UNL     1       5.437   3.793  19.059  0.00  0.00    +0.000 OA
ATOM      9  C   UNL     1       4.887   3.472  18.011  0.00  0.00    +0.000 C 
ATOM     10  N   UNL     1       3.912   2.504  17.926  0.00  0.00    +0.000 N 
ATOM     11  H   UNL     1       3.588   2.169  17.028  0.00  0.00    +0.000 HD
BRANCH   9  12
ATOM     12  C   UNL     1       5.280   4.143  16.749  0.00  0.00    +0.000 A 
ATOM     13  C   UNL     1       4.893   5.476  16.561  0.00  0.00    +0.000 A 
ATOM     14  C   UNL     1       5.200   6.117  15.366  0.00  0.00    +0.000 A 
ATOM     15  F   UNL     1       4.834   7.392  15.191  0.00  0.00    +0.000 F 
ATOM     16  C   UNL     1       5.873   5.455  14.350  0.00  0.00    +0.000 A 
ATOM     17  C   UNL     1       6.238   4.126  14.539  0.00  0.00    +0.000 A 
ATOM     18  F   UNL     1       6.864   3.471  13.557  0.00  0.00    +0.000 F 
ATOM     19  C   UNL     1       5.949   3.461  15.729  0.00  0.00    +0.000 A 
ENDBRANCH   9  12
ENDBRANCH   7  10
ENDBRANCH   1   7
BRANCH   5  20
ATOM     20  C   UNL     1       2.349   6.283  19.402  0.00  0.00    +0.000 C 
BRANCH  20  21
ATOM     21  C   UNL     1       1.867   7.700  19.589  0.00  0.00    +0.000 A 
ATOM     22  C   UNL     1       1.840   8.599  18.510  0.00  0.00    +0.000 A 
ATOM     23  C   UNL     1       1.340   9.892  18.680  0.00  0.00    +0.000 A 
ATOM     24  C   UNL     1       0.870  10.289  19.928  0.00  0.00    +0.000 A 
ATOM     25  F   UNL     1       0.384  11.529  20.083  0.00  0.00    +0.000 F 
ATOM     26  C   UNL     1       0.897   9.410  21.002  0.00  0.00    +0.000 A 
ATOM     27  F   UNL     1       0.440   9.791  22.201  0.00  0.00    +0.000 F 
ATOM     28  C   UNL     1       1.390   8.118  20.840  0.00  0.00    +0.000 A 
ENDBRANCH  20  21
ENDBRANCH   5  20
TORSDOF 5
ENDMDL
MODEL 9
REMARK VINA RESULT:      -8.4      4.299      6.074
REMARK  Name = 
REMARK  5 active torsions:
REMARK  status: ('A' for Active; 'I' for Inactive)
REMARK    1  A    between atoms: C_2  and  C_20
REMARK    2  A    between atoms: N_3  and  C_4
REMARK    3  A    between atoms: C_4  and  C_5
REMARK    4  A    between atoms: C_9  and  C_10
REMARK    5  A    between atoms: C_10  and  C_11
REMARK                            x       y       z     vdW  Elec       q    Type
REMARK                         _______ _______ _______ _____ _____    ______ ____
ROOT
ATOM      1  C   UNL     1       7.407   5.095  16.799  0.00  0.00    +0.000 C 
ATOM      2  O   UNL     1       8.063   4.158  17.256  0.00  0.00    +0.000 OA
ATOM      3  N   UNL     1       6.578   5.853  17.580  0.00  0.00    +0.000 N 
ATOM      4  C   UNL     1       5.637   6.909  17.267  0.00  0.00    +0.000 C 
ATOM      5  C   UNL     1       4.680   6.252  18.274  0.00  0.00    +0.000 C 
ATOM      6  C   UNL     1       5.879   5.426  18.784  0.00  0.00    +0.000 C 
ENDROOT
BRANCH   1   7
ATOM      7  C   UNL     1       7.480   5.460  15.316  0.00  0.00    +0.000 C 
BRANCH   7  10
ATOM      8  O   UNL     1       7.837   5.248  12.522  0.00  0.00    +0.000 OA
ATOM      9  C   UNL     1       7.041   4.504  13.084  0.00  0.00    +0.000 C 
ATOM     10  N   UNL     1       6.834   4.496  14.445  0.00  0.00    +0.000 N 
ATOM     11  H   UNL     1       6.278   3.773  14.883  0.00  0.00    +0.000 HD
BRANCH   9  12
ATOM     12  C   UNL     1       6.251   3.542  12.278  0.00  0.00    +0.000 A 
ATOM     13  C   UNL     1       4.942   3.894  11.926  0.00  0.00    +0.000 A 
ATOM     14  C   UNL     1       4.157   2.993  11.217  0.00  0.00    +0.000 A 
ATOM     15  F   UNL     1       2.908   3.333  10.878  0.00  0.00    +0.000 F 
ATOM     16  C   UNL     1       4.643   1.743  10.861  0.00  0.00    +0.000 A 
ATOM     17  C   UNL     1       5.939   1.396  11.230  0.00  0.00    +0.000 A 
ATOM     18  F   UNL     1       6.409   0.186  10.915  0.00  0.00    +0.000 F 
ATOM     19  C   UNL     1       6.751   2.282  11.935  0.00  0.00    +0.000 A 
ENDBRANCH   9  12
ENDBRANCH   7  10
ENDBRANCH   1   7
BRANCH   5  20
ATOM     20  C   UNL     1       3.543   5.472  17.613  0.00  0.00    +0.000 C 
BRANCH  20  21
ATOM     21  C   UNL     1       2.788   4.694  18.662  0.00  0.00    +0.000 A 
ATOM     22  C   UNL     1       2.620   5.211  19.958  0.00  0.00    +0.000 A 
ATOM     23  C   UNL     1       1.872   4.508  20.906  0.00  0.00    +0.000 A 
ATOM     24  C   UNL     1       1.295   3.290  20.562  0.00  0.00    +0.000 A 
ATOM     25  F   UNL     1       0.573   2.625  21.474  0.00  0.00    +0.000 F 
ATOM     26  C   UNL     1       1.460   2.769  19.286  0.00  0.00    +0.000 A 
ATOM     27  F   UNL     1       0.901   1.598  18.954  0.00  0.00    +0.000 F 
ATOM     28  C   UNL     1       2.201   3.464  18.333  0.00  0.00    +0.000 A 
ENDBRANCH  20  21
ENDBRANCH   5  20
TORSDOF 5
ENDMDL
