MODEL 1
REMARK VINA RESULT:      -9.2      0.000      0.000
REMARK  Name = 
REMARK  4 active torsions:
REMARK  status: ('A' for Active; 'I' for Inactive)
REMARK    1  A    between atoms: N_3  and  C_4
REMARK    2  A    between atoms: C_4  and  C_5
REMARK    3  A    between atoms: N_17  and  C_18
REMARK    4  A    between atoms: C_18  and  C_19
REMARK                            x       y       z     vdW  Elec       q    Type
REMARK                         _______ _______ _______ _____ _____    ______ ____
ROOT
ATOM      1  O   UNL     1       7.782   9.706  17.446  0.00  0.00    +0.000 OA
ATOM      2  C   UNL     1       8.231   8.862  18.206  0.00  0.00    +0.000 C 
ATOM      3  N   UNL     1       8.013   7.516  18.067  0.00  0.00    +0.000 N 
ATOM      4  N   UNL     1       8.998   9.159  19.301  0.00  0.00    +0.000 N 
ATOM      5  H   UNL     1       8.090   6.951  18.902  0.00  0.00    +0.000 HD
ATOM      6  H   UNL     1       9.474   8.401  19.768  0.00  0.00    +0.000 HD
ENDROOT
BRANCH   3   7
ATOM      7  C   UNL     1       7.156   6.994  17.018  0.00  0.00    +0.000 C 
BRANCH   7   8
ATOM      8  C   UNL     1       6.201   5.992  17.591  0.00  0.00    +0.000 A 
ATOM      9  C   UNL     1       4.869   6.181  17.608  0.00  0.00    +0.000 A 
ATOM     10  C   UNL     1       3.968   5.174  18.162  0.00  0.00    +0.000 A 
ATOM     11  C   UNL     1       2.579   5.329  18.099  0.00  0.00    +0.000 A 
ATOM     12  C   UNL     1       1.747   4.328  18.602  0.00  0.00    +0.000 A 
ATOM     13  C   UNL     1       2.309   3.192  19.178  0.00  0.00    +0.000 A 
ATOM     14  F   UNL     1       1.503   2.229  19.648  0.00  0.00    +0.000 F 
ATOM     15  C   UNL     1       3.687   3.030  19.266  0.00  0.00    +0.000 A 
ATOM     16  C   UNL     1       4.514   4.023  18.744  0.00  0.00    +0.000 A 
ATOM     17  N   UNL     1       5.906   3.871  18.776  0.00  0.00    +0.000 N 
ATOM     18  C   UNL     1       6.783   4.771  18.224  0.00  0.00    +0.000 A 
ATOM     19  O   UNL     1       7.995   4.577  18.259  0.00  0.00    +0.000 OA
ATOM     20  H   UNL     1       6.322   3.049  19.194  0.00  0.00    +0.000 HD
ENDBRANCH   7   8
ENDBRANCH   3   7
BRANCH   4  21
ATOM     21  C   UNL     1       9.306  10.525  19.685  0.00  0.00    +0.000 C 
BRANCH  21  22
ATOM     22  C   UNL     1      10.625  11.039  19.122  0.00  0.00    +0.000 C 
ATOM     23  C   UNL     1      11.340  12.057  20.031  0.00  0.00    +0.000 C 
ATOM     24  C   UNL     1      11.847  13.092  19.020  0.00  0.00    +0.000 C 
ATOM     25  C   UNL     1      10.717  14.033  18.621  0.00  0.00    +0.000 C 
ATOM     26  C   UNL     1       9.828  13.107  17.789  0.00  0.00    +0.000 C 
ATOM     27  C   UNL     1      10.614  11.793  17.788  0.00  0.00    +0.000 C 
ATOM     28  O   UNL     1      11.979  12.305  17.813  0.00  0.00    +0.000 OA
ENDBRANCH  21  22
ENDBRANCH   4  21
TORSDOF 4
ENDMDL
MODEL 2
REMARK VINA RESULT:      -9.0      1.685      2.372
REMARK  Name = 
REMARK  4 active torsions:
REMARK  status: ('A' for Active; 'I' for Inactive)
REMARK    1  A    between atoms: N_3  and  C_4
REMARK    2  A    between atoms: C_4  and  C_5
REMARK    3  A    between atoms: N_17  and  C_18
REMARK    4  A    between atoms: C_18  and  C_19
REMARK                            x       y       z     vdW  Elec       q    Type
REMARK                         _______ _______ _______ _____ _____    ______ ____
ROOT
ATOM      1  O   UNL     1       8.316   6.915  18.776  0.00  0.00    +0.000 OA
ATOM      2  C   UNL     1       7.865   7.664  17.924  0.00  0.00    +0.000 C 
ATOM      3  N   UNL     1       7.097   7.245  16.869  0.00  0.00    +0.000 N 
ATOM      4  N   UNL     1       8.083   9.016  17.911  0.00  0.00    +0.000 N 
ATOM      5  H   UNL     1       7.087   7.834  16.047  0.00  0.00    +0.000 HD
ATOM      6  H   UNL     1       7.531   9.580  17.281  0.00  0.00    +0.000 HD
ENDROOT
BRANCH   3   7
ATOM      7  C   UNL     1       6.816   5.838  16.650  0.00  0.00    +0.000 C 
BRANCH   7   8
ATOM      8  C   UNL     1       5.585   5.439  17.406  0.00  0.00    +0.000 A 
ATOM      9  C   UNL     1       5.542   4.364  18.213  0.00  0.00    +0.000 A 
ATOM     10  C   UNL     1       4.327   4.015  18.945  0.00  0.00    +0.000 A 
ATOM     11  C   UNL     1       4.306   2.951  19.853  0.00  0.00    +0.000 A 
ATOM     12  C   UNL     1       3.139   2.670  20.565  0.00  0.00    +0.000 A 
ATOM     13  C   UNL     1       2.001   3.442  20.351  0.00  0.00    +0.000 A 
ATOM     14  F   UNL     1       0.888   3.175  21.048  0.00  0.00    +0.000 F 
ATOM     15  C   UNL     1       1.999   4.492  19.439  0.00  0.00    +0.000 A 
ATOM     16  C   UNL     1       3.172   4.781  18.745  0.00  0.00    +0.000 A 
ATOM     17  N   UNL     1       3.216   5.859  17.852  0.00  0.00    +0.000 N 
ATOM     18  C   UNL     1       4.350   6.248  17.182  0.00  0.00    +0.000 A 
ATOM     19  O   UNL     1       4.339   7.217  16.428  0.00  0.00    +0.000 OA
ATOM     20  H   UNL     1       2.393   6.424  17.690  0.00  0.00    +0.000 HD
ENDBRANCH   7   8
ENDBRANCH   3   7
BRANCH   4  21
ATOM     21  C   UNL     1       8.923   9.676  18.894  0.00  0.00    +0.000 C 
BRANCH  21  22
ATOM     22  C   UNL     1       9.266  11.118  18.540  0.00  0.00    +0.000 C 
ATOM     23  C   UNL     1      10.607  11.279  17.798  0.00  0.00    +0.000 C 
ATOM     24  C   UNL     1      11.194  12.530  18.462  0.00  0.00    +0.000 C 
ATOM     25  C   UNL     1      11.820  12.168  19.803  0.00  0.00    +0.000 C 
ATOM     26  C   UNL     1      10.582  11.851  20.642  0.00  0.00    +0.000 C 
ATOM     27  C   UNL     1       9.432  12.136  19.673  0.00  0.00    +0.000 C 
ATOM     28  O   UNL     1      10.008  13.232  18.901  0.00  0.00    +0.000 OA
ENDBRANCH  21  22
ENDBRANCH   4  21
TORSDOF 4
ENDMDL
MODEL 3
REMARK VINA RESULT:      -8.6      1.260      1.545
REMARK  Name = 
REMARK  4 active torsions:
REMARK  status: ('A' for Active; 'I' for Inactive)
REMARK    1  A    between atoms: N_3  and  C_4
REMARK    2  A    between atoms: C_4  and  C_5
REMARK    3  A    between atoms: N_17  and  C_18
REMARK    4  A    between atoms: C_18  and  C_19
REMARK                            x       y       z     vdW  Elec       q    Type
REMARK                         _______ _______ _______ _____ _____    ______ ____
ROOT
ATOM      1  O   UNL     1       6.118   8.016  16.887  0.00  0.00    +0.000 OA
ATOM      2  C   UNL     1       7.231   7.536  17.025  0.00  0.00    +0.000 C 
ATOM      3  N   UNL     1       7.586   6.289  16.578  0.00  0.00    +0.000 N 
ATOM      4  N   UNL     1       8.262   8.179  17.657  0.00  0.00    +0.000 N 
ATOM      5  H   UNL     1       8.363   5.840  17.043  0.00  0.00    +0.000 HD
ATOM      6  H   UNL     1       9.190   7.791  17.569  0.00  0.00    +0.000 HD
ENDROOT
BRANCH   3   7
ATOM      7  C   UNL     1       6.617   5.408  15.953  0.00  0.00    +0.000 C 
BRANCH   7   8
ATOM      8  C   UNL     1       5.705   4.832  16.994  0.00  0.00    +0.000 A 
ATOM      9  C   UNL     1       4.365   4.841  16.875  0.00  0.00    +0.000 A 
ATOM     10  C   UNL     1       3.509   4.257  17.904  0.00  0.00    +0.000 A 
ATOM     11  C   UNL     1       2.122   4.185  17.740  0.00  0.00    +0.000 A 
ATOM     12  C   UNL     1       1.338   3.584  18.726  0.00  0.00    +0.000 A 
ATOM     13  C   UNL     1       1.944   3.077  19.872  0.00  0.00    +0.000 A 
ATOM     14  F   UNL     1       1.186   2.491  20.808  0.00  0.00    +0.000 F 
ATOM     15  C   UNL     1       3.320   3.157  20.059  0.00  0.00    +0.000 A 
ATOM     16  C   UNL     1       4.100   3.740  19.063  0.00  0.00    +0.000 A 
ATOM     17  N   UNL     1       5.493   3.796  19.201  0.00  0.00    +0.000 N 
ATOM     18  C   UNL     1       6.335   4.293  18.236  0.00  0.00    +0.000 A 
ATOM     19  O   UNL     1       7.552   4.297  18.398  0.00  0.00    +0.000 OA
ATOM     20  H   UNL     1       5.941   3.432  20.031  0.00  0.00    +0.000 HD
ENDBRANCH   7   8
ENDBRANCH   3   7
BRANCH   4  21
ATOM     21  C   UNL     1       8.102   9.486  18.270  0.00  0.00    +0.000 C 
BRANCH  21  22
ATOM     22  C   UNL     1       9.410  10.105  18.746  0.00  0.00    +0.000 C 
ATOM     23  C   UNL     1       9.332  10.731  20.152  0.00  0.00    +0.000 C 
ATOM     24  C   UNL     1      10.137  12.024  19.974  0.00  0.00    +0.000 C 
ATOM     25  C   UNL     1       9.279  13.088  19.302  0.00  0.00    +0.000 C 
ATOM     26  C   UNL     1       9.158  12.531  17.883  0.00  0.00    +0.000 C 
ATOM     27  C   UNL     1      10.013  11.262  17.942  0.00  0.00    +0.000 C 
ATOM     28  O   UNL     1      11.036  11.682  18.894  0.00  0.00    +0.000 OA
ENDBRANCH  21  22
ENDBRANCH   4  21
TORSDOF 4
ENDMDL
MODEL 4
REMARK VINA RESULT:      -8.5      1.823      2.582
REMARK  Name = 
REMARK  4 active torsions:
REMARK  status: ('A' for Active; 'I' for Inactive)
REMARK    1  A    between atoms: N_3  and  C_4
REMARK    2  A    between atoms: C_4  and  C_5
REMARK    3  A    between atoms: N_17  and  C_18
REMARK    4  A    between atoms: C_18  and  C_19
REMARK                            x       y       z     vdW  Elec       q    Type
REMARK                         _______ _______ _______ _____ _____    ______ ____
ROOT
ATOM      1  O   UNL     1       8.077   6.737  18.370  0.00  0.00    +0.000 OA
ATOM      2  C   UNL     1       7.540   7.654  17.770  0.00  0.00    +0.000 C 
ATOM      3  N   UNL     1       6.512   7.487  16.879  0.00  0.00    +0.000 N 
ATOM      4  N   UNL     1       7.910   8.966  17.904  0.00  0.00    +0.000 N 
ATOM      5  H   UNL     1       6.390   8.207  16.180  0.00  0.00    +0.000 HD
ATOM      6  H   UNL     1       7.303   9.673  17.515  0.00  0.00    +0.000 HD
ENDROOT
BRANCH   3   7
ATOM      7  C   UNL     1       6.023   6.166  16.530  0.00  0.00    +0.000 C 
BRANCH   7   8
ATOM      8  C   UNL     1       5.026   5.704  17.549  0.00  0.00    +0.000 A 
ATOM      9  C   UNL     1       5.089   4.494  18.135  0.00  0.00    +0.000 A 
ATOM     10  C   UNL     1       4.107   4.085  19.135  0.00  0.00    +0.000 A 
ATOM     11  C   UNL     1       4.222   2.865  19.810  0.00  0.00    +0.000 A 
ATOM     12  C   UNL     1       3.288   2.524  20.788  0.00  0.00    +0.000 A 
ATOM     13  C   UNL     1       2.238   3.394  21.070  0.00  0.00    +0.000 A 
ATOM     14  F   UNL     1       1.352   3.064  22.020  0.00  0.00    +0.000 F 
ATOM     15  C   UNL     1       2.098   4.601  20.396  0.00  0.00    +0.000 A 
ATOM     16  C   UNL     1       3.045   4.948  19.434  0.00  0.00    +0.000 A 
ATOM     17  N   UNL     1       2.957   6.177  18.767  0.00  0.00    +0.000 N 
ATOM     18  C   UNL     1       3.886   6.618  17.858  0.00  0.00    +0.000 A 
ATOM     19  O   UNL     1       3.774   7.716  17.320  0.00  0.00    +0.000 OA
ATOM     20  H   UNL     1       2.197   6.814  18.966  0.00  0.00    +0.000 HD
ENDBRANCH   7   8
ENDBRANCH   3   7
BRANCH   4  21
ATOM     21  C   UNL     1       9.021   9.377  18.744  0.00  0.00    +0.000 C 
BRANCH  21  22
ATOM     22  C   UNL     1       9.033  10.868  19.058  0.00  0.00    +0.000 C 
ATOM     23  C   UNL     1       8.640  11.763  17.867  0.00  0.00    +0.000 C 
ATOM     24  C   UNL     1       9.644  12.916  17.984  0.00  0.00    +0.000 C 
ATOM     25  C   UNL     1      10.990  12.501  17.407  0.00  0.00    +0.000 C 
ATOM     26  C   UNL     1      11.469  11.487  18.447  0.00  0.00    +0.000 C 
ATOM     27  C   UNL     1      10.351  11.519  19.492  0.00  0.00    +0.000 C 
ATOM     28  O   UNL     1       9.948  12.918  19.399  0.00  0.00    +0.000 OA
ENDBRANCH  21  22
ENDBRANCH   4  21
TORSDOF 4
ENDMDL
MODEL 5
REMARK VINA RESULT:      -8.5      1.471      1.999
REMARK  Name = 
REMARK  4 active torsions:
REMARK  status: ('A' for Active; 'I' for Inactive)
REMARK    1  A    between atoms: N_3  and  C_4
REMARK    2  A    between atoms: C_4  and  C_5
REMARK    3  A    between atoms: N_17  and  C_18
REMARK    4  A    between atoms: C_18  and  C_19
REMARK                            x       y       z     vdW  Elec       q    Type
REMARK                         _______ _______ _______ _____ _____    ______ ____
ROOT
ATOM      1  O   UNL     1       8.086   7.002  16.824  0.00  0.00    +0.000 OA
ATOM      2  C   UNL     1       7.235   7.736  17.299  0.00  0.00    +0.000 C 
ATOM      3  N   UNL     1       5.897   7.442  17.319  0.00  0.00    +0.000 N 
ATOM      4  N   UNL     1       7.513   8.955  17.860  0.00  0.00    +0.000 N 
ATOM      5  H   UNL     1       5.257   8.223  17.376  0.00  0.00    +0.000 HD
ATOM      6  H   UNL     1       6.784   9.413  18.386  0.00  0.00    +0.000 HD
ENDROOT
BRANCH   3   7
ATOM      7  C   UNL     1       5.380   6.236  16.700  0.00  0.00    +0.000 C 
BRANCH   7   8
ATOM      8  C   UNL     1       4.772   5.347  17.743  0.00  0.00    +0.000 A 
ATOM      9  C   UNL     1       3.489   5.451  18.131  0.00  0.00    +0.000 A 
ATOM     10  C   UNL     1       2.928   4.557  19.141  0.00  0.00    +0.000 A 
ATOM     11  C   UNL     1       1.572   4.604  19.480  0.00  0.00    +0.000 A 
ATOM     12  C   UNL     1       1.061   3.708  20.420  0.00  0.00    +0.000 A 
ATOM     13  C   UNL     1       1.912   2.786  21.024  0.00  0.00    +0.000 A 
ATOM     14  F   UNL     1       1.412   1.921  21.917  0.00  0.00    +0.000 F 
ATOM     15  C   UNL     1       3.266   2.738  20.713  0.00  0.00    +0.000 A 
ATOM     16  C   UNL     1       3.767   3.621  19.759  0.00  0.00    +0.000 A 
ATOM     17  N   UNL     1       5.118   3.569  19.390  0.00  0.00    +0.000 N 
ATOM     18  C   UNL     1       5.671   4.359  18.412  0.00  0.00    +0.000 A 
ATOM     19  O   UNL     1       6.856   4.256  18.110  0.00  0.00    +0.000 OA
ATOM     20  H   UNL     1       5.743   2.904  19.825  0.00  0.00    +0.000 HD
ENDBRANCH   7   8
ENDBRANCH   3   7
BRANCH   4  21
ATOM     21  C   UNL     1       8.856   9.506  17.892  0.00  0.00    +0.000 C 
BRANCH  21  22
ATOM     22  C   UNL     1       8.950  10.852  18.601  0.00  0.00    +0.000 C 
ATOM     23  C   UNL     1       8.533  12.051  17.728  0.00  0.00    +0.000 C 
ATOM     24  C   UNL     1       9.590  13.099  18.094  0.00  0.00    +0.000 C 
ATOM     25  C   UNL     1      10.885  12.824  17.340  0.00  0.00    +0.000 C 
ATOM     26  C   UNL     1      11.374  11.550  18.029  0.00  0.00    +0.000 C 
ATOM     27  C   UNL     1      10.317  11.322  19.112  0.00  0.00    +0.000 C 
ATOM     28  O   UNL     1       9.970  12.701  19.432  0.00  0.00    +0.000 OA
ENDBRANCH  21  22
ENDBRANCH   4  21
TORSDOF 4
ENDMDL
MODEL 6
REMARK VINA RESULT:      -8.4      1.732      1.872
REMARK  Name = 
REMARK  4 active torsions:
REMARK  status: ('A' for Active; 'I' for Inactive)
REMARK    1  A    between atoms: N_3  and  C_4
REMARK    2  A    between atoms: C_4  and  C_5
REMARK    3  A    between atoms: N_17  and  C_18
REMARK    4  A    between atoms: C_18  and  C_19
REMARK                            x       y       z     vdW  Elec       q    Type
REMARK                         _______ _______ _______ _____ _____    ______ ____
ROOT
ATOM      1  O   UNL     1       8.538   7.254  18.666  0.00  0.00    +0.000 OA
ATOM      2  C   UNL     1       7.901   7.883  17.836  0.00  0.00    +0.000 C 
ATOM      3  N   UNL     1       7.146   7.301  16.851  0.00  0.00    +0.000 N 
ATOM      4  N   UNL     1       7.874   9.251  17.778  0.00  0.00    +0.000 N 
ATOM      5  H   UNL     1       6.974   7.851  16.021  0.00  0.00    +0.000 HD
ATOM      6  H   UNL     1       7.187   9.688  17.181  0.00  0.00    +0.000 HD
ENDROOT
BRANCH   3   7
ATOM      7  C   UNL     1       7.106   5.860  16.684  0.00  0.00    +0.000 C 
BRANCH   7   8
ATOM      8  C   UNL     1       5.814   5.320  17.220  0.00  0.00    +0.000 A 
ATOM      9  C   UNL     1       5.185   5.855  18.281  0.00  0.00    +0.000 A 
ATOM     10  C   UNL     1       3.920   5.309  18.766  0.00  0.00    +0.000 A 
ATOM     11  C   UNL     1       3.219   5.919  19.812  0.00  0.00    +0.000 A 
ATOM     12  C   UNL     1       1.993   5.394  20.223  0.00  0.00    +0.000 A 
ATOM     13  C   UNL     1       1.488   4.257  19.599  0.00  0.00    +0.000 A 
ATOM     14  F   UNL     1       0.305   3.765  19.991  0.00  0.00    +0.000 F 
ATOM     15  C   UNL     1       2.180   3.627  18.571  0.00  0.00    +0.000 A 
ATOM     16  C   UNL     1       3.394   4.167  18.150  0.00  0.00    +0.000 A 
ATOM     17  N   UNL     1       4.096   3.582  17.087  0.00  0.00    +0.000 N 
ATOM     18  C   UNL     1       5.261   4.093  16.572  0.00  0.00    +0.000 A 
ATOM     19  O   UNL     1       5.823   3.554  15.622  0.00  0.00    +0.000 OA
ATOM     20  H   UNL     1       3.736   2.755  16.629  0.00  0.00    +0.000 HD
ENDBRANCH   7   8
ENDBRANCH   3   7
BRANCH   4  21
ATOM     21  C   UNL     1       8.651  10.081  18.681  0.00  0.00    +0.000 C 
BRANCH  21  22
ATOM     22  C   UNL     1       9.304  11.280  18.004  0.00  0.00    +0.000 C 
ATOM     23  C   UNL     1      10.824  11.380  18.236  0.00  0.00    +0.000 C 
ATOM     24  C   UNL     1      11.016  12.883  18.469  0.00  0.00    +0.000 C 
ATOM     25  C   UNL     1      10.635  13.245  19.898  0.00  0.00    +0.000 C 
ATOM     26  C   UNL     1       9.116  13.068  19.863  0.00  0.00    +0.000 C 
ATOM     27  C   UNL     1       8.852  12.689  18.404  0.00  0.00    +0.000 C 
ATOM     28  O   UNL     1       9.903  13.453  17.742  0.00  0.00    +0.000 OA
ENDBRANCH  21  22
ENDBRANCH   4  21
TORSDOF 4
ENDMDL
MODEL 7
REMARK VINA RESULT:      -8.3      7.095     10.376
REMARK  Name = 
REMARK  4 active torsions:
REMARK  status: ('A' for Active; 'I' for Inactive)
REMARK    1  A    between atoms: N_3  and  C_4
REMARK    2  A    between atoms: C_4  and  C_5
REMARK    3  A    between atoms: N_17  and  C_18
REMARK    4  A    between atoms: C_18  and  C_19
REMARK                            x       y       z     vdW  Elec       q    Type
REMARK                         _______ _______ _______ _____ _____    ______ ____
ROOT
ATOM      1  O   UNL     1       2.612   7.265  18.836  0.00  0.00    +0.000 OA
ATOM      2  C   UNL     1       1.979   7.373  19.874  0.00  0.00    +0.000 C 
ATOM      3  N   UNL     1       1.357   8.527  20.274  0.00  0.00    +0.000 N 
ATOM      4  N   UNL     1       1.824   6.354  20.777  0.00  0.00    +0.000 N 
ATOM      5  H   UNL     1       1.193   8.640  21.265  0.00  0.00    +0.000 HD
ATOM      6  H   UNL     1       1.143   6.471  21.513  0.00  0.00    +0.000 HD
ENDROOT
BRANCH   3   7
ATOM      7  C   UNL     1       1.468   9.750  19.501  0.00  0.00    +0.000 C 
BRANCH   7   8
ATOM      8  C   UNL     1       0.104  10.237  19.115  0.00  0.00    +0.000 A 
ATOM      9  C   UNL     1      -0.459   9.962  17.925  0.00  0.00    +0.000 A 
ATOM     10  C   UNL     1      -1.797  10.442  17.591  0.00  0.00    +0.000 A 
ATOM     11  C   UNL     1      -2.419  10.082  16.391  0.00  0.00    +0.000 A 
ATOM     12  C   UNL     1      -3.715  10.525  16.122  0.00  0.00    +0.000 A 
ATOM     13  C   UNL     1      -4.369  11.337  17.044  0.00  0.00    +0.000 A 
ATOM     14  F   UNL     1      -5.617  11.749  16.784  0.00  0.00    +0.000 F 
ATOM     15  C   UNL     1      -3.758  11.720  18.233  0.00  0.00    +0.000 A 
ATOM     16  C   UNL     1      -2.473  11.258  18.507  0.00  0.00    +0.000 A 
ATOM     17  N   UNL     1      -1.846  11.589  19.715  0.00  0.00    +0.000 N 
ATOM     18  C   UNL     1      -0.610  11.119  20.086  0.00  0.00    +0.000 A 
ATOM     19  O   UNL     1      -0.117  11.421  21.169  0.00  0.00    +0.000 OA
ATOM     20  H   UNL     1      -2.314  12.180  20.390  0.00  0.00    +0.000 HD
ENDBRANCH   7   8
ENDBRANCH   3   7
BRANCH   4  21
ATOM     21  C   UNL     1       2.450   5.056  20.597  0.00  0.00    +0.000 C 
BRANCH  21  22
ATOM     22  C   UNL     1       1.531   4.013  19.975  0.00  0.00    +0.000 C 
ATOM     23  C   UNL     1       1.924   2.558  20.297  0.00  0.00    +0.000 C 
ATOM     24  C   UNL     1       1.706   1.859  18.950  0.00  0.00    +0.000 C 
ATOM     25  C   UNL     1       2.887   2.120  18.025  0.00  0.00    +0.000 C 
ATOM     26  C   UNL     1       2.702   3.604  17.705  0.00  0.00    +0.000 C 
ATOM     27  C   UNL     1       1.410   3.953  18.448  0.00  0.00    +0.000 C 
ATOM     28  O   UNL     1       0.693   2.688  18.333  0.00  0.00    +0.000 OA
ENDBRANCH  21  22
ENDBRANCH   4  21
TORSDOF 4
ENDMDL
MODEL 8
REMARK VINA RESULT:      -8.3      1.534      2.151
REMARK  Name = 
REMARK  4 active torsions:
REMARK  status: ('A' for Active; 'I' for Inactive)
REMARK    1  A    between atoms: N_3  and  C_4
REMARK    2  A    between atoms: C_4  and  C_5
REMARK    3  A    between atoms: N_17  and  C_18
REMARK    4  A    between atoms: C_18  and  C_19
REMARK                            x       y       z     vdW  Elec       q    Type
REMARK                         _______ _______ _______ _____ _____    ______ ____
ROOT
ATOM      1  O   UNL     1       7.836   7.381  16.640  0.00  0.00    +0.000 OA
ATOM      2  C   UNL     1       7.940   7.228  17.846  0.00  0.00    +0.000 C 
ATOM      3  N   UNL     1       7.711   6.039  18.488  0.00  0.00    +0.000 N 
ATOM      4  N   UNL     1       8.285   8.233  18.711  0.00  0.00    +0.000 N 
ATOM      5  H   UNL     1       7.457   6.087  19.465  0.00  0.00    +0.000 HD
ATOM      6  H   UNL     1       8.522   7.983  19.660  0.00  0.00    +0.000 HD
ENDROOT
BRANCH   3   7
ATOM      7  C   UNL     1       7.254   4.867  17.765  0.00  0.00    +0.000 C 
BRANCH   7   8
ATOM      8  C   UNL     1       5.805   4.620  18.056  0.00  0.00    +0.000 A 
ATOM      9  C   UNL     1       5.387   3.812  19.047  0.00  0.00    +0.000 A 
ATOM     10  C   UNL     1       3.965   3.607  19.309  0.00  0.00    +0.000 A 
ATOM     11  C   UNL     1       3.530   2.839  20.394  0.00  0.00    +0.000 A 
ATOM     12  C   UNL     1       2.163   2.697  20.639  0.00  0.00    +0.000 A 
ATOM     13  C   UNL     1       1.246   3.309  19.789  0.00  0.00    +0.000 A 
ATOM     14  F   UNL     1      -0.065   3.178  20.038  0.00  0.00    +0.000 F 
ATOM     15  C   UNL     1       1.661   4.061  18.696  0.00  0.00    +0.000 A 
ATOM     16  C   UNL     1       3.026   4.216  18.467  0.00  0.00    +0.000 A 
ATOM     17  N   UNL     1       3.478   5.003  17.400  0.00  0.00    +0.000 N 
ATOM     18  C   UNL     1       4.804   5.258  17.149  0.00  0.00    +0.000 A 
ATOM     19  O   UNL     1       5.145   5.976  16.213  0.00  0.00    +0.000 OA
ATOM     20  H   UNL     1       2.818   5.449  16.777  0.00  0.00    +0.000 HD
ENDBRANCH   7   8
ENDBRANCH   3   7
BRANCH   4  21
ATOM     21  C   UNL     1       8.511   9.597  18.265  0.00  0.00    +0.000 C 
BRANCH  21  22
ATOM     22  C   UNL     1       9.693  10.277  18.946  0.00  0.00    +0.000 C 
ATOM     23  C   UNL     1       9.354  10.900  20.314  0.00  0.00    +0.000 C 
ATOM     24  C   UNL     1      10.117  12.229  20.261  0.00  0.00    +0.000 C 
ATOM     25  C   UNL     1       9.336  13.251  19.446  0.00  0.00    +0.000 C 
ATOM     26  C   UNL     1       9.477  12.687  18.032  0.00  0.00    +0.000 C 
ATOM     27  C   UNL     1      10.368  11.460  18.243  0.00  0.00    +0.000 C 
ATOM     28  O   UNL     1      11.198  11.927  19.347  0.00  0.00    +0.000 OA
ENDBRANCH  21  22
ENDBRANCH   4  21
TORSDOF 4
ENDMDL
MODEL 9
REMARK VINA RESULT:      -7.9      1.664      2.204
REMARK  Name = 
REMARK  4 active torsions:
REMARK  status: ('A' for Active; 'I' for Inactive)
REMARK    1  A    between atoms: N_3  and  C_4
REMARK    2  A    between atoms: C_4  and  C_5
REMARK    3  A    between atoms: N_17  and  C_18
REMARK    4  A    between atoms: C_18  and  C_19
REMARK                            x       y       z     vdW  Elec       q    Type
REMARK                         _______ _______ _______ _____ _____    ______ ____
ROOT
ATOM      1  O   UNL     1       7.579   7.028  18.908  0.00  0.00    +0.000 OA
ATOM      2  C   UNL     1       7.614   7.278  17.714  0.00  0.00    +0.000 C 
ATOM      3  N   UNL     1       7.561   6.324  16.732  0.00  0.00    +0.000 N 
ATOM      4  N   UNL     1       7.723   8.546  17.208  0.00  0.00    +0.000 N 
ATOM      5  H   UNL     1       7.960   6.566  15.835  0.00  0.00    +0.000 HD
ATOM      6  H   UNL     1       7.565   8.679  16.220  0.00  0.00    +0.000 HD
ENDROOT
BRANCH   3   7
ATOM      7  C   UNL     1       7.527   4.909  17.055  0.00  0.00    +0.000 C 
BRANCH   7   8
ATOM      8  C   UNL     1       6.112   4.473  17.290  0.00  0.00    +0.000 A 
ATOM      9  C   UNL     1       5.668   4.053  18.488  0.00  0.00    +0.000 A 
ATOM     10  C   UNL     1       4.278   3.649  18.682  0.00  0.00    +0.000 A 
ATOM     11  C   UNL     1       3.793   3.298  19.946  0.00  0.00    +0.000 A 
ATOM     12  C   UNL     1       2.449   2.956  20.102  0.00  0.00    +0.000 A 
ATOM     13  C   UNL     1       1.608   2.951  18.993  0.00  0.00    +0.000 A 
ATOM     14  F   UNL     1       0.316   2.633  19.153  0.00  0.00    +0.000 F 
ATOM     15  C   UNL     1       2.078   3.278  17.726  0.00  0.00    +0.000 A 
ATOM     16  C   UNL     1       3.415   3.639  17.579  0.00  0.00    +0.000 A 
ATOM     17  N   UNL     1       3.910   4.017  16.324  0.00  0.00    +0.000 N 
ATOM     18  C   UNL     1       5.196   4.449  16.111  0.00  0.00    +0.000 A 
ATOM     19  O   UNL     1       5.572   4.792  14.993  0.00  0.00    +0.000 OA
ATOM     20  H   UNL     1       3.306   4.014  15.513  0.00  0.00    +0.000 HD
ENDBRANCH   7   8
ENDBRANCH   3   7
BRANCH   4  21
ATOM     21  C   UNL     1       7.861   9.713  18.062  0.00  0.00    +0.000 C 
BRANCH  21  22
ATOM     22  C   UNL     1       9.305  10.051  18.411  0.00  0.00    +0.000 C 
ATOM     23  C   UNL     1       9.530  10.380  19.900  0.00  0.00    +0.000 C 
ATOM     24  C   UNL     1      10.494  11.569  19.825  0.00  0.00    +0.000 C 
ATOM     25  C   UNL     1       9.727  12.848  19.516  0.00  0.00    +0.000 C 
ATOM     26  C   UNL     1       9.317  12.614  18.061  0.00  0.00    +0.000 C 
ATOM     27  C   UNL     1       9.961  11.263  17.740  0.00  0.00    +0.000 C 
ATOM     28  O   UNL     1      11.163  11.345  18.562  0.00  0.00    +0.000 OA
ENDBRANCH  21  22
ENDBRANCH   4  21
TORSDOF 4
ENDMDL
