MODEL 1
REMARK VINA RESULT:      -9.0      0.000      0.000
REMARK  Name = 
REMARK  6 active torsions:
REMARK  status: ('A' for Active; 'I' for Inactive)
REMARK    1  A    between atoms: C_1  and  C_2
REMARK    2  A    between atoms: C_4  and  C_5
REMARK    3  A    between atoms: N_7  and  C_8
REMARK    4  A    between atoms: N_11  and  C_12
REMARK    5  A    between atoms: C_12  and  C_13
REMARK    6  A    between atoms: N_21  and  C_22
REMARK                            x       y       z     vdW  Elec       q    Type
REMARK                         _______ _______ _______ _____ _____    ______ ____
ROOT
ATOM      1  C   UNL     1       8.192   8.935  18.049  0.00  0.00    +0.000 C 
ATOM      2  O   UNL     1       7.524   8.993  17.023  0.00  0.00    +0.000 OA
ATOM      3  N   UNL     1       8.364   7.807  18.835  0.00  0.00    +0.000 N 
ATOM      4  H   UNL     1       8.907   7.924  19.685  0.00  0.00    +0.000 HD
ENDROOT
BRANCH   1   8
ATOM      5  C   UNL     1      10.903  12.186  20.895  0.00  0.00    +0.000 C 
ATOM      6  C   UNL     1      10.121  11.519  19.816  0.00  0.00    +0.000 A 
ATOM      7  C   UNL     1       9.618  10.233  19.782  0.00  0.00    +0.000 A 
ATOM      8  C   UNL     1       8.879  10.133  18.578  0.00  0.00    +0.000 A 
ATOM      9  N   UNL     1       8.872  11.307  17.927  0.00  0.00    +0.000 NA
ATOM     10  N   UNL     1       9.685  12.127  18.644  0.00  0.00    +0.000 N 
BRANCH  10  11
ATOM     11  C   UNL     1      10.052  13.393  18.119  0.00  0.00    +0.000 A 
ATOM     12  C   UNL     1       9.223  14.510  18.281  0.00  0.00    +0.000 A 
ATOM     13  C   UNL     1       9.599  15.755  17.776  0.00  0.00    +0.000 A 
ATOM     14  C   UNL     1      10.808  15.879  17.123  0.00  0.00    +0.000 A 
ATOM     15  F   UNL     1      11.178  17.081  16.648  0.00  0.00    +0.000 F 
ATOM     16  C   UNL     1      11.656  14.789  16.963  0.00  0.00    +0.000 A 
ATOM     17  C   UNL     1      11.283  13.546  17.462  0.00  0.00    +0.000 A 
ATOM     18  F   UNL     1      12.107  12.516  17.243  0.00  0.00    +0.000 F 
ENDBRANCH  10  11
ENDBRANCH   1   8
BRANCH   3  19
ATOM     19  C   UNL     1       7.789   6.576  18.566  0.00  0.00    +0.000 A 
ATOM     20  C   UNL     1       8.161   5.275  18.972  0.00  0.00    +0.000 A 
ATOM     21  N   UNL     1       7.399   4.327  18.419  0.00  0.00    +0.000 NA
ATOM     22  N   UNL     1       6.517   5.020  17.669  0.00  0.00    +0.000 N 
ATOM     23  C   UNL     1       6.677   6.381  17.778  0.00  0.00    +0.000 A 
BRANCH  22  24
ATOM     24  C   UNL     1       5.665   4.304  16.723  0.00  0.00    +0.000 C 
BRANCH  24  25
ATOM     25  C   UNL     1       4.254   4.112  17.221  0.00  0.00    +0.000 A 
ATOM     26  C   UNL     1       3.430   5.221  17.469  0.00  0.00    +0.000 A 
ATOM     27  C   UNL     1       2.127   5.047  17.940  0.00  0.00    +0.000 A 
ATOM     28  C   UNL     1       1.625   3.763  18.146  0.00  0.00    +0.000 A 
ATOM     29  C   UNL     1       2.419   2.654  17.870  0.00  0.00    +0.000 A 
ATOM     30  C   UNL     1       3.724   2.826  17.407  0.00  0.00    +0.000 A 
ENDBRANCH  24  25
ENDBRANCH  22  24
ENDBRANCH   3  19
TORSDOF 5
ENDMDL
MODEL 2
REMARK VINA RESULT:      -8.8      0.917      1.563
REMARK  Name = 
REMARK  6 active torsions:
REMARK  status: ('A' for Active; 'I' for Inactive)
REMARK    1  A    between atoms: C_1  and  C_2
REMARK    2  A    between atoms: C_4  and  C_5
REMARK    3  A    between atoms: N_7  and  C_8
REMARK    4  A    between atoms: N_11  and  C_12
REMARK    5  A    between atoms: C_12  and  C_13
REMARK    6  A    between atoms: N_21  and  C_22
REMARK                            x       y       z     vdW  Elec       q    Type
REMARK                         _______ _______ _______ _____ _____    ______ ____
ROOT
ATOM      1  C   UNL     1       8.140   8.980  18.020  0.00  0.00    +0.000 C 
ATOM      2  O   UNL     1       7.420   9.064  17.031  0.00  0.00    +0.000 OA
ATOM      3  N   UNL     1       8.348   7.833  18.771  0.00  0.00    +0.000 N 
ATOM      4  H   UNL     1       8.934   7.929  19.593  0.00  0.00    +0.000 HD
ENDROOT
BRANCH   1   8
ATOM      5  C   UNL     1      11.039  12.145  20.775  0.00  0.00    +0.000 C 
ATOM      6  C   UNL     1      10.183  11.512  19.734  0.00  0.00    +0.000 A 
ATOM      7  C   UNL     1       9.684  10.224  19.690  0.00  0.00    +0.000 A 
ATOM      8  C   UNL     1       8.859  10.162  18.541  0.00  0.00    +0.000 A 
ATOM      9  N   UNL     1       8.800  11.359  17.935  0.00  0.00    +0.000 NA
ATOM     10  N   UNL     1       9.659  12.159  18.620  0.00  0.00    +0.000 N 
BRANCH  10  11
ATOM     11  C   UNL     1       9.980  13.445  18.115  0.00  0.00    +0.000 A 
ATOM     12  C   UNL     1      11.128  13.651  17.340  0.00  0.00    +0.000 A 
ATOM     13  C   UNL     1      11.429  14.915  16.833  0.00  0.00    +0.000 A 
ATOM     14  C   UNL     1      10.570  15.964  17.091  0.00  0.00    +0.000 A 
ATOM     15  F   UNL     1      10.851  17.180  16.591  0.00  0.00    +0.000 F 
ATOM     16  C   UNL     1       9.416  15.783  17.843  0.00  0.00    +0.000 A 
ATOM     17  C   UNL     1       9.116  14.525  18.354  0.00  0.00    +0.000 A 
ATOM     18  F   UNL     1       8.021  14.407  19.112  0.00  0.00    +0.000 F 
ENDBRANCH  10  11
ENDBRANCH   1   8
BRANCH   3  19
ATOM     19  C   UNL     1       7.754   6.611  18.504  0.00  0.00    +0.000 A 
ATOM     20  C   UNL     1       8.095   5.307  18.926  0.00  0.00    +0.000 A 
ATOM     21  N   UNL     1       7.324   4.368  18.369  0.00  0.00    +0.000 NA
ATOM     22  N   UNL     1       6.466   5.071  17.600  0.00  0.00    +0.000 N 
ATOM     23  C   UNL     1       6.651   6.429  17.699  0.00  0.00    +0.000 A 
BRANCH  22  24
ATOM     24  C   UNL     1       5.615   4.362  16.647  0.00  0.00    +0.000 C 
BRANCH  24  25
ATOM     25  C   UNL     1       4.226   4.098  17.173  0.00  0.00    +0.000 A 
ATOM     26  C   UNL     1       3.778   2.783  17.372  0.00  0.00    +0.000 A 
ATOM     27  C   UNL     1       2.490   2.535  17.848  0.00  0.00    +0.000 A 
ATOM     28  C   UNL     1       1.643   3.598  18.155  0.00  0.00    +0.000 A 
ATOM     29  C   UNL     1       2.086   4.908  17.997  0.00  0.00    +0.000 A 
ATOM     30  C   UNL     1       3.371   5.157  17.512  0.00  0.00    +0.000 A 
ENDBRANCH  24  25
ENDBRANCH  22  24
ENDBRANCH   3  19
TORSDOF 5
ENDMDL
MODEL 3
REMARK VINA RESULT:      -8.7      1.160      1.546
REMARK  Name = 
REMARK  6 active torsions:
REMARK  status: ('A' for Active; 'I' for Inactive)
REMARK    1  A    between atoms: C_1  and  C_2
REMARK    2  A    between atoms: C_4  and  C_5
REMARK    3  A    between atoms: N_7  and  C_8
REMARK    4  A    between atoms: N_11  and  C_12
REMARK    5  A    between atoms: C_12  and  C_13
REMARK    6  A    between atoms: N_21  and  C_22
REMARK                            x       y       z     vdW  Elec       q    Type
REMARK                         _______ _______ _______ _____ _____    ______ ____
ROOT
ATOM      1  C   UNL     1       8.004   8.960  17.980  0.00  0.00    +0.000 C 
ATOM      2  O   UNL     1       7.176   9.104  17.089  0.00  0.00    +0.000 OA
ATOM      3  N   UNL     1       8.292   7.768  18.628  0.00  0.00    +0.000 N 
ATOM      4  H   UNL     1       8.969   7.814  19.383  0.00  0.00    +0.000 HD
ENDROOT
BRANCH   1   8
ATOM      5  C   UNL     1      11.115  11.984  20.662  0.00  0.00    +0.000 C 
ATOM      6  C   UNL     1      10.197  11.396  19.647  0.00  0.00    +0.000 A 
ATOM      7  C   UNL     1       9.654  10.126  19.604  0.00  0.00    +0.000 A 
ATOM      8  C   UNL     1       8.782  10.110  18.489  0.00  0.00    +0.000 A 
ATOM      9  N   UNL     1       8.738  11.317  17.905  0.00  0.00    +0.000 NA
ATOM     10  N   UNL     1       9.650  12.078  18.565  0.00  0.00    +0.000 N 
BRANCH  10  11
ATOM     11  C   UNL     1       9.993  13.361  18.067  0.00  0.00    +0.000 A 
ATOM     12  C   UNL     1      11.134  13.547  17.277  0.00  0.00    +0.000 A 
ATOM     13  C   UNL     1      11.455  14.809  16.776  0.00  0.00    +0.000 A 
ATOM     14  C   UNL     1      10.625  15.875  17.056  0.00  0.00    +0.000 A 
ATOM     15  F   UNL     1      10.926  17.089  16.564  0.00  0.00    +0.000 F 
ATOM     16  C   UNL     1       9.479  15.714  17.825  0.00  0.00    +0.000 A 
ATOM     17  C   UNL     1       9.157  14.458  18.328  0.00  0.00    +0.000 A 
ATOM     18  F   UNL     1       8.071  14.358  19.102  0.00  0.00    +0.000 F 
ENDBRANCH  10  11
ENDBRANCH   1   8
BRANCH   3  19
ATOM     19  C   UNL     1       7.667   6.564  18.354  0.00  0.00    +0.000 A 
ATOM     20  C   UNL     1       7.421   5.910  17.127  0.00  0.00    +0.000 A 
ATOM     21  N   UNL     1       6.696   4.796  17.274  0.00  0.00    +0.000 NA
ATOM     22  N   UNL     1       6.492   4.719  18.606  0.00  0.00    +0.000 N 
ATOM     23  C   UNL     1       7.112   5.730  19.300  0.00  0.00    +0.000 A 
BRANCH  22  24
ATOM     24  C   UNL     1       5.531   3.749  19.126  0.00  0.00    +0.000 C 
BRANCH  24  25
ATOM     25  C   UNL     1       4.131   3.962  18.606  0.00  0.00    +0.000 A 
ATOM     26  C   UNL     1       3.444   5.155  18.879  0.00  0.00    +0.000 A 
ATOM     27  C   UNL     1       2.144   5.350  18.407  0.00  0.00    +0.000 A 
ATOM     28  C   UNL     1       1.526   4.367  17.638  0.00  0.00    +0.000 A 
ATOM     29  C   UNL     1       2.209   3.194  17.329  0.00  0.00    +0.000 A 
ATOM     30  C   UNL     1       3.505   2.993  17.807  0.00  0.00    +0.000 A 
ENDBRANCH  24  25
ENDBRANCH  22  24
ENDBRANCH   3  19
TORSDOF 5
ENDMDL
MODEL 4
REMARK VINA RESULT:      -8.5      1.250      1.458
REMARK  Name = 
REMARK  6 active torsions:
REMARK  status: ('A' for Active; 'I' for Inactive)
REMARK    1  A    between atoms: C_1  and  C_2
REMARK    2  A    between atoms: C_4  and  C_5
REMARK    3  A    between atoms: N_7  and  C_8
REMARK    4  A    between atoms: N_11  and  C_12
REMARK    5  A    between atoms: C_12  and  C_13
REMARK    6  A    between atoms: N_21  and  C_22
REMARK                            x       y       z     vdW  Elec       q    Type
REMARK                         _______ _______ _______ _____ _____    ______ ____
ROOT
ATOM      1  C   UNL     1       7.867   8.754  17.849  0.00  0.00    +0.000 C 
ATOM      2  O   UNL     1       7.069   8.902  16.932  0.00  0.00    +0.000 OA
ATOM      3  N   UNL     1       8.131   7.560  18.503  0.00  0.00    +0.000 N 
ATOM      4  H   UNL     1       8.784   7.602  19.279  0.00  0.00    +0.000 HD
ENDROOT
BRANCH   1   8
ATOM      5  C   UNL     1      10.867  11.773  20.660  0.00  0.00    +0.000 C 
ATOM      6  C   UNL     1       9.998  11.183  19.603  0.00  0.00    +0.000 A 
ATOM      7  C   UNL     1       9.442   9.921  19.547  0.00  0.00    +0.000 A 
ATOM      8  C   UNL     1       8.632   9.900  18.385  0.00  0.00    +0.000 A 
ATOM      9  N   UNL     1       8.636  11.100  17.784  0.00  0.00    +0.000 NA
ATOM     10  N   UNL     1       9.521  11.858  18.485  0.00  0.00    +0.000 N 
BRANCH  10  11
ATOM     11  C   UNL     1       9.909  13.130  17.990  0.00  0.00    +0.000 A 
ATOM     12  C   UNL     1       9.112  14.261  18.203  0.00  0.00    +0.000 A 
ATOM     13  C   UNL     1       9.508  15.511  17.728  0.00  0.00    +0.000 A 
ATOM     14  C   UNL     1      10.707  15.626  17.054  0.00  0.00    +0.000 A 
ATOM     15  F   UNL     1      11.097  16.832  16.608  0.00  0.00    +0.000 F 
ATOM     16  C   UNL     1      11.524  14.522  16.844  0.00  0.00    +0.000 A 
ATOM     17  C   UNL     1      11.131  13.273  17.313  0.00  0.00    +0.000 A 
ATOM     18  F   UNL     1      11.925  12.230  17.046  0.00  0.00    +0.000 F 
ENDBRANCH  10  11
ENDBRANCH   1   8
BRANCH   3  19
ATOM     19  C   UNL     1       7.512   6.358  18.207  0.00  0.00    +0.000 A 
ATOM     20  C   UNL     1       7.529   5.577  17.030  0.00  0.00    +0.000 A 
ATOM     21  N   UNL     1       6.717   4.518  17.104  0.00  0.00    +0.000 NA
ATOM     22  N   UNL     1       6.189   4.603  18.343  0.00  0.00    +0.000 N 
ATOM     23  C   UNL     1       6.688   5.662  19.063  0.00  0.00    +0.000 A 
BRANCH  22  24
ATOM     24  C   UNL     1       5.067   3.740  18.704  0.00  0.00    +0.000 C 
BRANCH  24  25
ATOM     25  C   UNL     1       3.916   4.491  19.327  0.00  0.00    +0.000 A 
ATOM     26  C   UNL     1       3.540   5.751  18.838  0.00  0.00    +0.000 A 
ATOM     27  C   UNL     1       2.483   6.453  19.420  0.00  0.00    +0.000 A 
ATOM     28  C   UNL     1       1.773   5.893  20.480  0.00  0.00    +0.000 A 
ATOM     29  C   UNL     1       2.112   4.628  20.952  0.00  0.00    +0.000 A 
ATOM     30  C   UNL     1       3.174   3.929  20.377  0.00  0.00    +0.000 A 
ENDBRANCH  24  25
ENDBRANCH  22  24
ENDBRANCH   3  19
TORSDOF 5
ENDMDL
MODEL 5
REMARK VINA RESULT:      -8.5      6.764      8.222
REMARK  Name = 
REMARK  6 active torsions:
REMARK  status: ('A' for Active; 'I' for Inactive)
REMARK    1  A    between atoms: C_1  and  C_2
REMARK    2  A    between atoms: C_4  and  C_5
REMARK    3  A    between atoms: N_7  and  C_8
REMARK    4  A    between atoms: N_11  and  C_12
REMARK    5  A    between atoms: C_12  and  C_13
REMARK    6  A    between atoms: N_21  and  C_22
REMARK                            x       y       z     vdW  Elec       q    Type
REMARK                         _______ _______ _______ _____ _____    ______ ____
ROOT
ATOM      1  C   UNL     1       2.468   6.746  19.611  0.00  0.00    +0.000 C 
ATOM      2  O   UNL     1       2.665   5.765  20.318  0.00  0.00    +0.000 OA
ATOM      3  N   UNL     1       2.965   6.929  18.330  0.00  0.00    +0.000 N 
ATOM      4  H   UNL     1       2.758   7.817  17.885  0.00  0.00    +0.000 HD
ENDROOT
BRANCH   1   8
ATOM      5  C   UNL     1      -0.270   9.953  22.481  0.00  0.00    +0.000 C 
ATOM      6  C   UNL     1       0.523   9.303  21.400  0.00  0.00    +0.000 A 
ATOM      7  C   UNL     1       1.127   8.061  21.398  0.00  0.00    +0.000 A 
ATOM      8  C   UNL     1       1.670   7.890  20.102  0.00  0.00    +0.000 A 
ATOM      9  N   UNL     1       1.371   8.940  19.321  0.00  0.00    +0.000 NA
ATOM     10  N   UNL     1       0.735   9.829  20.130  0.00  0.00    +0.000 N 
BRANCH  10  11
ATOM     11  C   UNL     1       0.456  11.137  19.659  0.00  0.00    +0.000 A 
ATOM     12  C   UNL     1       1.360  12.186  19.863  0.00  0.00    +0.000 A 
ATOM     13  C   UNL     1       1.086  13.467  19.382  0.00  0.00    +0.000 A 
ATOM     14  C   UNL     1      -0.085  13.688  18.687  0.00  0.00    +0.000 A 
ATOM     15  F   UNL     1      -0.345  14.918  18.211  0.00  0.00    +0.000 F 
ATOM     16  C   UNL     1      -0.992  12.660  18.457  0.00  0.00    +0.000 A 
ATOM     17  C   UNL     1      -0.723  11.383  18.938  0.00  0.00    +0.000 A 
ATOM     18  F   UNL     1      -1.646  10.436  18.736  0.00  0.00    +0.000 F 
ENDBRANCH  10  11
ENDBRANCH   1   8
BRANCH   3  19
ATOM     19  C   UNL     1       3.770   6.015  17.670  0.00  0.00    +0.000 A 
ATOM     20  C   UNL     1       3.669   4.611  17.555  0.00  0.00    +0.000 A 
ATOM     21  N   UNL     1       4.707   4.073  16.907  0.00  0.00    +0.000 NA
ATOM     22  N   UNL     1       5.471   5.137  16.583  0.00  0.00    +0.000 N 
ATOM     23  C   UNL     1       4.912   6.332  16.970  0.00  0.00    +0.000 A 
BRANCH  22  24
ATOM     24  C   UNL     1       6.820   4.918  16.067  0.00  0.00    +0.000 C 
BRANCH  24  25
ATOM     25  C   UNL     1       6.853   4.665  14.580  0.00  0.00    +0.000 A 
ATOM     26  C   UNL     1       7.737   5.380  13.756  0.00  0.00    +0.000 A 
ATOM     27  C   UNL     1       7.763   5.156  12.379  0.00  0.00    +0.000 A 
ATOM     28  C   UNL     1       6.924   4.199  11.811  0.00  0.00    +0.000 A 
ATOM     29  C   UNL     1       6.068   3.457  12.621  0.00  0.00    +0.000 A 
ATOM     30  C   UNL     1       6.035   3.686  13.997  0.00  0.00    +0.000 A 
ENDBRANCH  24  25
ENDBRANCH  22  24
ENDBRANCH   3  19
TORSDOF 5
ENDMDL
MODEL 6
REMARK VINA RESULT:      -8.4      3.882     10.580
REMARK  Name = 
REMARK  6 active torsions:
REMARK  status: ('A' for Active; 'I' for Inactive)
REMARK    1  A    between atoms: C_1  and  C_2
REMARK    2  A    between atoms: C_4  and  C_5
REMARK    3  A    between atoms: N_7  and  C_8
REMARK    4  A    between atoms: N_11  and  C_12
REMARK    5  A    between atoms: C_12  and  C_13
REMARK    6  A    between atoms: N_21  and  C_22
REMARK                            x       y       z     vdW  Elec       q    Type
REMARK                         _______ _______ _______ _____ _____    ______ ____
ROOT
ATOM      1  C   UNL     1       7.668   7.296  18.005  0.00  0.00    +0.000 C 
ATOM      2  O   UNL     1       8.419   6.975  18.918  0.00  0.00    +0.000 OA
ATOM      3  N   UNL     1       7.514   8.578  17.499  0.00  0.00    +0.000 N 
ATOM      4  H   UNL     1       6.816   8.699  16.773  0.00  0.00    +0.000 HD
ENDROOT
BRANCH   1   8
ATOM      5  C   UNL     1       5.707   3.797  14.853  0.00  0.00    +0.000 C 
ATOM      6  C   UNL     1       5.986   4.724  15.986  0.00  0.00    +0.000 A 
ATOM      7  C   UNL     1       7.056   5.579  16.161  0.00  0.00    +0.000 A 
ATOM      8  C   UNL     1       6.794   6.297  17.352  0.00  0.00    +0.000 A 
ATOM      9  N   UNL     1       5.600   5.952  17.861  0.00  0.00    +0.000 NA
ATOM     10  N   UNL     1       5.142   4.946  17.069  0.00  0.00    +0.000 N 
BRANCH  10  11
ATOM     11  C   UNL     1       3.986   4.219  17.450  0.00  0.00    +0.000 A 
ATOM     12  C   UNL     1       4.022   2.827  17.593  0.00  0.00    +0.000 A 
ATOM     13  C   UNL     1       2.885   2.121  17.985  0.00  0.00    +0.000 A 
ATOM     14  C   UNL     1       1.720   2.813  18.246  0.00  0.00    +0.000 A 
ATOM     15  F   UNL     1       0.627   2.136  18.637  0.00  0.00    +0.000 F 
ATOM     16  C   UNL     1       1.662   4.196  18.127  0.00  0.00    +0.000 A 
ATOM     17  C   UNL     1       2.793   4.903  17.734  0.00  0.00    +0.000 A 
ATOM     18  F   UNL     1       2.678   6.227  17.586  0.00  0.00    +0.000 F 
ENDBRANCH  10  11
ENDBRANCH   1   8
BRANCH   3  19
ATOM     19  C   UNL     1       8.195   9.687  17.972  0.00  0.00    +0.000 A 
ATOM     20  C   UNL     1       8.333  10.985  17.433  0.00  0.00    +0.000 A 
ATOM     21  N   UNL     1       9.160  11.754  18.148  0.00  0.00    +0.000 NA
ATOM     22  N   UNL     1       9.541  10.955  19.167  0.00  0.00    +0.000 N 
ATOM     23  C   UNL     1       8.936   9.722  19.133  0.00  0.00    +0.000 A 
BRANCH  22  24
ATOM     24  C   UNL     1      10.638  11.377  20.034  0.00  0.00    +0.000 C 
BRANCH  24  25
ATOM     25  C   UNL     1      10.327  12.627  20.820  0.00  0.00    +0.000 A 
ATOM     26  C   UNL     1      10.908  13.854  20.465  0.00  0.00    +0.000 A 
ATOM     27  C   UNL     1      10.630  15.010  21.197  0.00  0.00    +0.000 A 
ATOM     28  C   UNL     1       9.750  14.958  22.276  0.00  0.00    +0.000 A 
ATOM     29  C   UNL     1       9.139  13.755  22.617  0.00  0.00    +0.000 A 
ATOM     30  C   UNL     1       9.422  12.597  21.892  0.00  0.00    +0.000 A 
ENDBRANCH  24  25
ENDBRANCH  22  24
ENDBRANCH   3  19
TORSDOF 5
ENDMDL
MODEL 7
REMARK VINA RESULT:      -8.4      6.832     10.159
REMARK  Name = 
REMARK  6 active torsions:
REMARK  status: ('A' for Active; 'I' for Inactive)
REMARK    1  A    between atoms: C_1  and  C_2
REMARK    2  A    between atoms: C_4  and  C_5
REMARK    3  A    between atoms: N_7  and  C_8
REMARK    4  A    between atoms: N_11  and  C_12
REMARK    5  A    between atoms: C_12  and  C_13
REMARK    6  A    between atoms: N_21  and  C_22
REMARK                            x       y       z     vdW  Elec       q    Type
REMARK                         _______ _______ _______ _____ _____    ______ ____
ROOT
ATOM      1  C   UNL     1       1.492   8.033  20.470  0.00  0.00    +0.000 C 
ATOM      2  O   UNL     1       1.038   8.232  21.591  0.00  0.00    +0.000 OA
ATOM      3  N   UNL     1       1.366   8.886  19.386  0.00  0.00    +0.000 N 
ATOM      4  H   UNL     1       1.754   8.563  18.506  0.00  0.00    +0.000 HD
ENDROOT
BRANCH   1   8
ATOM      5  C   UNL     1       3.056   3.183  20.230  0.00  0.00    +0.000 C 
ATOM      6  C   UNL     1       2.849   4.644  20.024  0.00  0.00    +0.000 A 
ATOM      7  C   UNL     1       1.945   5.485  20.642  0.00  0.00    +0.000 A 
ATOM      8  C   UNL     1       2.223   6.786  20.156  0.00  0.00    +0.000 A 
ATOM      9  N   UNL     1       3.280   6.766  19.329  0.00  0.00    +0.000 NA
ATOM     10  N   UNL     1       3.615   5.456  19.194  0.00  0.00    +0.000 N 
BRANCH  10  11
ATOM     11  C   UNL     1       4.577   5.069  18.225  0.00  0.00    +0.000 A 
ATOM     12  C   UNL     1       4.187   4.655  16.946  0.00  0.00    +0.000 A 
ATOM     13  C   UNL     1       5.140   4.292  15.994  0.00  0.00    +0.000 A 
ATOM     14  C   UNL     1       6.478   4.361  16.321  0.00  0.00    +0.000 A 
ATOM     15  F   UNL     1       7.399   4.026  15.401  0.00  0.00    +0.000 F 
ATOM     16  C   UNL     1       6.892   4.785  17.579  0.00  0.00    +0.000 A 
ATOM     17  C   UNL     1       5.945   5.143  18.532  0.00  0.00    +0.000 A 
ATOM     18  F   UNL     1       6.386   5.499  19.743  0.00  0.00    +0.000 F 
ENDBRANCH  10  11
ENDBRANCH   1   8
BRANCH   3  19
ATOM     19  C   UNL     1       0.692  10.095  19.422  0.00  0.00    +0.000 A 
ATOM     20  C   UNL     1       1.174  11.423  19.387  0.00  0.00    +0.000 A 
ATOM     21  N   UNL     1       0.202  12.327  19.542  0.00  0.00    +0.000 NA
ATOM     22  N   UNL     1      -0.916  11.581  19.657  0.00  0.00    +0.000 N 
ATOM     23  C   UNL     1      -0.674  10.234  19.529  0.00  0.00    +0.000 A 
BRANCH  22  24
ATOM     24  C   UNL     1      -2.161  12.218  20.078  0.00  0.00    +0.000 C 
BRANCH  24  25
ATOM     25  C   UNL     1      -3.301  11.990  19.116  0.00  0.00    +0.000 A 
ATOM     26  C   UNL     1      -4.623  12.255  19.504  0.00  0.00    +0.000 A 
ATOM     27  C   UNL     1      -5.681  12.035  18.619  0.00  0.00    +0.000 A 
ATOM     28  C   UNL     1      -5.427  11.571  17.330  0.00  0.00    +0.000 A 
ATOM     29  C   UNL     1      -4.117  11.340  16.920  0.00  0.00    +0.000 A 
ATOM     30  C   UNL     1      -3.060  11.551  17.806  0.00  0.00    +0.000 A 
ENDBRANCH  24  25
ENDBRANCH  22  24
ENDBRANCH   3  19
TORSDOF 5
ENDMDL
MODEL 8
REMARK VINA RESULT:      -8.4      3.914     10.242
REMARK  Name = 
REMARK  6 active torsions:
REMARK  status: ('A' for Active; 'I' for Inactive)
REMARK    1  A    between atoms: C_1  and  C_2
REMARK    2  A    between atoms: C_4  and  C_5
REMARK    3  A    between atoms: N_7  and  C_8
REMARK    4  A    between atoms: N_11  and  C_12
REMARK    5  A    between atoms: C_12  and  C_13
REMARK    6  A    between atoms: N_21  and  C_22
REMARK                            x       y       z     vdW  Elec       q    Type
REMARK                         _______ _______ _______ _____ _____    ______ ____
ROOT
ATOM      1  C   UNL     1       7.718   7.296  18.067  0.00  0.00    +0.000 C 
ATOM      2  O   UNL     1       8.446   6.864  18.954  0.00  0.00    +0.000 OA
ATOM      3  N   UNL     1       7.665   8.612  17.636  0.00  0.00    +0.000 N 
ATOM      4  H   UNL     1       6.976   8.829  16.924  0.00  0.00    +0.000 HD
ENDROOT
BRANCH   1   8
ATOM      5  C   UNL     1       5.391   4.298  14.658  0.00  0.00    +0.000 C 
ATOM      6  C   UNL     1       5.795   5.053  15.878  0.00  0.00    +0.000 A 
ATOM      7  C   UNL     1       6.897   5.863  16.067  0.00  0.00    +0.000 A 
ATOM      8  C   UNL     1       6.764   6.409  17.367  0.00  0.00    +0.000 A 
ATOM      9  N   UNL     1       5.614   6.008  17.933  0.00  0.00    +0.000 NA
ATOM     10  N   UNL     1       5.061   5.129  17.056  0.00  0.00    +0.000 N 
BRANCH  10  11
ATOM     11  C   UNL     1       3.927   4.369  17.440  0.00  0.00    +0.000 A 
ATOM     12  C   UNL     1       3.982   2.971  17.503  0.00  0.00    +0.000 A 
ATOM     13  C   UNL     1       2.867   2.231  17.898  0.00  0.00    +0.000 A 
ATOM     14  C   UNL     1       1.707   2.894  18.242  0.00  0.00    +0.000 A 
ATOM     15  F   UNL     1       0.636   2.183  18.635  0.00  0.00    +0.000 F 
ATOM     16  C   UNL     1       1.631   4.281  18.203  0.00  0.00    +0.000 A 
ATOM     17  C   UNL     1       2.739   5.022  17.806  0.00  0.00    +0.000 A 
ATOM     18  F   UNL     1       2.606   6.351  17.738  0.00  0.00    +0.000 F 
ENDBRANCH  10  11
ENDBRANCH   1   8
BRANCH   3  19
ATOM     19  C   UNL     1       8.436   9.634  18.164  0.00  0.00    +0.000 A 
ATOM     20  C   UNL     1       9.167   9.710  19.371  0.00  0.00    +0.000 A 
ATOM     21  N   UNL     1       9.707  10.916  19.569  0.00  0.00    +0.000 NA
ATOM     22  N   UNL     1       9.342  11.617  18.475  0.00  0.00    +0.000 N 
ATOM     23  C   UNL     1       8.627  10.864  17.574  0.00  0.00    +0.000 A 
BRANCH  22  24
ATOM     24  C   UNL     1       9.553  13.062  18.447  0.00  0.00    +0.000 C 
BRANCH  24  25
ATOM     25  C   UNL     1       8.304  13.851  18.747  0.00  0.00    +0.000 A 
ATOM     26  C   UNL     1       7.378  14.133  17.730  0.00  0.00    +0.000 A 
ATOM     27  C   UNL     1       6.226  14.873  18.002  0.00  0.00    +0.000 A 
ATOM     28  C   UNL     1       5.972  15.318  19.298  0.00  0.00    +0.000 A 
ATOM     29  C   UNL     1       6.863  15.014  20.323  0.00  0.00    +0.000 A 
ATOM     30  C   UNL     1       8.020  14.283  20.052  0.00  0.00    +0.000 A 
ENDBRANCH  24  25
ENDBRANCH  22  24
ENDBRANCH   3  19
TORSDOF 5
ENDMDL
MODEL 9
REMARK VINA RESULT:      -8.3      7.513     11.145
REMARK  Name = 
REMARK  6 active torsions:
REMARK  status: ('A' for Active; 'I' for Inactive)
REMARK    1  A    between atoms: C_1  and  C_2
REMARK    2  A    between atoms: C_4  and  C_5
REMARK    3  A    between atoms: N_7  and  C_8
REMARK    4  A    between atoms: N_11  and  C_12
REMARK    5  A    between atoms: C_12  and  C_13
REMARK    6  A    between atoms: N_21  and  C_22
REMARK                            x       y       z     vdW  Elec       q    Type
REMARK                         _______ _______ _______ _____ _____    ______ ____
ROOT
ATOM      1  C   UNL     1       1.210   8.995  19.346  0.00  0.00    +0.000 C 
ATOM      2  O   UNL     1       0.575   9.827  18.709  0.00  0.00    +0.000 OA
ATOM      3  N   UNL     1       1.241   8.889  20.728  0.00  0.00    +0.000 N 
ATOM      4  H   UNL     1       1.853   8.178  21.115  0.00  0.00    +0.000 HD
ENDROOT
BRANCH   1   8
ATOM      5  C   UNL     1       4.779   6.721  16.499  0.00  0.00    +0.000 C 
ATOM      6  C   UNL     1       3.677   7.035  17.451  0.00  0.00    +0.000 A 
ATOM      7  C   UNL     1       3.149   8.266  17.788  0.00  0.00    +0.000 A 
ATOM      8  C   UNL     1       2.066   8.003  18.660  0.00  0.00    +0.000 A 
ATOM      9  N   UNL     1       1.890   6.681  18.812  0.00  0.00    +0.000 NA
ATOM     10  N   UNL     1       2.913   6.095  18.134  0.00  0.00    +0.000 N 
BRANCH  10  11
ATOM     11  C   UNL     1       3.133   4.699  18.257  0.00  0.00    +0.000 A 
ATOM     12  C   UNL     1       2.354   3.779  17.546  0.00  0.00    +0.000 A 
ATOM     13  C   UNL     1       2.588   2.409  17.659  0.00  0.00    +0.000 A 
ATOM     14  C   UNL     1       3.611   1.966  18.472  0.00  0.00    +0.000 A 
ATOM     15  F   UNL     1       3.848   0.647  18.572  0.00  0.00    +0.000 F 
ATOM     16  C   UNL     1       4.410   2.860  19.177  0.00  0.00    +0.000 A 
ATOM     17  C   UNL     1       4.177   4.226  19.069  0.00  0.00    +0.000 A 
ATOM     18  F   UNL     1       4.938   5.046  19.802  0.00  0.00    +0.000 F 
ENDBRANCH  10  11
ENDBRANCH   1   8
BRANCH   3  19
ATOM     19  C   UNL     1       0.553   9.728  21.588  0.00  0.00    +0.000 A 
ATOM     20  C   UNL     1      -0.194   9.445  22.753  0.00  0.00    +0.000 A 
ATOM     21  N   UNL     1      -0.794  10.528  23.255  0.00  0.00    +0.000 NA
ATOM     22  N   UNL     1      -0.415  11.521  22.422  0.00  0.00    +0.000 N 
ATOM     23  C   UNL     1       0.446  11.093  21.440  0.00  0.00    +0.000 A 
BRANCH  22  24
ATOM     24  C   UNL     1      -1.070  12.823  22.518  0.00  0.00    +0.000 C 
BRANCH  24  25
ATOM     25  C   UNL     1      -2.509  12.799  22.065  0.00  0.00    +0.000 A 
ATOM     26  C   UNL     1      -3.552  12.866  23.003  0.00  0.00    +0.000 A 
ATOM     27  C   UNL     1      -4.884  12.833  22.587  0.00  0.00    +0.000 A 
ATOM     28  C   UNL     1      -5.191  12.757  21.230  0.00  0.00    +0.000 A 
ATOM     29  C   UNL     1      -4.167  12.726  20.287  0.00  0.00    +0.000 A 
ATOM     30  C   UNL     1      -2.834  12.750  20.701  0.00  0.00    +0.000 A 
ENDBRANCH  24  25
ENDBRANCH  22  24
ENDBRANCH   3  19
TORSDOF 5
ENDMDL
