MODEL 1
REMARK VINA RESULT:      -8.1      0.000      0.000
REMARK  Name = 
REMARK  8 active torsions:
REMARK  status: ('A' for Active; 'I' for Inactive)
REMARK    1  A    between atoms: C_2  and  C_3
REMARK    2  A    between atoms: N_11  and  C_12
REMARK    3  A    between atoms: C_16  and  N_17
REMARK    4  A    between atoms: N_17  and  C_18
REMARK    5  A    between atoms: N_17  and  C_20
REMARK    6  A    between atoms: C_18  and  C_19
REMARK    7  A    between atoms: C_20  and  C_21
REMARK    8  A    between atoms: N_25  and  C_26
REMARK                            x       y       z     vdW  Elec       q    Type
REMARK                         _______ _______ _______ _____ _____    ______ ____
ROOT
ATOM      1  C   UNL     1       2.800   5.631  18.435  0.00  0.00    +0.000 A 
ATOM      2  C   UNL     1       1.924   4.555  18.273  0.00  0.00    +0.000 A 
ATOM      3  C   UNL     1       2.227   3.510  17.404  0.00  0.00    +0.000 A 
ATOM      4  C   UNL     1       3.431   3.502  16.703  0.00  0.00    +0.000 A 
ATOM      5  C   UNL     1       4.373   4.525  16.870  0.00  0.00    +0.000 A 
ATOM      6  C   UNL     1       4.022   5.593  17.734  0.00  0.00    +0.000 A 
ENDROOT
BRANCH   1  15
ATOM      7  C   UNL     1       0.863  10.045  19.664  0.00  0.00    +0.000 A 
ATOM      8  N   UNL     1       0.052  10.433  20.683  0.00  0.00    +0.000 NA
ATOM      9  C   UNL     1      -0.158   9.577  21.716  0.00  0.00    +0.000 A 
ATOM     10  F   UNL     1      -0.995   9.976  22.684  0.00  0.00    +0.000 F 
ATOM     11  C   UNL     1       0.399   8.324  21.808  0.00  0.00    +0.000 A 
ATOM     12  C   UNL     1       1.212   7.976  20.755  0.00  0.00    +0.000 A 
ATOM     13  C   UNL     1       1.466   8.809  19.675  0.00  0.00    +0.000 A 
ATOM     14  C   UNL     1       2.345   8.107  18.694  0.00  0.00    +0.000 C 
ATOM     15  N   UNL     1       2.418   6.751  19.228  0.00  0.00    +0.000 N 
ATOM     16  C   UNL     1       1.835   6.679  20.497  0.00  0.00    +0.000 C 
ATOM     17  O   UNL     1       1.756   5.765  21.295  0.00  0.00    +0.000 OA
BRANCH   7  19
ATOM     18  C   UNL     1       1.452  12.246  18.686  0.00  0.00    +0.000 C 
ATOM     19  C   UNL     1       1.014  10.985  18.547  0.00  0.00    +0.000 C 
ENDBRANCH   7  19
ENDBRANCH   1  15
BRANCH   5  20
ATOM     20  N   UNL     1       5.639   4.507  16.238  0.00  0.00    +0.000 N 
BRANCH  20  21
ATOM     21  C   UNL     1       5.911   3.523  15.169  0.00  0.00    +0.000 C 
ATOM     22  C   UNL     1       5.719   4.108  13.777  0.00  0.00    +0.000 C 
ENDBRANCH  20  21
BRANCH  20  23
ATOM     23  C   UNL     1       6.743   4.603  17.235  0.00  0.00    +0.000 C 
BRANCH  23  24
ATOM     24  C   UNL     1       7.328   5.959  17.477  0.00  0.00    +0.000 A 
ATOM     25  N   UNL     1       7.346   6.949  16.603  0.00  0.00    +0.000 NA
ATOM     26  N   UNL     1       7.908   8.048  17.205  0.00  0.00    +0.000 NA
ATOM     27  C   UNL     1       8.221   7.710  18.432  0.00  0.00    +0.000 A 
ATOM     28  N   UNL     1       7.883   6.408  18.648  0.00  0.00    +0.000 N 
ATOM     29  C   UNL     1       8.083   5.690  19.877  0.00  0.00    +0.000 C 
ENDBRANCH  23  24
ENDBRANCH  20  23
ENDBRANCH   5  20
TORSDOF 6
ENDMDL
MODEL 2
REMARK VINA RESULT:      -8.1      1.598      2.374
REMARK  Name = 
REMARK  8 active torsions:
REMARK  status: ('A' for Active; 'I' for Inactive)
REMARK    1  A    between atoms: C_2  and  C_3
REMARK    2  A    between atoms: N_11  and  C_12
REMARK    3  A    between atoms: C_16  and  N_17
REMARK    4  A    between atoms: N_17  and  C_18
REMARK    5  A    between atoms: N_17  and  C_20
REMARK    6  A    between atoms: C_18  and  C_19
REMARK    7  A    between atoms: C_20  and  C_21
REMARK    8  A    between atoms: N_25  and  C_26
REMARK                            x       y       z     vdW  Elec       q    Type
REMARK                         _______ _______ _______ _____ _____    ______ ____
ROOT
ATOM      1  C   UNL     1       2.999   6.079  19.031  0.00  0.00    +0.000 A 
ATOM      2  C   UNL     1       2.964   5.041  19.966  0.00  0.00    +0.000 A 
ATOM      3  C   UNL     1       3.687   3.869  19.762  0.00  0.00    +0.000 A 
ATOM      4  C   UNL     1       4.491   3.724  18.633  0.00  0.00    +0.000 A 
ATOM      5  C   UNL     1       4.610   4.754  17.691  0.00  0.00    +0.000 A 
ATOM      6  C   UNL     1       3.835   5.922  17.908  0.00  0.00    +0.000 A 
ENDROOT
BRANCH   1  15
ATOM      7  C   UNL     1       0.630   9.868  21.217  0.00  0.00    +0.000 A 
ATOM      8  N   UNL     1       0.482  11.173  20.869  0.00  0.00    +0.000 NA
ATOM      9  C   UNL     1       0.837  11.562  19.618  0.00  0.00    +0.000 A 
ATOM     10  F   UNL     1       0.716  12.864  19.322  0.00  0.00    +0.000 F 
ATOM     11  C   UNL     1       1.345  10.719  18.660  0.00  0.00    +0.000 A 
ATOM     12  C   UNL     1       1.476   9.408  19.057  0.00  0.00    +0.000 A 
ATOM     13  C   UNL     1       1.128   8.952  20.320  0.00  0.00    +0.000 A 
ATOM     14  C   UNL     1       1.441   7.497  20.434  0.00  0.00    +0.000 C 
ATOM     15  N   UNL     1       2.156   7.216  19.193  0.00  0.00    +0.000 N 
ATOM     16  C   UNL     1       2.102   8.310  18.323  0.00  0.00    +0.000 C 
ATOM     17  O   UNL     1       2.504   8.453  17.184  0.00  0.00    +0.000 OA
BRANCH   7  19
ATOM     18  C   UNL     1      -0.675  10.125  23.310  0.00  0.00    +0.000 C 
ATOM     19  C   UNL     1       0.282   9.510  22.598  0.00  0.00    +0.000 C 
ENDBRANCH   7  19
ENDBRANCH   1  15
BRANCH   5  20
ATOM     20  N   UNL     1       5.479   4.674  16.577  0.00  0.00    +0.000 N 
BRANCH  20  21
ATOM     21  C   UNL     1       5.229   3.666  15.524  0.00  0.00    +0.000 C 
ATOM     22  C   UNL     1       6.067   3.908  14.276  0.00  0.00    +0.000 C 
ENDBRANCH  20  21
BRANCH  20  23
ATOM     23  C   UNL     1       6.907   4.732  16.999  0.00  0.00    +0.000 C 
BRANCH  23  24
ATOM     24  C   UNL     1       7.444   6.067  17.408  0.00  0.00    +0.000 A 
ATOM     25  N   UNL     1       7.529   7.128  16.624  0.00  0.00    +0.000 NA
ATOM     26  N   UNL     1       8.013   8.177  17.366  0.00  0.00    +0.000 NA
ATOM     27  C   UNL     1       8.213   7.740  18.585  0.00  0.00    +0.000 A 
ATOM     28  N   UNL     1       7.877   6.422  18.659  0.00  0.00    +0.000 N 
ATOM     29  C   UNL     1       7.970   5.605  19.838  0.00  0.00    +0.000 C 
ENDBRANCH  23  24
ENDBRANCH  20  23
ENDBRANCH   5  20
TORSDOF 6
ENDMDL
MODEL 3
REMARK VINA RESULT:      -7.9      3.772      8.927
REMARK  Name = 
REMARK  8 active torsions:
REMARK  status: ('A' for Active; 'I' for Inactive)
REMARK    1  A    between atoms: C_2  and  C_3
REMARK    2  A    between atoms: N_11  and  C_12
REMARK    3  A    between atoms: C_16  and  N_17
REMARK    4  A    between atoms: N_17  and  C_18
REMARK    5  A    between atoms: N_17  and  C_20
REMARK    6  A    between atoms: C_18  and  C_19
REMARK    7  A    between atoms: C_20  and  C_21
REMARK    8  A    between atoms: N_25  and  C_26
REMARK                            x       y       z     vdW  Elec       q    Type
REMARK                         _______ _______ _______ _____ _____    ______ ____
ROOT
ATOM      1  C   UNL     1       1.057   8.675  20.512  0.00  0.00    +0.000 A 
ATOM      2  C   UNL     1       0.814   8.926  21.864  0.00  0.00    +0.000 A 
ATOM      3  C   UNL     1       0.240  10.124  22.278  0.00  0.00    +0.000 A 
ATOM      4  C   UNL     1      -0.137  11.086  21.342  0.00  0.00    +0.000 A 
ATOM      5  C   UNL     1       0.030  10.865  19.970  0.00  0.00    +0.000 A 
ATOM      6  C   UNL     1       0.650   9.650  19.580  0.00  0.00    +0.000 A 
ENDROOT
BRANCH   1  15
ATOM      7  C   UNL     1       2.020   3.870  19.656  0.00  0.00    +0.000 A 
ATOM      8  N   UNL     1       2.543   3.222  18.583  0.00  0.00    +0.000 NA
ATOM      9  C   UNL     1       3.125   3.952  17.596  0.00  0.00    +0.000 A 
ATOM     10  F   UNL     1       3.594   3.283  16.533  0.00  0.00    +0.000 F 
ATOM     11  C   UNL     1       3.225   5.322  17.603  0.00  0.00    +0.000 A 
ATOM     12  C   UNL     1       2.682   5.934  18.709  0.00  0.00    +0.000 A 
ATOM     13  C   UNL     1       2.079   5.241  19.749  0.00  0.00    +0.000 A 
ATOM     14  C   UNL     1       1.557   6.206  20.761  0.00  0.00    +0.000 C 
ATOM     15  N   UNL     1       1.761   7.500  20.117  0.00  0.00    +0.000 N 
ATOM     16  C   UNL     1       2.513   7.365  18.946  0.00  0.00    +0.000 C 
ATOM     17  O   UNL     1       2.952   8.195  18.172  0.00  0.00    +0.000 OA
BRANCH   7  19
ATOM     18  C   UNL     1       1.954   2.603  21.787  0.00  0.00    +0.000 C 
ATOM     19  C   UNL     1       1.355   3.039  20.668  0.00  0.00    +0.000 C 
ENDBRANCH   7  19
ENDBRANCH   1  15
BRANCH   5  20
ATOM     20  N   UNL     1      -0.415  11.783  18.989  0.00  0.00    +0.000 N 
BRANCH  20  21
ATOM     21  C   UNL     1       0.351  13.024  18.745  0.00  0.00    +0.000 C 
ATOM     22  C   UNL     1      -0.409  14.271  19.174  0.00  0.00    +0.000 C 
ENDBRANCH  20  21
BRANCH  20  23
ATOM     23  C   UNL     1      -1.884  12.016  19.092  0.00  0.00    +0.000 C 
BRANCH  23  24
ATOM     24  C   UNL     1      -2.718  11.646  17.906  0.00  0.00    +0.000 A 
ATOM     25  N   UNL     1      -2.251  11.201  16.754  0.00  0.00    +0.000 NA
ATOM     26  N   UNL     1      -3.316  10.912  15.937  0.00  0.00    +0.000 NA
ATOM     27  C   UNL     1      -4.411  11.184  16.604  0.00  0.00    +0.000 A 
ATOM     28  N   UNL     1      -4.087  11.653  17.841  0.00  0.00    +0.000 N 
ATOM     29  C   UNL     1      -5.029  12.058  18.849  0.00  0.00    +0.000 C 
ENDBRANCH  23  24
ENDBRANCH  20  23
ENDBRANCH   5  20
TORSDOF 6
ENDMDL
MODEL 4
REMARK VINA RESULT:      -7.9      4.319      9.666
REMARK  Name = 
REMARK  8 active torsions:
REMARK  status: ('A' for Active; 'I' for Inactive)
REMARK    1  A    between atoms: C_2  and  C_3
REMARK    2  A    between atoms: N_11  and  C_12
REMARK    3  A    between atoms: C_16  and  N_17
REMARK    4  A    between atoms: N_17  and  C_18
REMARK    5  A    between atoms: N_17  and  C_20
REMARK    6  A    between atoms: C_18  and  C_19
REMARK    7  A    between atoms: C_20  and  C_21
REMARK    8  A    between atoms: N_25  and  C_26
REMARK                            x       y       z     vdW  Elec       q    Type
REMARK                         _______ _______ _______ _____ _____    ______ ____
ROOT
ATOM      1  C   UNL     1       0.509   9.742  19.884  0.00  0.00    +0.000 A 
ATOM      2  C   UNL     1       0.689  10.654  20.927  0.00  0.00    +0.000 A 
ATOM      3  C   UNL     1      -0.159  11.748  21.075  0.00  0.00    +0.000 A 
ATOM      4  C   UNL     1      -1.229  11.934  20.202  0.00  0.00    +0.000 A 
ATOM      5  C   UNL     1      -1.491  11.022  19.173  0.00  0.00    +0.000 A 
ATOM      6  C   UNL     1      -0.590   9.936  19.026  0.00  0.00    +0.000 A 
ENDROOT
BRANCH   1  15
ATOM      7  C   UNL     1       2.598   5.228  19.980  0.00  0.00    +0.000 A 
ATOM      8  N   UNL     1       3.198   4.481  19.018  0.00  0.00    +0.000 NA
ATOM      9  C   UNL     1       3.513   5.067  17.834  0.00  0.00    +0.000 A 
ATOM     10  F   UNL     1       4.067   4.290  16.892  0.00  0.00    +0.000 F 
ATOM     11  C   UNL     1       3.264   6.383  17.532  0.00  0.00    +0.000 A 
ATOM     12  C   UNL     1       2.656   7.100  18.536  0.00  0.00    +0.000 A 
ATOM     13  C   UNL     1       2.314   6.557  19.766  0.00  0.00    +0.000 A 
ATOM     14  C   UNL     1       1.631   7.589  20.600  0.00  0.00    +0.000 C 
ATOM     15  N   UNL     1       1.460   8.702  19.672  0.00  0.00    +0.000 N 
ATOM     16  C   UNL     1       2.146   8.468  18.476  0.00  0.00    +0.000 C 
ATOM     17  O   UNL     1       2.311   9.167  17.493  0.00  0.00    +0.000 OA
BRANCH   7  19
ATOM     18  C   UNL     1       2.174   3.199  21.341  0.00  0.00    +0.000 C 
ATOM     19  C   UNL     1       2.230   4.534  21.221  0.00  0.00    +0.000 C 
ENDBRANCH   7  19
ENDBRANCH   1  15
BRANCH   5  20
ATOM     20  N   UNL     1      -2.615  11.134  18.320  0.00  0.00    +0.000 N 
BRANCH  20  21
ATOM     21  C   UNL     1      -2.418  11.217  16.857  0.00  0.00    +0.000 C 
ATOM     22  C   UNL     1      -2.856   9.949  16.138  0.00  0.00    +0.000 C 
ENDBRANCH  20  21
BRANCH  20  23
ATOM     23  C   UNL     1      -3.587  12.140  18.835  0.00  0.00    +0.000 C 
BRANCH  23  24
ATOM     24  C   UNL     1      -5.037  11.780  18.775  0.00  0.00    +0.000 A 
ATOM     25  N   UNL     1      -5.517  10.601  18.421  0.00  0.00    +0.000 NA
ATOM     26  N   UNL     1      -6.884  10.634  18.548  0.00  0.00    +0.000 NA
ATOM     27  C   UNL     1      -7.213  11.827  18.976  0.00  0.00    +0.000 A 
ATOM     28  N   UNL     1      -6.091  12.584  19.128  0.00  0.00    +0.000 N 
ATOM     29  C   UNL     1      -6.062  13.950  19.577  0.00  0.00    +0.000 C 
ENDBRANCH  23  24
ENDBRANCH  20  23
ENDBRANCH   5  20
TORSDOF 6
ENDMDL
MODEL 5
REMARK VINA RESULT:      -7.8      3.648      8.304
REMARK  Name = 
REMARK  8 active torsions:
REMARK  status: ('A' for Active; 'I' for Inactive)
REMARK    1  A    between atoms: C_2  and  C_3
REMARK    2  A    between atoms: N_11  and  C_12
REMARK    3  A    between atoms: C_16  and  N_17
REMARK    4  A    between atoms: N_17  and  C_18
REMARK    5  A    between atoms: N_17  and  C_20
REMARK    6  A    between atoms: C_18  and  C_19
REMARK    7  A    between atoms: C_20  and  C_21
REMARK    8  A    between atoms: N_25  and  C_26
REMARK                            x       y       z     vdW  Elec       q    Type
REMARK                         _______ _______ _______ _____ _____    ______ ____
ROOT
ATOM      1  C   UNL     1       0.953   9.519  19.325  0.00  0.00    +0.000 A 
ATOM      2  C   UNL     1       0.067   9.746  18.269  0.00  0.00    +0.000 A 
ATOM      3  C   UNL     1      -0.879  10.766  18.336  0.00  0.00    +0.000 A 
ATOM      4  C   UNL     1      -0.935  11.605  19.447  0.00  0.00    +0.000 A 
ATOM      5  C   UNL     1      -0.034  11.460  20.509  0.00  0.00    +0.000 A 
ATOM      6  C   UNL     1       0.895  10.391  20.429  0.00  0.00    +0.000 A 
ENDROOT
BRANCH   1  15
ATOM      7  C   UNL     1       2.629   4.883  19.993  0.00  0.00    +0.000 A 
ATOM      8  N   UNL     1       3.254   4.011  19.161  0.00  0.00    +0.000 NA
ATOM      9  C   UNL     1       3.731   4.465  17.973  0.00  0.00    +0.000 A 
ATOM     10  F   UNL     1       4.306   3.569  17.159  0.00  0.00    +0.000 F 
ATOM     11  C   UNL     1       3.626   5.766  17.544  0.00  0.00    +0.000 A 
ATOM     12  C   UNL     1       2.987   6.612  18.420  0.00  0.00    +0.000 A 
ATOM     13  C   UNL     1       2.482   6.206  19.647  0.00  0.00    +0.000 A 
ATOM     14  C   UNL     1       1.811   7.357  20.321  0.00  0.00    +0.000 C 
ATOM     15  N   UNL     1       1.828   8.394  19.295  0.00  0.00    +0.000 N 
ATOM     16  C   UNL     1       2.604   8.005  18.199  0.00  0.00    +0.000 C 
ATOM     17  O   UNL     1       2.923   8.601  17.188  0.00  0.00    +0.000 OA
BRANCH   7  19
ATOM     18  C   UNL     1       2.058   3.019  21.526  0.00  0.00    +0.000 C 
ATOM     19  C   UNL     1       2.084   4.330  21.240  0.00  0.00    +0.000 C 
ENDBRANCH   7  19
ENDBRANCH   1  15
BRANCH   5  20
ATOM     20  N   UNL     1      -0.009  12.343  21.615  0.00  0.00    +0.000 N 
BRANCH  20  21
ATOM     21  C   UNL     1      -1.075  12.269  22.637  0.00  0.00    +0.000 C 
ATOM     22  C   UNL     1      -1.259  10.861  23.185  0.00  0.00    +0.000 C 
ENDBRANCH  20  21
BRANCH  20  23
ATOM     23  C   UNL     1       0.290  13.739  21.186  0.00  0.00    +0.000 C 
BRANCH  23  24
ATOM     24  C   UNL     1       1.727  14.153  21.163  0.00  0.00    +0.000 A 
ATOM     25  N   UNL     1       2.406  14.611  22.200  0.00  0.00    +0.000 NA
ATOM     26  N   UNL     1       3.705  14.826  21.807  0.00  0.00    +0.000 NA
ATOM     27  C   UNL     1       3.795  14.494  20.543  0.00  0.00    +0.000 A 
ATOM     28  N   UNL     1       2.580  14.072  20.093  0.00  0.00    +0.000 N 
ATOM     29  C   UNL     1       2.296  13.634  18.753  0.00  0.00    +0.000 C 
ENDBRANCH  23  24
ENDBRANCH  20  23
ENDBRANCH   5  20
TORSDOF 6
ENDMDL
MODEL 6
REMARK VINA RESULT:      -7.7      2.331      4.385
REMARK  Name = 
REMARK  8 active torsions:
REMARK  status: ('A' for Active; 'I' for Inactive)
REMARK    1  A    between atoms: C_2  and  C_3
REMARK    2  A    between atoms: N_11  and  C_12
REMARK    3  A    between atoms: C_16  and  N_17
REMARK    4  A    between atoms: N_17  and  C_18
REMARK    5  A    between atoms: N_17  and  C_20
REMARK    6  A    between atoms: C_18  and  C_19
REMARK    7  A    between atoms: C_20  and  C_21
REMARK    8  A    between atoms: N_25  and  C_26
REMARK                            x       y       z     vdW  Elec       q    Type
REMARK                         _______ _______ _______ _____ _____    ______ ____
ROOT
ATOM      1  C   UNL     1       1.334   9.102  19.895  0.00  0.00    +0.000 A 
ATOM      2  C   UNL     1       1.479   9.523  18.571  0.00  0.00    +0.000 A 
ATOM      3  C   UNL     1       2.076   8.700  17.620  0.00  0.00    +0.000 A 
ATOM      4  C   UNL     1       2.511   7.421  17.967  0.00  0.00    +0.000 A 
ATOM      5  C   UNL     1       2.340   6.926  19.265  0.00  0.00    +0.000 A 
ATOM      6  C   UNL     1       1.760   7.799  20.220  0.00  0.00    +0.000 A 
ENDROOT
BRANCH   1  15
ATOM      7  C   UNL     1      -0.371  13.294  21.961  0.00  0.00    +0.000 A 
ATOM      8  N   UNL     1      -1.431  13.545  22.773  0.00  0.00    +0.000 NA
ATOM      9  C   UNL     1      -2.083  12.498  23.341  0.00  0.00    +0.000 A 
ATOM     10  F   UNL     1      -3.149  12.779  24.104  0.00  0.00    +0.000 F 
ATOM     11  C   UNL     1      -1.744  11.180  23.152  0.00  0.00    +0.000 A 
ATOM     12  C   UNL     1      -0.666  10.976  22.323  0.00  0.00    +0.000 A 
ATOM     13  C   UNL     1       0.040  12.005  21.717  0.00  0.00    +0.000 A 
ATOM     14  C   UNL     1       1.114  11.436  20.850  0.00  0.00    +0.000 C 
ATOM     15  N   UNL     1       0.838  10.003  20.882  0.00  0.00    +0.000 N 
ATOM     16  C   UNL     1      -0.150   9.703  21.824  0.00  0.00    +0.000 C 
ATOM     17  O   UNL     1      -0.606   8.640  22.200  0.00  0.00    +0.000 OA
BRANCH   7  19
ATOM     18  C   UNL     1       1.328  15.096  21.840  0.00  0.00    +0.000 C 
ATOM     19  C   UNL     1       0.265  14.457  21.329  0.00  0.00    +0.000 C 
ENDBRANCH   7  19
ENDBRANCH   1  15
BRANCH   5  20
ATOM     20  N   UNL     1       2.694   5.606  19.631  0.00  0.00    +0.000 N 
BRANCH  20  21
ATOM     21  C   UNL     1       2.043   4.969  20.797  0.00  0.00    +0.000 C 
ATOM     22  C   UNL     1       1.076   3.866  20.392  0.00  0.00    +0.000 C 
ENDBRANCH  20  21
BRANCH  20  23
ATOM     23  C   UNL     1       4.173   5.417  19.615  0.00  0.00    +0.000 C 
BRANCH  23  24
ATOM     24  C   UNL     1       4.774   4.845  18.371  0.00  0.00    +0.000 A 
ATOM     25  N   UNL     1       4.135   4.101  17.487  0.00  0.00    +0.000 NA
ATOM     26  N   UNL     1       4.996   3.817  16.455  0.00  0.00    +0.000 NA
ATOM     27  C   UNL     1       6.141   4.393  16.726  0.00  0.00    +0.000 A 
ATOM     28  N   UNL     1       6.054   5.045  17.919  0.00  0.00    +0.000 N 
ATOM     29  C   UNL     1       7.116   5.786  18.542  0.00  0.00    +0.000 C 
ENDBRANCH  23  24
ENDBRANCH  20  23
ENDBRANCH   5  20
TORSDOF 6
ENDMDL
MODEL 7
REMARK VINA RESULT:      -7.7      3.320      8.444
REMARK  Name = 
REMARK  8 active torsions:
REMARK  status: ('A' for Active; 'I' for Inactive)
REMARK    1  A    between atoms: C_2  and  C_3
REMARK    2  A    between atoms: N_11  and  C_12
REMARK    3  A    between atoms: C_16  and  N_17
REMARK    4  A    between atoms: N_17  and  C_18
REMARK    5  A    between atoms: N_17  and  C_20
REMARK    6  A    between atoms: C_18  and  C_19
REMARK    7  A    between atoms: C_20  and  C_21
REMARK    8  A    between atoms: N_25  and  C_26
REMARK                            x       y       z     vdW  Elec       q    Type
REMARK                         _______ _______ _______ _____ _____    ______ ____
ROOT
ATOM      1  C   UNL     1       1.584   8.028  20.253  0.00  0.00    +0.000 A 
ATOM      2  C   UNL     1       1.488   8.250  21.629  0.00  0.00    +0.000 A 
ATOM      3  C   UNL     1       0.960   9.439  22.127  0.00  0.00    +0.000 A 
ATOM      4  C   UNL     1       0.484  10.418  21.257  0.00  0.00    +0.000 A 
ATOM      5  C   UNL     1       0.503  10.226  19.870  0.00  0.00    +0.000 A 
ATOM      6  C   UNL     1       1.078   9.021  19.392  0.00  0.00    +0.000 A 
ENDROOT
BRANCH   1  15
ATOM      7  C   UNL     1       5.251   4.966  18.866  0.00  0.00    +0.000 A 
ATOM      8  N   UNL     1       5.497   3.657  19.136  0.00  0.00    +0.000 NA
ATOM      9  C   UNL     1       4.519   2.912  19.714  0.00  0.00    +0.000 A 
ATOM     10  F   UNL     1       4.810   1.636  20.003  0.00  0.00    +0.000 F 
ATOM     11  C   UNL     1       3.277   3.392  20.051  0.00  0.00    +0.000 A 
ATOM     12  C   UNL     1       3.074   4.721  19.759  0.00  0.00    +0.000 A 
ATOM     13  C   UNL     1       4.033   5.530  19.167  0.00  0.00    +0.000 A 
ATOM     14  C   UNL     1       3.506   6.921  19.035  0.00  0.00    +0.000 C 
ATOM     15  N   UNL     1       2.242   6.864  19.761  0.00  0.00    +0.000 N 
ATOM     16  C   UNL     1       1.923   5.549  20.113  0.00  0.00    +0.000 C 
ATOM     17  O   UNL     1       0.940   5.076  20.652  0.00  0.00    +0.000 OA
BRANCH   7  19
ATOM     18  C   UNL     1       7.558   5.875  18.879  0.00  0.00    +0.000 C 
ATOM     19  C   UNL     1       6.358   5.740  18.292  0.00  0.00    +0.000 C 
ENDBRANCH   7  19
ENDBRANCH   1  15
BRANCH   5  20
ATOM     20  N   UNL     1      -0.045  11.162  18.962  0.00  0.00    +0.000 N 
BRANCH  20  21
ATOM     21  C   UNL     1       0.622  12.467  18.763  0.00  0.00    +0.000 C 
ATOM     22  C   UNL     1       2.096  12.320  18.414  0.00  0.00    +0.000 C 
ENDBRANCH  20  21
BRANCH  20  23
ATOM     23  C   UNL     1      -1.521  11.284  19.134  0.00  0.00    +0.000 C 
BRANCH  23  24
ATOM     24  C   UNL     1      -2.361  11.206  17.899  0.00  0.00    +0.000 A 
ATOM     25  N   UNL     1      -1.942  10.790  16.717  0.00  0.00    +0.000 NA
ATOM     26  N   UNL     1      -3.008  10.803  15.850  0.00  0.00    +0.000 NA
ATOM     27  C   UNL     1      -4.054  11.224  16.518  0.00  0.00    +0.000 A 
ATOM     28  N   UNL     1      -3.698  11.495  17.804  0.00  0.00    +0.000 N 
ATOM     29  C   UNL     1      -4.582  11.982  18.827  0.00  0.00    +0.000 C 
ENDBRANCH  23  24
ENDBRANCH  20  23
ENDBRANCH   5  20
TORSDOF 6
ENDMDL
MODEL 8
REMARK VINA RESULT:      -7.7      3.632      8.708
REMARK  Name = 
REMARK  8 active torsions:
REMARK  status: ('A' for Active; 'I' for Inactive)
REMARK    1  A    between atoms: C_2  and  C_3
REMARK    2  A    between atoms: N_11  and  C_12
REMARK    3  A    between atoms: C_16  and  N_17
REMARK    4  A    between atoms: N_17  and  C_18
REMARK    5  A    between atoms: N_17  and  C_20
REMARK    6  A    between atoms: C_18  and  C_19
REMARK    7  A    between atoms: C_20  and  C_21
REMARK    8  A    between atoms: N_25  and  C_26
REMARK                            x       y       z     vdW  Elec       q    Type
REMARK                         _______ _______ _______ _____ _____    ______ ____
ROOT
ATOM      1  C   UNL     1       2.180   7.892  19.054  0.00  0.00    +0.000 A 
ATOM      2  C   UNL     1       2.356   8.646  17.891  0.00  0.00    +0.000 A 
ATOM      3  C   UNL     1       1.768   9.900  17.756  0.00  0.00    +0.000 A 
ATOM      4  C   UNL     1       1.018  10.444  18.797  0.00  0.00    +0.000 A 
ATOM      5  C   UNL     1       0.856   9.758  20.007  0.00  0.00    +0.000 A 
ATOM      6  C   UNL     1       1.436   8.468  20.103  0.00  0.00    +0.000 A 
ENDROOT
BRANCH   1  15
ATOM      7  C   UNL     1       2.263   2.957  19.676  0.00  0.00    +0.000 A 
ATOM      8  N   UNL     1       2.801   1.953  18.934  0.00  0.00    +0.000 NA
ATOM      9  C   UNL     1       3.662   2.268  17.932  0.00  0.00    +0.000 A 
ATOM     10  F   UNL     1       4.141   1.256  17.195  0.00  0.00    +0.000 F 
ATOM     11  C   UNL     1       4.036   3.549  17.607  0.00  0.00    +0.000 A 
ATOM     12  C   UNL     1       3.468   4.530  18.385  0.00  0.00    +0.000 A 
ATOM     13  C   UNL     1       2.585   4.270  19.423  0.00  0.00    +0.000 A 
ATOM     14  C   UNL     1       2.122   5.555  20.025  0.00  0.00    +0.000 C 
ATOM     15  N   UNL     1       2.681   6.560  19.126  0.00  0.00    +0.000 N 
ATOM     16  C   UNL     1       3.559   5.978  18.206  0.00  0.00    +0.000 C 
ATOM     17  O   UNL     1       4.270   6.470  17.351  0.00  0.00    +0.000 OA
BRANCH   7  19
ATOM     18  C   UNL     1       1.591   2.498  22.018  0.00  0.00    +0.000 C 
ATOM     19  C   UNL     1       1.297   2.567  20.711  0.00  0.00    +0.000 C 
ENDBRANCH   7  19
ENDBRANCH   1  15
BRANCH   5  20
ATOM     20  N   UNL     1       0.171  10.314  21.114  0.00  0.00    +0.000 N 
BRANCH  20  21
ATOM     21  C   UNL     1      -0.519   9.423  22.072  0.00  0.00    +0.000 C 
ATOM     22  C   UNL     1       0.070   9.507  23.473  0.00  0.00    +0.000 C 
ENDBRANCH  20  21
BRANCH  20  23
ATOM     23  C   UNL     1      -0.658  11.484  20.706  0.00  0.00    +0.000 C 
BRANCH  23  24
ATOM     24  C   UNL     1      -0.603  12.697  21.580  0.00  0.00    +0.000 A 
ATOM     25  N   UNL     1       0.482  13.405  21.835  0.00  0.00    +0.000 NA
ATOM     26  N   UNL     1       0.128  14.472  22.624  0.00  0.00    +0.000 NA
ATOM     27  C   UNL     1      -1.163  14.397  22.834  0.00  0.00    +0.000 A 
ATOM     28  N   UNL     1      -1.665  13.298  22.206  0.00  0.00    +0.000 N 
ATOM     29  C   UNL     1      -3.044  12.889  22.219  0.00  0.00    +0.000 C 
ENDBRANCH  23  24
ENDBRANCH  20  23
ENDBRANCH   5  20
TORSDOF 6
ENDMDL
MODEL 9
REMARK VINA RESULT:      -7.7      1.959      3.580
REMARK  Name = 
REMARK  8 active torsions:
REMARK  status: ('A' for Active; 'I' for Inactive)
REMARK    1  A    between atoms: C_2  and  C_3
REMARK    2  A    between atoms: N_11  and  C_12
REMARK    3  A    between atoms: C_16  and  N_17
REMARK    4  A    between atoms: N_17  and  C_18
REMARK    5  A    between atoms: N_17  and  C_20
REMARK    6  A    between atoms: C_18  and  C_19
REMARK    7  A    between atoms: C_20  and  C_21
REMARK    8  A    between atoms: N_25  and  C_26
REMARK                            x       y       z     vdW  Elec       q    Type
REMARK                         _______ _______ _______ _____ _____    ______ ____
ROOT
ATOM      1  C   UNL     1       3.035   6.007  19.224  0.00  0.00    +0.000 A 
ATOM      2  C   UNL     1       2.742   4.860  19.966  0.00  0.00    +0.000 A 
ATOM      3  C   UNL     1       3.472   3.688  19.790  0.00  0.00    +0.000 A 
ATOM      4  C   UNL     1       4.537   3.648  18.891  0.00  0.00    +0.000 A 
ATOM      5  C   UNL     1       4.912   4.783  18.162  0.00  0.00    +0.000 A 
ATOM      6  C   UNL     1       4.128   5.952  18.337  0.00  0.00    +0.000 A 
ENDROOT
BRANCH   1  15
ATOM      7  C   UNL     1       0.703   9.933  21.198  0.00  0.00    +0.000 A 
ATOM      8  N   UNL     1       0.559  11.215  20.774  0.00  0.00    +0.000 NA
ATOM      9  C   UNL     1       0.906  11.527  19.499  0.00  0.00    +0.000 A 
ATOM     10  F   UNL     1       0.789  12.809  19.126  0.00  0.00    +0.000 F 
ATOM     11  C   UNL     1       1.401  10.625  18.589  0.00  0.00    +0.000 A 
ATOM     12  C   UNL     1       1.529   9.340  19.063  0.00  0.00    +0.000 A 
ATOM     13  C   UNL     1       1.189   8.962  20.353  0.00  0.00    +0.000 A 
ATOM     14  C   UNL     1       1.496   7.514  20.552  0.00  0.00    +0.000 C 
ATOM     15  N   UNL     1       2.199   7.156  19.324  0.00  0.00    +0.000 N 
ATOM     16  C   UNL     1       2.143   8.196  18.391  0.00  0.00    +0.000 C 
ATOM     17  O   UNL     1       2.536   8.268  17.242  0.00  0.00    +0.000 OA
BRANCH   7  19
ATOM     18  C   UNL     1      -0.747  10.109  23.202  0.00  0.00    +0.000 C 
ATOM     19  C   UNL     1       0.366   9.660  22.601  0.00  0.00    +0.000 C 
ENDBRANCH   7  19
ENDBRANCH   1  15
BRANCH   5  20
ATOM     20  N   UNL     1       6.036   4.802  17.303  0.00  0.00    +0.000 N 
BRANCH  20  21
ATOM     21  C   UNL     1       6.984   5.936  17.362  0.00  0.00    +0.000 C 
ATOM     22  C   UNL     1       7.792   5.953  18.653  0.00  0.00    +0.000 C 
ENDBRANCH  20  21
BRANCH  20  23
ATOM     23  C   UNL     1       5.660   4.430  15.910  0.00  0.00    +0.000 C 
BRANCH  23  24
ATOM     24  C   UNL     1       6.613   4.809  14.822  0.00  0.00    +0.000 A 
ATOM     25  N   UNL     1       7.663   5.598  14.967  0.00  0.00    +0.000 NA
ATOM     26  N   UNL     1       8.327   5.662  13.767  0.00  0.00    +0.000 NA
ATOM     27  C   UNL     1       7.674   4.912  12.914  0.00  0.00    +0.000 A 
ATOM     28  N   UNL     1       6.589   4.361  13.526  0.00  0.00    +0.000 N 
ATOM     29  C   UNL     1       5.636   3.485  12.900  0.00  0.00    +0.000 C 
ENDBRANCH  23  24
ENDBRANCH  20  23
ENDBRANCH   5  20
TORSDOF 6
ENDMDL
