MODEL 1
REMARK VINA RESULT:      -8.2      0.000      0.000
REMARK  Name = 
REMARK  8 active torsions:
REMARK  status: ('A' for Active; 'I' for Inactive)
REMARK    1  A    between atoms: C_1  and  C_2
REMARK    2  A    between atoms: C_2  and  O_3
REMARK    3  A    between atoms: O_3  and  C_4
REMARK    4  A    between atoms: C_4  and  C_6
REMARK    5  A    between atoms: C_7  and  N_8
REMARK    6  A    between atoms: N_9  and  C_10
REMARK    7  A    between atoms: C_14  and  S_15
REMARK    8  A    between atoms: S_15  and  N_16
REMARK                            x       y       z     vdW  Elec       q    Type
REMARK                         _______ _______ _______ _____ _____    ______ ____
ROOT
ATOM      1  C   UNL     1       5.763   5.030  18.618  0.00  0.00    +0.000 A 
ATOM      2  C   UNL     1       4.978   5.786  17.734  0.00  0.00    +0.000 A 
ATOM      3  N   UNL     1       4.812   4.768  16.790  0.00  0.00    +0.000 N 
ATOM      4  C   UNL     1       4.187   3.807  17.594  0.00  0.00    +0.000 A 
ATOM      5  N   UNL     1       2.863   3.514  17.665  0.00  0.00    +0.000 NA
ATOM      6  C   UNL     1       2.486   3.211  18.935  0.00  0.00    +0.000 A 
ATOM      7  C   UNL     1       1.144   3.328  19.289  0.00  0.00    +0.000 A 
ATOM      8  C   UNL     1       0.699   3.109  20.598  0.00  0.00    +0.000 A 
ATOM      9  C   UNL     1       1.598   2.685  21.566  0.00  0.00    +0.000 A 
ATOM     10  C   UNL     1       2.949   2.571  21.237  0.00  0.00    +0.000 A 
ATOM     11  C   UNL     1       3.418   2.909  19.973  0.00  0.00    +0.000 A 
ATOM     12  N   UNL     1       4.747   3.078  19.828  0.00  0.00    +0.000 NA
ATOM     13  C   UNL     1       5.038   3.801  18.717  0.00  0.00    +0.000 A 
ENDROOT
BRANCH   3  14
ATOM     14  C   UNL     1       5.634   4.689  15.626  0.00  0.00    +0.000 A 
ATOM     15  C   UNL     1       6.870   5.383  15.656  0.00  0.00    +0.000 A 
ATOM     16  C   UNL     1       7.739   5.362  14.570  0.00  0.00    +0.000 A 
ATOM     17  C   UNL     1       7.370   4.675  13.423  0.00  0.00    +0.000 A 
ATOM     18  C   UNL     1       6.149   3.984  13.389  0.00  0.00    +0.000 A 
ATOM     19  C   UNL     1       5.284   3.949  14.501  0.00  0.00    +0.000 A 
BRANCH  18  20
ATOM     20  S   UNL     1       5.605   3.301  11.848  0.00  0.00    +0.000 S 
ATOM     21  O   UNL     1       4.163   3.315  11.829  0.00  0.00    +0.000 OA
ATOM     22  O   UNL     1       6.382   3.856  10.765  0.00  0.00    +0.000 OA
BRANCH  20  23
ATOM     23  N   UNL     1       6.058   1.692  11.960  0.00  0.00    +0.000 NA
ATOM     24  H   UNL     1       5.237   1.134  12.202  0.00  0.00    +0.000 HD
ATOM     25  H   UNL     1       6.489   1.404  11.080  0.00  0.00    +0.000 HD
ENDBRANCH  20  23
ENDBRANCH  18  20
ENDBRANCH   3  14
BRANCH   2  26
ATOM     26  N   UNL     1       3.915   6.639  17.930  0.00  0.00    +0.000 N 
ATOM     27  H   UNL     1       3.600   7.122  17.084  0.00  0.00    +0.000 HD
ATOM     28  H   UNL     1       3.066   6.157  18.253  0.00  0.00    +0.000 HD
ENDBRANCH   2  26
BRANCH   1  29
ATOM     29  C   UNL     1       7.067   5.428  19.087  0.00  0.00    +0.000 C 
ATOM     30  O   UNL     1       7.388   5.360  20.268  0.00  0.00    +0.000 OA
BRANCH  29  31
ATOM     31  O   UNL     1       7.748   6.140  18.148  0.00  0.00    +0.000 OA
BRANCH  31  33
ATOM     32  C   UNL     1       7.803   8.557  17.637  0.00  0.00    +0.000 C 
ATOM     33  C   UNL     1       8.223   7.431  18.567  0.00  0.00    +0.000 C 
ENDBRANCH  31  33
ENDBRANCH  29  31
ENDBRANCH   1  29
TORSDOF 7
ENDMDL
MODEL 2
REMARK VINA RESULT:      -7.8      8.951     11.425
REMARK  Name = 
REMARK  8 active torsions:
REMARK  status: ('A' for Active; 'I' for Inactive)
REMARK    1  A    between atoms: C_1  and  C_2
REMARK    2  A    between atoms: C_2  and  O_3
REMARK    3  A    between atoms: O_3  and  C_4
REMARK    4  A    between atoms: C_4  and  C_6
REMARK    5  A    between atoms: C_7  and  N_8
REMARK    6  A    between atoms: N_9  and  C_10
REMARK    7  A    between atoms: C_14  and  S_15
REMARK    8  A    between atoms: S_15  and  N_16
REMARK                            x       y       z     vdW  Elec       q    Type
REMARK                         _______ _______ _______ _____ _____    ______ ____
ROOT
ATOM      1  C   UNL     1       0.899  10.684  20.136  0.00  0.00    +0.000 A 
ATOM      2  C   UNL     1       0.898  10.568  18.737  0.00  0.00    +0.000 A 
ATOM      3  N   UNL     1      -0.071  11.551  18.517  0.00  0.00    +0.000 N 
ATOM      4  C   UNL     1       0.574  12.648  19.102  0.00  0.00    +0.000 A 
ATOM      5  N   UNL     1       1.259  13.640  18.478  0.00  0.00    +0.000 NA
ATOM      6  C   UNL     1       2.344  14.029  19.200  0.00  0.00    +0.000 A 
ATOM      7  C   UNL     1       3.391  14.680  18.551  0.00  0.00    +0.000 A 
ATOM      8  C   UNL     1       4.569  15.036  19.217  0.00  0.00    +0.000 A 
ATOM      9  C   UNL     1       4.682  14.811  20.581  0.00  0.00    +0.000 A 
ATOM     10  C   UNL     1       3.651  14.151  21.249  0.00  0.00    +0.000 A 
ATOM     11  C   UNL     1       2.532  13.681  20.571  0.00  0.00    +0.000 A 
ATOM     12  N   UNL     1       1.746  12.791  21.209  0.00  0.00    +0.000 NA
ATOM     13  C   UNL     1       0.970  12.098  20.338  0.00  0.00    +0.000 A 
ENDROOT
BRANCH   3  14
ATOM     14  C   UNL     1      -1.443  11.214  18.315  0.00  0.00    +0.000 A 
ATOM     15  C   UNL     1      -1.729  10.183  17.386  0.00  0.00    +0.000 A 
ATOM     16  C   UNL     1      -3.036   9.784  17.126  0.00  0.00    +0.000 A 
ATOM     17  C   UNL     1      -4.081  10.435  17.765  0.00  0.00    +0.000 A 
ATOM     18  C   UNL     1      -3.804  11.455  18.688  0.00  0.00    +0.000 A 
ATOM     19  C   UNL     1      -2.483  11.832  19.004  0.00  0.00    +0.000 A 
BRANCH  18  20
ATOM     20  S   UNL     1      -5.151  12.412  19.323  0.00  0.00    +0.000 S 
ATOM     21  O   UNL     1      -6.175  11.507  19.784  0.00  0.00    +0.000 OA
ATOM     22  O   UNL     1      -4.645  13.473  20.162  0.00  0.00    +0.000 OA
BRANCH  20  23
ATOM     23  N   UNL     1      -5.768  13.162  17.957  0.00  0.00    +0.000 NA
ATOM     24  H   UNL     1      -6.769  13.315  18.089  0.00  0.00    +0.000 HD
ATOM     25  H   UNL     1      -5.251  14.026  17.788  0.00  0.00    +0.000 HD
ENDBRANCH  20  23
ENDBRANCH  18  20
ENDBRANCH   3  14
BRANCH   2  26
ATOM     26  N   UNL     1       1.912  10.467  17.811  0.00  0.00    +0.000 N 
ATOM     27  H   UNL     1       1.818  11.101  17.013  0.00  0.00    +0.000 HD
ATOM     28  H   UNL     1       2.834  10.710  18.196  0.00  0.00    +0.000 HD
ENDBRANCH   2  26
BRANCH   1  29
ATOM     29  C   UNL     1       0.675   9.585  21.041  0.00  0.00    +0.000 C 
ATOM     30  O   UNL     1       1.420   8.612  21.087  0.00  0.00    +0.000 OA
BRANCH  29  31
ATOM     31  O   UNL     1      -0.571   9.622  21.586  0.00  0.00    +0.000 OA
BRANCH  31  33
ATOM     32  C   UNL     1      -1.455  11.371  23.092  0.00  0.00    +0.000 C 
ATOM     33  C   UNL     1      -0.645  10.095  22.943  0.00  0.00    +0.000 C 
ENDBRANCH  31  33
ENDBRANCH  29  31
ENDBRANCH   1  29
TORSDOF 7
ENDMDL
MODEL 3
REMARK VINA RESULT:      -7.6      4.954      8.109
REMARK  Name = 
REMARK  8 active torsions:
REMARK  status: ('A' for Active; 'I' for Inactive)
REMARK    1  A    between atoms: C_1  and  C_2
REMARK    2  A    between atoms: C_2  and  O_3
REMARK    3  A    between atoms: O_3  and  C_4
REMARK    4  A    between atoms: C_4  and  C_6
REMARK    5  A    between atoms: C_7  and  N_8
REMARK    6  A    between atoms: N_9  and  C_10
REMARK    7  A    between atoms: C_14  and  S_15
REMARK    8  A    between atoms: S_15  and  N_16
REMARK                            x       y       z     vdW  Elec       q    Type
REMARK                         _______ _______ _______ _____ _____    ______ ____
ROOT
ATOM      1  C   UNL     1       2.649   5.536  19.499  0.00  0.00    +0.000 A 
ATOM      2  C   UNL     1       1.894   5.900  18.373  0.00  0.00    +0.000 A 
ATOM      3  N   UNL     1       2.303   7.237  18.357  0.00  0.00    +0.000 N 
ATOM      4  C   UNL     1       3.684   7.055  18.213  0.00  0.00    +0.000 A 
ATOM      5  N   UNL     1       4.422   7.152  17.079  0.00  0.00    +0.000 NA
ATOM      6  C   UNL     1       5.419   6.229  17.050  0.00  0.00    +0.000 A 
ATOM      7  C   UNL     1       5.977   5.871  15.824  0.00  0.00    +0.000 A 
ATOM      8  C   UNL     1       6.949   4.871  15.715  0.00  0.00    +0.000 A 
ATOM      9  C   UNL     1       7.441   4.263  16.860  0.00  0.00    +0.000 A 
ATOM     10  C   UNL     1       6.889   4.597  18.097  0.00  0.00    +0.000 A 
ATOM     11  C   UNL     1       5.836   5.497  18.203  0.00  0.00    +0.000 A 
ATOM     12  N   UNL     1       5.157   5.527  19.367  0.00  0.00    +0.000 NA
ATOM     13  C   UNL     1       3.934   6.096  19.215  0.00  0.00    +0.000 A 
ENDROOT
BRANCH   3  14
ATOM     14  C   UNL     1       1.504   8.267  18.938  0.00  0.00    +0.000 A 
ATOM     15  C   UNL     1       0.924   9.214  18.057  0.00  0.00    +0.000 A 
ATOM     16  C   UNL     1       0.128  10.252  18.531  0.00  0.00    +0.000 A 
ATOM     17  C   UNL     1      -0.071  10.381  19.897  0.00  0.00    +0.000 A 
ATOM     18  C   UNL     1       0.499   9.444  20.774  0.00  0.00    +0.000 A 
ATOM     19  C   UNL     1       1.260   8.355  20.305  0.00  0.00    +0.000 A 
BRANCH  18  20
ATOM     20  S   UNL     1       0.412   9.753  22.516  0.00  0.00    +0.000 S 
ATOM     21  O   UNL     1       1.651   9.322  23.116  0.00  0.00    +0.000 OA
ATOM     22  O   UNL     1      -0.126  11.072  22.753  0.00  0.00    +0.000 OA
BRANCH  20  23
ATOM     23  N   UNL     1      -0.762   8.678  23.039  0.00  0.00    +0.000 NA
ATOM     24  H   UNL     1      -1.682   9.099  22.897  0.00  0.00    +0.000 HD
ATOM     25  H   UNL     1      -0.650   7.792  22.543  0.00  0.00    +0.000 HD
ENDBRANCH  20  23
ENDBRANCH  18  20
ENDBRANCH   3  14
BRANCH   2  26
ATOM     26  N   UNL     1       1.689   5.291  17.154  0.00  0.00    +0.000 N 
ATOM     27  H   UNL     1       2.460   4.691  16.848  0.00  0.00    +0.000 HD
ATOM     28  H   UNL     1       0.882   4.653  17.154  0.00  0.00    +0.000 HD
ENDBRANCH   2  26
BRANCH   1  29
ATOM     29  C   UNL     1       2.097   4.923  20.681  0.00  0.00    +0.000 C 
ATOM     30  O   UNL     1       2.755   4.761  21.703  0.00  0.00    +0.000 OA
BRANCH  29  31
ATOM     31  O   UNL     1       0.913   4.304  20.426  0.00  0.00    +0.000 OA
BRANCH  31  33
ATOM     32  C   UNL     1       0.761   2.353  18.916  0.00  0.00    +0.000 C 
ATOM     33  C   UNL     1       0.967   2.870  20.330  0.00  0.00    +0.000 C 
ENDBRANCH  31  33
ENDBRANCH  29  31
ENDBRANCH   1  29
TORSDOF 7
ENDMDL
MODEL 4
REMARK VINA RESULT:      -7.4      3.432      6.608
REMARK  Name = 
REMARK  8 active torsions:
REMARK  status: ('A' for Active; 'I' for Inactive)
REMARK    1  A    between atoms: C_1  and  C_2
REMARK    2  A    between atoms: C_2  and  O_3
REMARK    3  A    between atoms: O_3  and  C_4
REMARK    4  A    between atoms: C_4  and  C_6
REMARK    5  A    between atoms: C_7  and  N_8
REMARK    6  A    between atoms: N_9  and  C_10
REMARK    7  A    between atoms: C_14  and  S_15
REMARK    8  A    between atoms: S_15  and  N_16
REMARK                            x       y       z     vdW  Elec       q    Type
REMARK                         _______ _______ _______ _____ _____    ______ ____
ROOT
ATOM      1  C   UNL     1       6.290   5.163  17.694  0.00  0.00    +0.000 A 
ATOM      2  C   UNL     1       5.158   4.343  17.823  0.00  0.00    +0.000 A 
ATOM      3  N   UNL     1       4.250   5.279  17.319  0.00  0.00    +0.000 N 
ATOM      4  C   UNL     1       4.800   5.475  16.047  0.00  0.00    +0.000 A 
ATOM      5  N   UNL     1       4.394   4.929  14.872  0.00  0.00    +0.000 NA
ATOM      6  C   UNL     1       5.448   4.635  14.066  0.00  0.00    +0.000 A 
ATOM      7  C   UNL     1       5.286   3.689  13.056  0.00  0.00    +0.000 A 
ATOM      8  C   UNL     1       6.349   3.281  12.243  0.00  0.00    +0.000 A 
ATOM      9  C   UNL     1       7.590   3.885  12.382  0.00  0.00    +0.000 A 
ATOM     10  C   UNL     1       7.778   4.828  13.393  0.00  0.00    +0.000 A 
ATOM     11  C   UNL     1       6.763   5.146  14.286  0.00  0.00    +0.000 A 
ATOM     12  N   UNL     1       7.106   5.809  15.408  0.00  0.00    +0.000 NA
ATOM     13  C   UNL     1       6.156   5.686  16.369  0.00  0.00    +0.000 A 
ENDROOT
BRANCH   3  14
ATOM     14  C   UNL     1       3.468   6.100  18.186  0.00  0.00    +0.000 A 
ATOM     15  C   UNL     1       3.124   5.564  19.453  0.00  0.00    +0.000 A 
ATOM     16  C   UNL     1       2.368   6.292  20.366  0.00  0.00    +0.000 A 
ATOM     17  C   UNL     1       1.912   7.553  20.013  0.00  0.00    +0.000 A 
ATOM     18  C   UNL     1       2.252   8.090  18.761  0.00  0.00    +0.000 A 
ATOM     19  C   UNL     1       3.065   7.388  17.848  0.00  0.00    +0.000 A 
BRANCH  18  20
ATOM     20  S   UNL     1       1.483   9.601  18.250  0.00  0.00    +0.000 S 
ATOM     21  O   UNL     1       2.481  10.427  17.617  0.00  0.00    +0.000 OA
ATOM     22  O   UNL     1       0.219   9.315  17.612  0.00  0.00    +0.000 OA
BRANCH  20  23
ATOM     23  N   UNL     1       1.105  10.350  19.701  0.00  0.00    +0.000 NA
ATOM     24  H   UNL     1       0.641  11.238  19.503  0.00  0.00    +0.000 HD
ATOM     25  H   UNL     1       0.533   9.719  20.264  0.00  0.00    +0.000 HD
ENDBRANCH  20  23
ENDBRANCH  18  20
ENDBRANCH   3  14
BRANCH   2  26
ATOM     26  N   UNL     1       4.929   3.019  17.519  0.00  0.00    +0.000 N 
ATOM     27  H   UNL     1       4.289   2.872  16.734  0.00  0.00    +0.000 HD
ATOM     28  H   UNL     1       5.779   2.521  17.224  0.00  0.00    +0.000 HD
ENDBRANCH   2  26
BRANCH   1  29
ATOM     29  C   UNL     1       7.188   5.480  18.776  0.00  0.00    +0.000 C 
ATOM     30  O   UNL     1       6.876   5.332  19.952  0.00  0.00    +0.000 OA
BRANCH  29  31
ATOM     31  O   UNL     1       8.252   6.215  18.353  0.00  0.00    +0.000 OA
BRANCH  31  33
ATOM     32  C   UNL     1       7.907   8.566  17.674  0.00  0.00    +0.000 C 
ATOM     33  C   UNL     1       8.271   7.589  18.778  0.00  0.00    +0.000 C 
ENDBRANCH  31  33
ENDBRANCH  29  31
ENDBRANCH   1  29
TORSDOF 7
ENDMDL
MODEL 5
REMARK VINA RESULT:      -7.4      4.773      7.626
REMARK  Name = 
REMARK  8 active torsions:
REMARK  status: ('A' for Active; 'I' for Inactive)
REMARK    1  A    between atoms: C_1  and  C_2
REMARK    2  A    between atoms: C_2  and  O_3
REMARK    3  A    between atoms: O_3  and  C_4
REMARK    4  A    between atoms: C_4  and  C_6
REMARK    5  A    between atoms: C_7  and  N_8
REMARK    6  A    between atoms: N_9  and  C_10
REMARK    7  A    between atoms: C_14  and  S_15
REMARK    8  A    between atoms: S_15  and  N_16
REMARK                            x       y       z     vdW  Elec       q    Type
REMARK                         _______ _______ _______ _____ _____    ______ ____
ROOT
ATOM      1  C   UNL     1       3.028   5.063  19.382  0.00  0.00    +0.000 A 
ATOM      2  C   UNL     1       2.058   5.534  18.483  0.00  0.00    +0.000 A 
ATOM      3  N   UNL     1       2.468   6.869  18.522  0.00  0.00    +0.000 N 
ATOM      4  C   UNL     1       3.787   6.720  18.075  0.00  0.00    +0.000 A 
ATOM      5  N   UNL     1       4.272   6.944  16.827  0.00  0.00    +0.000 NA
ATOM      6  C   UNL     1       5.231   6.040  16.494  0.00  0.00    +0.000 A 
ATOM      7  C   UNL     1       5.516   5.820  15.148  0.00  0.00    +0.000 A 
ATOM      8  C   UNL     1       6.433   4.848  14.733  0.00  0.00    +0.000 A 
ATOM      9  C   UNL     1       7.146   4.128  15.680  0.00  0.00    +0.000 A 
ATOM     10  C   UNL     1       6.870   4.325  17.033  0.00  0.00    +0.000 A 
ATOM     11  C   UNL     1       5.872   5.197  17.451  0.00  0.00    +0.000 A 
ATOM     12  N   UNL     1       5.452   5.097  18.727  0.00  0.00    +0.000 NA
ATOM     13  C   UNL     1       4.231   5.664  18.896  0.00  0.00    +0.000 A 
ENDROOT
BRANCH   3  14
ATOM     14  C   UNL     1       1.820   7.824  19.363  0.00  0.00    +0.000 A 
ATOM     15  C   UNL     1       1.693   7.499  20.736  0.00  0.00    +0.000 A 
ATOM     16  C   UNL     1       1.078   8.368  21.632  0.00  0.00    +0.000 A 
ATOM     17  C   UNL     1       0.549   9.561  21.162  0.00  0.00    +0.000 A 
ATOM     18  C   UNL     1       0.675   9.889  19.803  0.00  0.00    +0.000 A 
ATOM     19  C   UNL     1       1.344   9.045  18.894  0.00  0.00    +0.000 A 
BRANCH  18  20
ATOM     20  S   UNL     1      -0.193  11.305  19.189  0.00  0.00    +0.000 S 
ATOM     21  O   UNL     1      -1.323  11.554  20.050  0.00  0.00    +0.000 OA
ATOM     22  O   UNL     1       0.748  12.348  18.853  0.00  0.00    +0.000 OA
BRANCH  20  23
ATOM     23  N   UNL     1      -0.822  10.769  17.732  0.00  0.00    +0.000 NA
ATOM     24  H   UNL     1      -1.783  10.455  17.882  0.00  0.00    +0.000 HD
ATOM     25  H   UNL     1      -0.752  11.517  17.041  0.00  0.00    +0.000 HD
ENDBRANCH  20  23
ENDBRANCH  18  20
ENDBRANCH   3  14
BRANCH   2  26
ATOM     26  N   UNL     1       1.595   5.054  17.278  0.00  0.00    +0.000 N 
ATOM     27  H   UNL     1       0.901   4.306  17.361  0.00  0.00    +0.000 HD
ATOM     28  H   UNL     1       1.105   5.767  16.722  0.00  0.00    +0.000 HD
ENDBRANCH   2  26
BRANCH   1  29
ATOM     29  C   UNL     1       2.729   4.323  20.582  0.00  0.00    +0.000 C 
ATOM     30  O   UNL     1       2.349   4.870  21.612  0.00  0.00    +0.000 OA
BRANCH  29  31
ATOM     31  O   UNL     1       3.195   3.046  20.521  0.00  0.00    +0.000 OA
BRANCH  31  33
ATOM     32  C   UNL     1       3.452   1.647  18.500  0.00  0.00    +0.000 C 
ATOM     33  C   UNL     1       2.530   2.183  19.582  0.00  0.00    +0.000 C 
ENDBRANCH  31  33
ENDBRANCH  29  31
ENDBRANCH   1  29
TORSDOF 7
ENDMDL
MODEL 6
REMARK VINA RESULT:      -7.4      9.429     11.760
REMARK  Name = 
REMARK  8 active torsions:
REMARK  status: ('A' for Active; 'I' for Inactive)
REMARK    1  A    between atoms: C_1  and  C_2
REMARK    2  A    between atoms: C_2  and  O_3
REMARK    3  A    between atoms: O_3  and  C_4
REMARK    4  A    between atoms: C_4  and  C_6
REMARK    5  A    between atoms: C_7  and  N_8
REMARK    6  A    between atoms: N_9  and  C_10
REMARK    7  A    between atoms: C_14  and  S_15
REMARK    8  A    between atoms: S_15  and  N_16
REMARK                            x       y       z     vdW  Elec       q    Type
REMARK                         _______ _______ _______ _____ _____    ______ ____
ROOT
ATOM      1  C   UNL     1       0.726  11.325  20.320  0.00  0.00    +0.000 A 
ATOM      2  C   UNL     1       0.854  11.301  18.923  0.00  0.00    +0.000 A 
ATOM      3  N   UNL     1      -0.295  12.053  18.664  0.00  0.00    +0.000 N 
ATOM      4  C   UNL     1       0.035  13.227  19.352  0.00  0.00    +0.000 A 
ATOM      5  N   UNL     1       0.518  14.386  18.836  0.00  0.00    +0.000 NA
ATOM      6  C   UNL     1       1.428  14.962  19.665  0.00  0.00    +0.000 A 
ATOM      7  C   UNL     1       2.342  15.873  19.140  0.00  0.00    +0.000 A 
ATOM      8  C   UNL     1       3.355  16.442  19.921  0.00  0.00    +0.000 A 
ATOM      9  C   UNL     1       3.415  16.162  21.278  0.00  0.00    +0.000 A 
ATOM     10  C   UNL     1       2.516  15.245  21.823  0.00  0.00    +0.000 A 
ATOM     11  C   UNL     1       1.588  14.579  21.031  0.00  0.00    +0.000 A 
ATOM     12  N   UNL     1       0.984  13.496  21.557  0.00  0.00    +0.000 NA
ATOM     13  C   UNL     1       0.454  12.703  20.592  0.00  0.00    +0.000 A 
ENDROOT
BRANCH   3  14
ATOM     14  C   UNL     1      -1.534  11.429  18.329  0.00  0.00    +0.000 A 
ATOM     15  C   UNL     1      -1.490  10.347  17.415  0.00  0.00    +0.000 A 
ATOM     16  C   UNL     1      -2.647   9.675  17.032  0.00  0.00    +0.000 A 
ATOM     17  C   UNL     1      -3.870  10.098  17.528  0.00  0.00    +0.000 A 
ATOM     18  C   UNL     1      -3.920  11.167  18.436  0.00  0.00    +0.000 A 
ATOM     19  C   UNL     1      -2.752  11.821  18.878  0.00  0.00    +0.000 A 
BRANCH  18  20
ATOM     20  S   UNL     1      -5.501  11.826  18.885  0.00  0.00    +0.000 S 
ATOM     21  O   UNL     1      -6.521  10.935  18.390  0.00  0.00    +0.000 OA
ATOM     22  O   UNL     1      -5.478  12.259  20.263  0.00  0.00    +0.000 OA
BRANCH  20  23
ATOM     23  N   UNL     1      -5.611  13.222  17.966  0.00  0.00    +0.000 NA
ATOM     24  H   UNL     1      -6.363  13.110  17.283  0.00  0.00    +0.000 HD
ATOM     25  H   UNL     1      -5.754  14.021  18.587  0.00  0.00    +0.000 HD
ENDBRANCH  20  23
ENDBRANCH  18  20
ENDBRANCH   3  14
BRANCH   2  26
ATOM     26  N   UNL     1       1.930  11.490  18.085  0.00  0.00    +0.000 N 
ATOM     27  H   UNL     1       1.891  10.945  17.219  0.00  0.00    +0.000 HD
ATOM     28  H   UNL     1       2.012  12.458  17.747  0.00  0.00    +0.000 HD
ENDBRANCH   2  26
BRANCH   1  29
ATOM     29  C   UNL     1       0.694  10.148  21.152  0.00  0.00    +0.000 C 
ATOM     30  O   UNL     1       0.524   9.025  20.691  0.00  0.00    +0.000 OA
BRANCH  29  31
ATOM     31  O   UNL     1       0.573  10.461  22.470  0.00  0.00    +0.000 OA
BRANCH  31  33
ATOM     32  C   UNL     1      -1.646  11.276  23.191  0.00  0.00    +0.000 C 
ATOM     33  C   UNL     1      -0.680  10.109  23.083  0.00  0.00    +0.000 C 
ENDBRANCH  31  33
ENDBRANCH  29  31
ENDBRANCH   1  29
TORSDOF 7
ENDMDL
MODEL 7
REMARK VINA RESULT:      -7.3      9.242     11.752
REMARK  Name = 
REMARK  8 active torsions:
REMARK  status: ('A' for Active; 'I' for Inactive)
REMARK    1  A    between atoms: C_1  and  C_2
REMARK    2  A    between atoms: C_2  and  O_3
REMARK    3  A    between atoms: O_3  and  C_4
REMARK    4  A    between atoms: C_4  and  C_6
REMARK    5  A    between atoms: C_7  and  N_8
REMARK    6  A    between atoms: N_9  and  C_10
REMARK    7  A    between atoms: C_14  and  S_15
REMARK    8  A    between atoms: S_15  and  N_16
REMARK                            x       y       z     vdW  Elec       q    Type
REMARK                         _______ _______ _______ _____ _____    ______ ____
ROOT
ATOM      1  C   UNL     1       0.576  10.903  20.244  0.00  0.00    +0.000 A 
ATOM      2  C   UNL     1       0.550  10.723  18.852  0.00  0.00    +0.000 A 
ATOM      3  N   UNL     1      -0.364  11.749  18.596  0.00  0.00    +0.000 N 
ATOM      4  C   UNL     1       0.349  12.833  19.123  0.00  0.00    +0.000 A 
ATOM      5  N   UNL     1       1.081  13.755  18.447  0.00  0.00    +0.000 NA
ATOM      6  C   UNL     1       2.195  14.114  19.139  0.00  0.00    +0.000 A 
ATOM      7  C   UNL     1       3.269  14.674  18.451  0.00  0.00    +0.000 A 
ATOM      8  C   UNL     1       4.473  14.993  19.087  0.00  0.00    +0.000 A 
ATOM      9  C   UNL     1       4.591  14.825  20.459  0.00  0.00    +0.000 A 
ATOM     10  C   UNL     1       3.532  14.255  21.167  0.00  0.00    +0.000 A 
ATOM     11  C   UNL     1       2.380  13.819  20.524  0.00  0.00    +0.000 A 
ATOM     12  N   UNL     1       1.554  13.005  21.210  0.00  0.00    +0.000 NA
ATOM     13  C   UNL     1       0.729  12.319  20.380  0.00  0.00    +0.000 A 
ENDROOT
BRANCH   3  14
ATOM     14  C   UNL     1      -1.755  11.482  18.424  0.00  0.00    +0.000 A 
ATOM     15  C   UNL     1      -2.130  10.671  17.324  0.00  0.00    +0.000 A 
ATOM     16  C   UNL     1      -3.462  10.354  17.077  0.00  0.00    +0.000 A 
ATOM     17  C   UNL     1      -4.444  10.873  17.907  0.00  0.00    +0.000 A 
ATOM     18  C   UNL     1      -4.079  11.674  19.000  0.00  0.00    +0.000 A 
ATOM     19  C   UNL     1      -2.731  11.957  19.295  0.00  0.00    +0.000 A 
BRANCH  18  20
ATOM     20  S   UNL     1      -5.356  12.498  19.910  0.00  0.00    +0.000 S 
ATOM     21  O   UNL     1      -5.300  13.905  19.598  0.00  0.00    +0.000 OA
ATOM     22  O   UNL     1      -6.586  11.749  19.814  0.00  0.00    +0.000 OA
BRANCH  20  23
ATOM     23  N   UNL     1      -4.850  12.350  21.501  0.00  0.00    +0.000 NA
ATOM     24  H   UNL     1      -4.876  11.363  21.764  0.00  0.00    +0.000 HD
ATOM     25  H   UNL     1      -3.922  12.763  21.597  0.00  0.00    +0.000 HD
ENDBRANCH  20  23
ENDBRANCH  18  20
ENDBRANCH   3  14
BRANCH   2  26
ATOM     26  N   UNL     1       1.545  10.522  17.922  0.00  0.00    +0.000 N 
ATOM     27  H   UNL     1       2.470  10.846  18.218  0.00  0.00    +0.000 HD
ATOM     28  H   UNL     1       1.703   9.528  17.710  0.00  0.00    +0.000 HD
ENDBRANCH   2  26
BRANCH   1  29
ATOM     29  C   UNL     1       0.301   9.861  21.201  0.00  0.00    +0.000 C 
ATOM     30  O   UNL     1      -0.225   8.801  20.882  0.00  0.00    +0.000 OA
BRANCH  29  31
ATOM     31  O   UNL     1       0.413  10.306  22.482  0.00  0.00    +0.000 OA
BRANCH  31  33
ATOM     32  C   UNL     1      -1.672  11.487  23.086  0.00  0.00    +0.000 C 
ATOM     33  C   UNL     1      -0.792  10.262  23.266  0.00  0.00    +0.000 C 
ENDBRANCH  31  33
ENDBRANCH  29  31
ENDBRANCH   1  29
TORSDOF 7
ENDMDL
MODEL 8
REMARK VINA RESULT:      -7.2     10.065     12.886
REMARK  Name = 
REMARK  8 active torsions:
REMARK  status: ('A' for Active; 'I' for Inactive)
REMARK    1  A    between atoms: C_1  and  C_2
REMARK    2  A    between atoms: C_2  and  O_3
REMARK    3  A    between atoms: O_3  and  C_4
REMARK    4  A    between atoms: C_4  and  C_6
REMARK    5  A    between atoms: C_7  and  N_8
REMARK    6  A    between atoms: N_9  and  C_10
REMARK    7  A    between atoms: C_14  and  S_15
REMARK    8  A    between atoms: S_15  and  N_16
REMARK                            x       y       z     vdW  Elec       q    Type
REMARK                         _______ _______ _______ _____ _____    ______ ____
ROOT
ATOM      1  C   UNL     1       0.229  11.865  19.495  0.00  0.00    +0.000 A 
ATOM      2  C   UNL     1      -0.866  12.531  18.923  0.00  0.00    +0.000 A 
ATOM      3  N   UNL     1      -1.077  13.400  19.998  0.00  0.00    +0.000 N 
ATOM      4  C   UNL     1       0.167  14.043  20.025  0.00  0.00    +0.000 A 
ATOM      5  N   UNL     1       0.483  15.263  19.520  0.00  0.00    +0.000 NA
ATOM      6  C   UNL     1       1.733  15.275  18.988  0.00  0.00    +0.000 A 
ATOM      7  C   UNL     1       2.060  16.251  18.049  0.00  0.00    +0.000 A 
ATOM      8  C   UNL     1       3.301  16.274  17.403  0.00  0.00    +0.000 A 
ATOM      9  C   UNL     1       4.274  15.349  17.753  0.00  0.00    +0.000 A 
ATOM     10  C   UNL     1       3.966  14.356  18.682  0.00  0.00    +0.000 A 
ATOM     11  C   UNL     1       2.695  14.250  19.235  0.00  0.00    +0.000 A 
ATOM     12  N   UNL     1       2.385  13.100  19.865  0.00  0.00    +0.000 NA
ATOM     13  C   UNL     1       1.042  12.939  19.975  0.00  0.00    +0.000 A 
ENDROOT
BRANCH   3  14
ATOM     14  C   UNL     1      -2.060  13.125  20.996  0.00  0.00    +0.000 A 
ATOM     15  C   UNL     1      -1.595  12.832  22.302  0.00  0.00    +0.000 A 
ATOM     16  C   UNL     1      -2.479  12.554  23.340  0.00  0.00    +0.000 A 
ATOM     17  C   UNL     1      -3.841  12.530  23.080  0.00  0.00    +0.000 A 
ATOM     18  C   UNL     1      -4.307  12.822  21.788  0.00  0.00    +0.000 A 
ATOM     19  C   UNL     1      -3.428  13.161  20.740  0.00  0.00    +0.000 A 
BRANCH  18  20
ATOM     20  S   UNL     1      -6.024  12.573  21.430  0.00  0.00    +0.000 S 
ATOM     21  O   UNL     1      -6.585  13.830  21.001  0.00  0.00    +0.000 OA
ATOM     22  O   UNL     1      -6.192  11.365  20.658  0.00  0.00    +0.000 OA
BRANCH  20  23
ATOM     23  N   UNL     1      -6.687  12.252  22.935  0.00  0.00    +0.000 NA
ATOM     24  H   UNL     1      -7.636  12.629  22.964  0.00  0.00    +0.000 HD
ATOM     25  H   UNL     1      -6.653  11.246  23.108  0.00  0.00    +0.000 HD
ENDBRANCH  20  23
ENDBRANCH  18  20
ENDBRANCH   3  14
BRANCH   2  26
ATOM     26  N   UNL     1      -1.095  13.029  17.660  0.00  0.00    +0.000 N 
ATOM     27  H   UNL     1      -0.929  12.357  16.906  0.00  0.00    +0.000 HD
ATOM     28  H   UNL     1      -2.073  13.311  17.510  0.00  0.00    +0.000 HD
ENDBRANCH   2  26
BRANCH   1  29
ATOM     29  C   UNL     1       0.305  10.436  19.674  0.00  0.00    +0.000 C 
ATOM     30  O   UNL     1       0.639   9.679  18.768  0.00  0.00    +0.000 OA
BRANCH  29  31
ATOM     31  O   UNL     1      -0.306  10.035  20.821  0.00  0.00    +0.000 OA
BRANCH  31  33
ATOM     32  C   UNL     1      -0.112   9.545  23.236  0.00  0.00    +0.000 C 
ATOM     33  C   UNL     1       0.571   9.613  21.880  0.00  0.00    +0.000 C 
ENDBRANCH  31  33
ENDBRANCH  29  31
ENDBRANCH   1  29
TORSDOF 7
ENDMDL
MODEL 9
REMARK VINA RESULT:      -7.2     10.511     12.278
REMARK  Name = 
REMARK  8 active torsions:
REMARK  status: ('A' for Active; 'I' for Inactive)
REMARK    1  A    between atoms: C_1  and  C_2
REMARK    2  A    between atoms: C_2  and  O_3
REMARK    3  A    between atoms: O_3  and  C_4
REMARK    4  A    between atoms: C_4  and  C_6
REMARK    5  A    between atoms: C_7  and  N_8
REMARK    6  A    between atoms: N_9  and  C_10
REMARK    7  A    between atoms: C_14  and  S_15
REMARK    8  A    between atoms: S_15  and  N_16
REMARK                            x       y       z     vdW  Elec       q    Type
REMARK                         _______ _______ _______ _____ _____    ______ ____
ROOT
ATOM      1  C   UNL     1      -2.546  12.968  21.926  0.00  0.00    +0.000 A 
ATOM      2  C   UNL     1      -2.493  13.710  20.736  0.00  0.00    +0.000 A 
ATOM      3  N   UNL     1      -3.200  12.785  19.963  0.00  0.00    +0.000 N 
ATOM      4  C   UNL     1      -4.400  12.748  20.683  0.00  0.00    +0.000 A 
ATOM      5  N   UNL     1      -5.562  13.389  20.397  0.00  0.00    +0.000 NA
ATOM      6  C   UNL     1      -6.188  13.818  21.524  0.00  0.00    +0.000 A 
ATOM      7  C   UNL     1      -7.116  14.853  21.432  0.00  0.00    +0.000 A 
ATOM      8  C   UNL     1      -7.737  15.396  22.563  0.00  0.00    +0.000 A 
ATOM      9  C   UNL     1      -7.491  14.846  23.812  0.00  0.00    +0.000 A 
ATOM     10  C   UNL     1      -6.557  13.817  23.930  0.00  0.00    +0.000 A 
ATOM     11  C   UNL     1      -5.842  13.356  22.830  0.00  0.00    +0.000 A 
ATOM     12  N   UNL     1      -4.752  12.601  23.069  0.00  0.00    +0.000 NA
ATOM     13  C   UNL     1      -3.919  12.577  21.997  0.00  0.00    +0.000 A 
ENDROOT
BRANCH   3  14
ATOM     14  C   UNL     1      -2.527  11.840  19.131  0.00  0.00    +0.000 A 
ATOM     15  C   UNL     1      -3.318  11.098  18.219  0.00  0.00    +0.000 A 
ATOM     16  C   UNL     1      -2.750  10.157  17.366  0.00  0.00    +0.000 A 
ATOM     17  C   UNL     1      -1.386   9.916  17.438  0.00  0.00    +0.000 A 
ATOM     18  C   UNL     1      -0.597  10.650  18.338  0.00  0.00    +0.000 A 
ATOM     19  C   UNL     1      -1.149  11.646  19.167  0.00  0.00    +0.000 A 
BRANCH  18  20
ATOM     20  S   UNL     1       1.094  10.175  18.564  0.00  0.00    +0.000 S 
ATOM     21  O   UNL     1       1.376  10.157  19.977  0.00  0.00    +0.000 OA
ATOM     22  O   UNL     1       1.403   9.049  17.715  0.00  0.00    +0.000 OA
BRANCH  20  23
ATOM     23  N   UNL     1       1.945  11.473  17.932  0.00  0.00    +0.000 NA
ATOM     24  H   UNL     1       2.726  11.117  17.377  0.00  0.00    +0.000 HD
ATOM     25  H   UNL     1       1.308  12.060  17.392  0.00  0.00    +0.000 HD
ENDBRANCH  20  23
ENDBRANCH  18  20
ENDBRANCH   3  14
BRANCH   2  26
ATOM     26  N   UNL     1      -2.699  15.044  20.462  0.00  0.00    +0.000 N 
ATOM     27  H   UNL     1      -3.634  15.384  20.702  0.00  0.00    +0.000 HD
ATOM     28  H   UNL     1      -2.080  15.666  20.999  0.00  0.00    +0.000 HD
ENDBRANCH   2  26
BRANCH   1  29
ATOM     29  C   UNL     1      -1.387  12.589  22.697  0.00  0.00    +0.000 C 
ATOM     30  O   UNL     1      -0.829  13.365  23.464  0.00  0.00    +0.000 OA
BRANCH  29  31
ATOM     31  O   UNL     1      -0.842  11.424  22.254  0.00  0.00    +0.000 OA
BRANCH  31  33
ATOM     32  C   UNL     1      -0.462   9.001  22.557  0.00  0.00    +0.000 C 
ATOM     33  C   UNL     1      -0.902  10.318  23.172  0.00  0.00    +0.000 C 
ENDBRANCH  31  33
ENDBRANCH  29  31
ENDBRANCH   1  29
TORSDOF 7
ENDMDL
