MODEL 1
REMARK VINA RESULT:      -7.4      0.000      0.000
REMARK  Name = 
REMARK  4 active torsions:
REMARK  status: ('A' for Active; 'I' for Inactive)
REMARK    1  A    between atoms: N_1  and  C_2
REMARK    2  A    between atoms: C_7  and  C_8
REMARK    3  A    between atoms: N_13  and  C_14
REMARK    4  A    between atoms: C_14  and  C_15
REMARK                            x       y       z     vdW  Elec       q    Type
REMARK                         _______ _______ _______ _____ _____    ______ ____
ROOT
ATOM      1  C   UNL     1      -2.902  12.603  20.128  0.00  0.00    +0.000 C 
ATOM      2  O   UNL     1      -3.709  12.328  19.235  0.00  0.00    +0.000 OA
ATOM      3  N   UNL     1      -1.735  11.837  20.320  0.00  0.00    +0.000 N 
ATOM      4  C   UNL     1      -0.722  12.052  21.359  0.00  0.00    +0.000 C 
ATOM      5  C   UNL     1       0.705  11.826  20.826  0.00  0.00    +0.000 C 
ATOM      6  N   UNL     1       0.937  10.533  20.139  0.00  0.00    +0.000 NA
ATOM      7  C   UNL     1      -0.111  10.379  19.094  0.00  0.00    +0.000 C 
ATOM      8  C   UNL     1      -1.570  10.586  19.572  0.00  0.00    +0.000 C 
ENDROOT
BRANCH   1  14
ATOM      9  C   UNL     1      -4.116  13.651  22.101  0.00  0.00    +0.000 A 
ATOM     10  N   UNL     1      -4.387  14.704  22.912  0.00  0.00    +0.000 NA
ATOM     11  C   UNL     1      -3.715  15.849  22.655  0.00  0.00    +0.000 A 
ATOM     12  C   UNL     1      -2.797  15.954  21.630  0.00  0.00    +0.000 A 
ATOM     13  N   UNL     1      -2.517  14.924  20.802  0.00  0.00    +0.000 NA
ATOM     14  C   UNL     1      -3.218  13.773  21.026  0.00  0.00    +0.000 A 
BRANCH   9  15
ATOM     15  N   UNL     1      -4.850  12.504  22.418  0.00  0.00    +0.000 N 
ATOM     16  H   UNL     1      -5.835  12.727  22.331  0.00  0.00    +0.000 HD
ATOM     17  H   UNL     1      -4.597  12.164  23.347  0.00  0.00    +0.000 HD
ENDBRANCH   9  15
ENDBRANCH   1  14
BRANCH   6  18
ATOM     18  C   UNL     1       0.912   9.390  21.074  0.00  0.00    +0.000 C 
BRANCH  18  19
ATOM     19  C   UNL     1       1.512   8.145  20.429  0.00  0.00    +0.000 A 
ATOM     20  N   UNL     1       1.357   6.980  20.983  0.00  0.00    +0.000 NA
ATOM     21  C   UNL     1       1.917   5.949  20.288  0.00  0.00    +0.000 A 
ATOM     22  S   UNL     1       1.886   4.352  20.888  0.00  0.00    +0.000 S 
ATOM     23  C   UNL     1       2.708   3.760  19.521  0.00  0.00    +0.000 A 
ATOM     24  C   UNL     1       2.993   4.748  18.596  0.00  0.00    +0.000 A 
ATOM     25  C   UNL     1       2.556   6.026  19.068  0.00  0.00    +0.000 A 
ATOM     26  C   UNL     1       2.691   7.341  18.468  0.00  0.00    +0.000 A 
ATOM     27  O   UNL     1       3.195   7.550  17.369  0.00  0.00    +0.000 OA
ATOM     28  N   UNL     1       2.190   8.357  19.247  0.00  0.00    +0.000 N 
ATOM     29  C   UNL     1       3.657   4.442  17.285  0.00  0.00    +0.000 C 
ATOM     30  C   UNL     1       4.300   3.045  17.273  0.00  0.00    +0.000 C 
ATOM     31  C   UNL     1       3.393   1.986  17.916  0.00  0.00    +0.000 C 
ATOM     32  C   UNL     1       3.093   2.319  19.385  0.00  0.00    +0.000 C 
ATOM     33  H   UNL     1       2.332   9.298  18.915  0.00  0.00    +0.000 HD
ENDBRANCH  18  19
ENDBRANCH   6  18
TORSDOF 4
ENDMDL
MODEL 2
REMARK VINA RESULT:      -7.3      3.511     10.650
REMARK  Name = 
REMARK  4 active torsions:
REMARK  status: ('A' for Active; 'I' for Inactive)
REMARK    1  A    between atoms: N_1  and  C_2
REMARK    2  A    between atoms: C_7  and  C_8
REMARK    3  A    between atoms: N_13  and  C_14
REMARK    4  A    between atoms: C_14  and  C_15
REMARK                            x       y       z     vdW  Elec       q    Type
REMARK                         _______ _______ _______ _____ _____    ______ ____
ROOT
ATOM      1  C   UNL     1       4.217   4.300  17.019  0.00  0.00    +0.000 C 
ATOM      2  O   UNL     1       3.832   3.172  17.342  0.00  0.00    +0.000 OA
ATOM      3  N   UNL     1       3.579   5.458  17.507  0.00  0.00    +0.000 N 
ATOM      4  C   UNL     1       3.931   6.842  17.175  0.00  0.00    +0.000 C 
ATOM      5  C   UNL     1       3.831   7.771  18.400  0.00  0.00    +0.000 C 
ATOM      6  N   UNL     1       2.545   7.728  19.135  0.00  0.00    +0.000 NA
ATOM      7  C   UNL     1       2.251   6.304  19.452  0.00  0.00    +0.000 C 
ATOM      8  C   UNL     1       2.327   5.321  18.258  0.00  0.00    +0.000 C 
ENDROOT
BRANCH   1  14
ATOM      9  C   UNL     1       6.707   4.435  16.523  0.00  0.00    +0.000 A 
ATOM     10  N   UNL     1       7.748   4.513  15.657  0.00  0.00    +0.000 NA
ATOM     11  C   UNL     1       7.437   4.510  14.341  0.00  0.00    +0.000 A 
ATOM     12  C   UNL     1       6.135   4.426  13.889  0.00  0.00    +0.000 A 
ATOM     13  N   UNL     1       5.081   4.358  14.730  0.00  0.00    +0.000 NA
ATOM     14  C   UNL     1       5.379   4.400  16.063  0.00  0.00    +0.000 A 
BRANCH   9  15
ATOM     15  N   UNL     1       7.100   4.450  17.864  0.00  0.00    +0.000 N 
ATOM     16  H   UNL     1       6.309   4.157  18.427  0.00  0.00    +0.000 HD
ATOM     17  H   UNL     1       7.454   5.373  18.122  0.00  0.00    +0.000 HD
ENDBRANCH   9  15
ENDBRANCH   1  14
BRANCH   6  18
ATOM     18  C   UNL     1       1.439   8.329  18.365  0.00  0.00    +0.000 C 
BRANCH  18  19
ATOM     19  C   UNL     1       0.672   9.340  19.211  0.00  0.00    +0.000 A 
ATOM     20  N   UNL     1      -0.288  10.042  18.686  0.00  0.00    +0.000 NA
ATOM     21  C   UNL     1      -0.910  10.884  19.559  0.00  0.00    +0.000 A 
ATOM     22  S   UNL     1      -2.145  11.943  19.044  0.00  0.00    +0.000 S 
ATOM     23  C   UNL     1      -2.357  12.555  20.618  0.00  0.00    +0.000 A 
ATOM     24  C   UNL     1      -1.520  11.957  21.544  0.00  0.00    +0.000 A 
ATOM     25  C   UNL     1      -0.659  11.007  20.909  0.00  0.00    +0.000 A 
ATOM     26  C   UNL     1       0.405  10.191  21.467  0.00  0.00    +0.000 A 
ATOM     27  O   UNL     1       0.705  10.166  22.656  0.00  0.00    +0.000 OA
ATOM     28  N   UNL     1       1.060   9.425  20.532  0.00  0.00    +0.000 N 
ATOM     29  C   UNL     1      -1.580  12.297  23.004  0.00  0.00    +0.000 C 
ATOM     30  C   UNL     1      -2.358  13.597  23.266  0.00  0.00    +0.000 C 
ATOM     31  C   UNL     1      -3.642  13.681  22.426  0.00  0.00    +0.000 C 
ATOM     32  C   UNL     1      -3.334  13.648  20.922  0.00  0.00    +0.000 C 
ATOM     33  H   UNL     1       1.861   8.902  20.851  0.00  0.00    +0.000 HD
ENDBRANCH  18  19
ENDBRANCH   6  18
TORSDOF 4
ENDMDL
MODEL 3
REMARK VINA RESULT:      -7.1      6.797      9.194
REMARK  Name = 
REMARK  4 active torsions:
REMARK  status: ('A' for Active; 'I' for Inactive)
REMARK    1  A    between atoms: N_1  and  C_2
REMARK    2  A    between atoms: C_7  and  C_8
REMARK    3  A    between atoms: N_13  and  C_14
REMARK    4  A    between atoms: C_14  and  C_15
REMARK                            x       y       z     vdW  Elec       q    Type
REMARK                         _______ _______ _______ _____ _____    ______ ____
ROOT
ATOM      1  C   UNL     1       0.109  12.167  19.733  0.00  0.00    +0.000 C 
ATOM      2  O   UNL     1      -1.104  12.330  19.570  0.00  0.00    +0.000 OA
ATOM      3  N   UNL     1       1.027  13.204  19.472  0.00  0.00    +0.000 N 
ATOM      4  C   UNL     1       2.485  13.119  19.605  0.00  0.00    +0.000 C 
ATOM      5  C   UNL     1       3.086  14.410  20.193  0.00  0.00    +0.000 C 
ATOM      6  N   UNL     1       2.702  15.667  19.507  0.00  0.00    +0.000 NA
ATOM      7  C   UNL     1       1.217  15.699  19.415  0.00  0.00    +0.000 C 
ATOM      8  C   UNL     1       0.554  14.431  18.822  0.00  0.00    +0.000 C 
ENDROOT
BRANCH   1  14
ATOM      9  C   UNL     1       1.021   9.837  19.282  0.00  0.00    +0.000 A 
ATOM     10  N   UNL     1       1.455   8.624  19.706  0.00  0.00    +0.000 NA
ATOM     11  C   UNL     1       1.482   8.428  21.043  0.00  0.00    +0.000 A 
ATOM     12  C   UNL     1       1.096   9.403  21.942  0.00  0.00    +0.000 A 
ATOM     13  N   UNL     1       0.650  10.614  21.545  0.00  0.00    +0.000 NA
ATOM     14  C   UNL     1       0.581  10.812  20.195  0.00  0.00    +0.000 A 
BRANCH   9  15
ATOM     15  N   UNL     1       1.012   9.968  17.891  0.00  0.00    +0.000 N 
ATOM     16  H   UNL     1       1.925   9.698  17.543  0.00  0.00    +0.000 HD
ATOM     17  H   UNL     1       0.746  10.917  17.623  0.00  0.00    +0.000 HD
ENDBRANCH   9  15
ENDBRANCH   1  14
BRANCH   6  18
ATOM     18  C   UNL     1       3.309  15.783  18.167  0.00  0.00    +0.000 C 
BRANCH  18  19
ATOM     19  C   UNL     1       4.830  15.698  18.247  0.00  0.00    +0.000 A 
ATOM     20  N   UNL     1       5.449  14.622  17.864  0.00  0.00    +0.000 NA
ATOM     21  C   UNL     1       6.807  14.691  17.960  0.00  0.00    +0.000 A 
ATOM     22  S   UNL     1       7.794  13.354  17.576  0.00  0.00    +0.000 S 
ATOM     23  C   UNL     1       9.213  14.227  17.922  0.00  0.00    +0.000 A 
ATOM     24  C   UNL     1       8.961  15.532  18.306  0.00  0.00    +0.000 A 
ATOM     25  C   UNL     1       7.552  15.782  18.356  0.00  0.00    +0.000 A 
ATOM     26  C   UNL     1       6.828  16.976  18.755  0.00  0.00    +0.000 A 
ATOM     27  O   UNL     1       7.363  18.029  19.086  0.00  0.00    +0.000 OA
ATOM     28  N   UNL     1       5.462  16.827  18.726  0.00  0.00    +0.000 N 
ATOM     29  C   UNL     1      10.067  16.503  18.597  0.00  0.00    +0.000 C 
ATOM     30  C   UNL     1      11.420  15.799  18.790  0.00  0.00    +0.000 C 
ATOM     31  C   UNL     1      11.651  14.694  17.749  0.00  0.00    +0.000 C 
ATOM     32  C   UNL     1      10.572  13.604  17.837  0.00  0.00    +0.000 C 
ATOM     33  H   UNL     1       4.912  17.598  19.072  0.00  0.00    +0.000 HD
ENDBRANCH  18  19
ENDBRANCH   6  18
TORSDOF 4
ENDMDL
MODEL 4
REMARK VINA RESULT:      -7.1      3.030     10.627
REMARK  Name = 
REMARK  4 active torsions:
REMARK  status: ('A' for Active; 'I' for Inactive)
REMARK    1  A    between atoms: N_1  and  C_2
REMARK    2  A    between atoms: C_7  and  C_8
REMARK    3  A    between atoms: N_13  and  C_14
REMARK    4  A    between atoms: C_14  and  C_15
REMARK                            x       y       z     vdW  Elec       q    Type
REMARK                         _______ _______ _______ _____ _____    ______ ____
ROOT
ATOM      1  C   UNL     1       2.369   7.809  18.327  0.00  0.00    +0.000 C 
ATOM      2  O   UNL     1       2.496   8.296  17.200  0.00  0.00    +0.000 OA
ATOM      3  N   UNL     1       1.659   8.485  19.339  0.00  0.00    +0.000 N 
ATOM      4  C   UNL     1       1.465   8.019  20.716  0.00  0.00    +0.000 C 
ATOM      5  C   UNL     1       0.046   8.324  21.232  0.00  0.00    +0.000 C 
ATOM      6  N   UNL     1      -0.398   9.732  21.096  0.00  0.00    +0.000 NA
ATOM      7  C   UNL     1      -0.187  10.140  19.680  0.00  0.00    +0.000 C 
ATOM      8  C   UNL     1       1.225   9.867  19.106  0.00  0.00    +0.000 C 
ENDROOT
BRANCH   1  14
ATOM      9  C   UNL     1       4.303   6.173  18.100  0.00  0.00    +0.000 A 
ATOM     10  N   UNL     1       4.889   4.977  18.356  0.00  0.00    +0.000 NA
ATOM     11  C   UNL     1       4.196   4.124  19.143  0.00  0.00    +0.000 A 
ATOM     12  C   UNL     1       2.960   4.441  19.670  0.00  0.00    +0.000 A 
ATOM     13  N   UNL     1       2.350   5.620  19.422  0.00  0.00    +0.000 NA
ATOM     14  C   UNL     1       3.022   6.476  18.596  0.00  0.00    +0.000 A 
BRANCH   9  15
ATOM     15  N   UNL     1       5.069   7.001  17.276  0.00  0.00    +0.000 N 
ATOM     16  H   UNL     1       5.986   6.581  17.173  0.00  0.00    +0.000 HD
ATOM     17  H   UNL     1       5.104   7.949  17.654  0.00  0.00    +0.000 HD
ENDBRANCH   9  15
ENDBRANCH   1  14
BRANCH   6  18
ATOM     18  C   UNL     1       0.323  10.638  22.012  0.00  0.00    +0.000 C 
BRANCH  18  19
ATOM     19  C   UNL     1      -0.572  11.788  22.459  0.00  0.00    +0.000 A 
ATOM     20  N   UNL     1      -0.207  13.020  22.261  0.00  0.00    +0.000 NA
ATOM     21  C   UNL     1      -1.112  13.948  22.680  0.00  0.00    +0.000 A 
ATOM     22  S   UNL     1      -0.784  15.619  22.575  0.00  0.00    +0.000 S 
ATOM     23  C   UNL     1      -2.302  16.018  23.234  0.00  0.00    +0.000 A 
ATOM     24  C   UNL     1      -3.074  14.905  23.517  0.00  0.00    +0.000 A 
ATOM     25  C   UNL     1      -2.358  13.702  23.219  0.00  0.00    +0.000 A 
ATOM     26  C   UNL     1      -2.742  12.315  23.405  0.00  0.00    +0.000 A 
ATOM     27  O   UNL     1      -3.834  11.952  23.831  0.00  0.00    +0.000 OA
ATOM     28  N   UNL     1      -1.762  11.419  23.050  0.00  0.00    +0.000 N 
ATOM     29  C   UNL     1      -4.474  15.023  24.044  0.00  0.00    +0.000 C 
ATOM     30  C   UNL     1      -4.778  16.434  24.574  0.00  0.00    +0.000 C 
ATOM     31  C   UNL     1      -4.236  17.529  23.644  0.00  0.00    +0.000 C 
ATOM     32  C   UNL     1      -2.710  17.436  23.493  0.00  0.00    +0.000 C 
ATOM     33  H   UNL     1      -1.946  10.445  23.236  0.00  0.00    +0.000 HD
ENDBRANCH  18  19
ENDBRANCH   6  18
TORSDOF 4
ENDMDL
MODEL 5
REMARK VINA RESULT:      -7.1      3.317     10.577
REMARK  Name = 
REMARK  4 active torsions:
REMARK  status: ('A' for Active; 'I' for Inactive)
REMARK    1  A    between atoms: N_1  and  C_2
REMARK    2  A    between atoms: C_7  and  C_8
REMARK    3  A    between atoms: N_13  and  C_14
REMARK    4  A    between atoms: C_14  and  C_15
REMARK                            x       y       z     vdW  Elec       q    Type
REMARK                         _______ _______ _______ _____ _____    ______ ____
ROOT
ATOM      1  C   UNL     1       4.544   4.559  16.894  0.00  0.00    +0.000 C 
ATOM      2  O   UNL     1       4.384   3.467  17.448  0.00  0.00    +0.000 OA
ATOM      3  N   UNL     1       3.795   5.689  17.278  0.00  0.00    +0.000 N 
ATOM      4  C   UNL     1       3.880   7.025  16.678  0.00  0.00    +0.000 C 
ATOM      5  C   UNL     1       3.785   8.139  17.738  0.00  0.00    +0.000 C 
ATOM      6  N   UNL     1       2.622   8.057  18.653  0.00  0.00    +0.000 NA
ATOM      7  C   UNL     1       2.598   6.688  19.236  0.00  0.00    +0.000 C 
ATOM      8  C   UNL     1       2.681   5.523  18.218  0.00  0.00    +0.000 C 
ENDROOT
BRANCH   1  14
ATOM      9  C   UNL     1       6.823   5.201  15.969  0.00  0.00    +0.000 A 
ATOM     10  N   UNL     1       7.727   5.259  14.960  0.00  0.00    +0.000 NA
ATOM     11  C   UNL     1       7.350   4.711  13.782  0.00  0.00    +0.000 A 
ATOM     12  C   UNL     1       6.117   4.116  13.604  0.00  0.00    +0.000 A 
ATOM     13  N   UNL     1       5.196   4.055  14.590  0.00  0.00    +0.000 NA
ATOM     14  C   UNL     1       5.549   4.639  15.773  0.00  0.00    +0.000 A 
BRANCH   9  15
ATOM     15  N   UNL     1       7.275   5.791  17.152  0.00  0.00    +0.000 N 
ATOM     16  H   UNL     1       7.237   5.094  17.887  0.00  0.00    +0.000 HD
ATOM     17  H   UNL     1       6.728   6.627  17.366  0.00  0.00    +0.000 HD
ENDBRANCH   9  15
ENDBRANCH   1  14
BRANCH   6  18
ATOM     18  C   UNL     1       1.348   8.353  17.968  0.00  0.00    +0.000 C 
BRANCH  18  19
ATOM     19  C   UNL     1       0.537   9.385  18.746  0.00  0.00    +0.000 A 
ATOM     20  N   UNL     1       0.549   9.385  20.045  0.00  0.00    +0.000 NA
ATOM     21  C   UNL     1      -0.193  10.378  20.613  0.00  0.00    +0.000 A 
ATOM     22  S   UNL     1      -0.363  10.501  22.307  0.00  0.00    +0.000 S 
ATOM     23  C   UNL     1      -1.337  11.890  22.166  0.00  0.00    +0.000 A 
ATOM     24  C   UNL     1      -1.524  12.285  20.853  0.00  0.00    +0.000 A 
ATOM     25  C   UNL     1      -0.878  11.377  19.954  0.00  0.00    +0.000 A 
ATOM     26  C   UNL     1      -0.851  11.359  18.503  0.00  0.00    +0.000 A 
ATOM     27  O   UNL     1      -1.378  12.208  17.792  0.00  0.00    +0.000 OA
ATOM     28  N   UNL     1      -0.165  10.290  17.977  0.00  0.00    +0.000 N 
ATOM     29  C   UNL     1      -2.295  13.521  20.498  0.00  0.00    +0.000 C 
ATOM     30  C   UNL     1      -3.136  14.040  21.676  0.00  0.00    +0.000 C 
ATOM     31  C   UNL     1      -2.360  13.999  23.001  0.00  0.00    +0.000 C 
ATOM     32  C   UNL     1      -1.935  12.567  23.360  0.00  0.00    +0.000 C 
ATOM     33  H   UNL     1      -0.185  10.184  16.975  0.00  0.00    +0.000 HD
ENDBRANCH  18  19
ENDBRANCH   6  18
TORSDOF 4
ENDMDL
MODEL 6
REMARK VINA RESULT:      -7.1      3.237     10.458
REMARK  Name = 
REMARK  4 active torsions:
REMARK  status: ('A' for Active; 'I' for Inactive)
REMARK    1  A    between atoms: N_1  and  C_2
REMARK    2  A    between atoms: C_7  and  C_8
REMARK    3  A    between atoms: N_13  and  C_14
REMARK    4  A    between atoms: C_14  and  C_15
REMARK                            x       y       z     vdW  Elec       q    Type
REMARK                         _______ _______ _______ _____ _____    ______ ____
ROOT
ATOM      1  C   UNL     1       4.076   5.563  18.814  0.00  0.00    +0.000 C 
ATOM      2  O   UNL     1       3.948   4.836  19.803  0.00  0.00    +0.000 OA
ATOM      3  N   UNL     1       3.219   6.660  18.597  0.00  0.00    +0.000 N 
ATOM      4  C   UNL     1       3.261   7.574  17.451  0.00  0.00    +0.000 C 
ATOM      5  C   UNL     1       2.996   9.033  17.869  0.00  0.00    +0.000 C 
ATOM      6  N   UNL     1       1.768   9.260  18.666  0.00  0.00    +0.000 NA
ATOM      7  C   UNL     1       1.791   8.315  19.816  0.00  0.00    +0.000 C 
ATOM      8  C   UNL     1       2.044   6.829  19.458  0.00  0.00    +0.000 C 
ENDROOT
BRANCH   1  14
ATOM      9  C   UNL     1       6.514   5.143  18.223  0.00  0.00    +0.000 A 
ATOM     10  N   UNL     1       7.487   4.826  17.334  0.00  0.00    +0.000 NA
ATOM     11  C   UNL     1       7.084   4.553  16.072  0.00  0.00    +0.000 A 
ATOM     12  C   UNL     1       5.756   4.585  15.697  0.00  0.00    +0.000 A 
ATOM     13  N   UNL     1       4.769   4.907  16.560  0.00  0.00    +0.000 NA
ATOM     14  C   UNL     1       5.166   5.224  17.828  0.00  0.00    +0.000 A 
BRANCH   9  15
ATOM     15  N   UNL     1       7.001   5.421  19.503  0.00  0.00    +0.000 N 
ATOM     16  H   UNL     1       7.505   4.605  19.832  0.00  0.00    +0.000 HD
ATOM     17  H   UNL     1       6.238   5.696  20.123  0.00  0.00    +0.000 HD
ENDBRANCH   9  15
ENDBRANCH   1  14
BRANCH   6  18
ATOM     18  C   UNL     1       0.539   9.079  17.867  0.00  0.00    +0.000 C 
BRANCH  18  19
ATOM     19  C   UNL     1      -0.556  10.035  18.325  0.00  0.00    +0.000 A 
ATOM     20  N   UNL     1      -1.744   9.972  17.803  0.00  0.00    +0.000 NA
ATOM     21  C   UNL     1      -2.635  10.862  18.324  0.00  0.00    +0.000 A 
ATOM     22  S   UNL     1      -4.225  10.985  17.717  0.00  0.00    +0.000 S 
ATOM     23  C   UNL     1      -4.620  12.205  18.837  0.00  0.00    +0.000 A 
ATOM     24  C   UNL     1      -3.573  12.514  19.687  0.00  0.00    +0.000 A 
ATOM     25  C   UNL     1      -2.410  11.747  19.357  0.00  0.00    +0.000 A 
ATOM     26  C   UNL     1      -1.077  11.775  19.933  0.00  0.00    +0.000 A 
ATOM     27  O   UNL     1      -0.751  12.478  20.883  0.00  0.00    +0.000 OA
ATOM     28  N   UNL     1      -0.192  10.923  19.316  0.00  0.00    +0.000 N 
ATOM     29  C   UNL     1      -3.717  13.515  20.794  0.00  0.00    +0.000 C 
ATOM     30  C   UNL     1      -4.970  14.390  20.625  0.00  0.00    +0.000 C 
ATOM     31  C   UNL     1      -6.195  13.569  20.197  0.00  0.00    +0.000 C 
ATOM     32  C   UNL     1      -5.962  12.871  18.849  0.00  0.00    +0.000 C 
ATOM     33  H   UNL     1       0.767  10.963  19.623  0.00  0.00    +0.000 HD
ENDBRANCH  18  19
ENDBRANCH   6  18
TORSDOF 4
ENDMDL
MODEL 7
REMARK VINA RESULT:      -7.1      2.316      3.115
REMARK  Name = 
REMARK  4 active torsions:
REMARK  status: ('A' for Active; 'I' for Inactive)
REMARK    1  A    between atoms: N_1  and  C_2
REMARK    2  A    between atoms: C_7  and  C_8
REMARK    3  A    between atoms: N_13  and  C_14
REMARK    4  A    between atoms: C_14  and  C_15
REMARK                            x       y       z     vdW  Elec       q    Type
REMARK                         _______ _______ _______ _____ _____    ______ ____
ROOT
ATOM      1  C   UNL     1      -1.400  12.571  21.942  0.00  0.00    +0.000 C 
ATOM      2  O   UNL     1      -1.221  13.380  21.026  0.00  0.00    +0.000 OA
ATOM      3  N   UNL     1      -0.744  11.324  21.953  0.00  0.00    +0.000 N 
ATOM      4  C   UNL     1      -0.896  10.278  22.971  0.00  0.00    +0.000 C 
ATOM      5  C   UNL     1       0.445   9.594  23.296  0.00  0.00    +0.000 C 
ATOM      6  N   UNL     1       1.201   9.075  22.132  0.00  0.00    +0.000 NA
ATOM      7  C   UNL     1       1.331  10.181  21.145  0.00  0.00    +0.000 C 
ATOM      8  C   UNL     1       0.013  10.904  20.770  0.00  0.00    +0.000 C 
ENDROOT
BRANCH   1  14
ATOM      9  C   UNL     1      -2.131  14.063  23.866  0.00  0.00    +0.000 A 
ATOM     10  N   UNL     1      -3.008  14.406  24.842  0.00  0.00    +0.000 NA
ATOM     11  C   UNL     1      -4.125  13.649  24.940  0.00  0.00    +0.000 A 
ATOM     12  C   UNL     1      -4.375  12.587  24.096  0.00  0.00    +0.000 A 
ATOM     13  N   UNL     1      -3.514  12.219  23.123  0.00  0.00    +0.000 NA
ATOM     14  C   UNL     1      -2.363  12.951  23.038  0.00  0.00    +0.000 A 
BRANCH   9  15
ATOM     15  N   UNL     1      -0.999  14.881  23.827  0.00  0.00    +0.000 N 
ATOM     16  H   UNL     1      -0.625  14.855  22.885  0.00  0.00    +0.000 HD
ATOM     17  H   UNL     1      -0.322  14.588  24.534  0.00  0.00    +0.000 HD
ENDBRANCH   9  15
ENDBRANCH   1  14
BRANCH   6  18
ATOM     18  C   UNL     1       0.547   7.903  21.516  0.00  0.00    +0.000 C 
BRANCH  18  19
ATOM     19  C   UNL     1       1.484   7.209  20.533  0.00  0.00    +0.000 A 
ATOM     20  N   UNL     1       1.982   7.864  19.527  0.00  0.00    +0.000 NA
ATOM     21  C   UNL     1       2.826   7.135  18.745  0.00  0.00    +0.000 A 
ATOM     22  S   UNL     1       3.524   7.795  17.335  0.00  0.00    +0.000 S 
ATOM     23  C   UNL     1       4.371   6.355  17.008  0.00  0.00    +0.000 A 
ATOM     24  C   UNL     1       4.155   5.377  17.963  0.00  0.00    +0.000 A 
ATOM     25  C   UNL     1       3.228   5.832  18.955  0.00  0.00    +0.000 A 
ATOM     26  C   UNL     1       2.669   5.138  20.101  0.00  0.00    +0.000 A 
ATOM     27  O   UNL     1       2.971   3.996  20.430  0.00  0.00    +0.000 OA
ATOM     28  N   UNL     1       1.756   5.885  20.807  0.00  0.00    +0.000 N 
ATOM     29  C   UNL     1       4.852   4.050  17.912  0.00  0.00    +0.000 C 
ATOM     30  C   UNL     1       5.485   3.780  16.537  0.00  0.00    +0.000 C 
ATOM     31  C   UNL     1       6.198   5.019  15.976  0.00  0.00    +0.000 C 
ATOM     32  C   UNL     1       5.224   6.192  15.789  0.00  0.00    +0.000 C 
ATOM     33  H   UNL     1       1.277   5.422  21.563  0.00  0.00    +0.000 HD
ENDBRANCH  18  19
ENDBRANCH   6  18
TORSDOF 4
ENDMDL
MODEL 8
REMARK VINA RESULT:      -7.1      3.003     10.501
REMARK  Name = 
REMARK  4 active torsions:
REMARK  status: ('A' for Active; 'I' for Inactive)
REMARK    1  A    between atoms: N_1  and  C_2
REMARK    2  A    between atoms: C_7  and  C_8
REMARK    3  A    between atoms: N_13  and  C_14
REMARK    4  A    between atoms: C_14  and  C_15
REMARK                            x       y       z     vdW  Elec       q    Type
REMARK                         _______ _______ _______ _____ _____    ______ ____
ROOT
ATOM      1  C   UNL     1       2.603   7.444  18.250  0.00  0.00    +0.000 C 
ATOM      2  O   UNL     1       2.742   7.911  17.116  0.00  0.00    +0.000 OA
ATOM      3  N   UNL     1       1.893   8.143  19.247  0.00  0.00    +0.000 N 
ATOM      4  C   UNL     1       1.686   7.700  20.630  0.00  0.00    +0.000 C 
ATOM      5  C   UNL     1       0.267   8.029  21.132  0.00  0.00    +0.000 C 
ATOM      6  N   UNL     1      -0.161   9.439  20.972  0.00  0.00    +0.000 NA
ATOM      7  C   UNL     1       0.063   9.822  19.551  0.00  0.00    +0.000 C 
ATOM      8  C   UNL     1       1.476   9.525  18.990  0.00  0.00    +0.000 C 
ENDROOT
BRANCH   1  14
ATOM      9  C   UNL     1       2.615   4.902  18.184  0.00  0.00    +0.000 A 
ATOM     10  N   UNL     1       3.199   3.706  18.441  0.00  0.00    +0.000 NA
ATOM     11  C   UNL     1       4.422   3.744  19.016  0.00  0.00    +0.000 A 
ATOM     12  C   UNL     1       5.057   4.930  19.325  0.00  0.00    +0.000 A 
ATOM     13  N   UNL     1       4.492   6.134  19.089  0.00  0.00    +0.000 NA
ATOM     14  C   UNL     1       3.240   6.109  18.544  0.00  0.00    +0.000 A 
BRANCH   9  15
ATOM     15  N   UNL     1       1.352   4.788  17.597  0.00  0.00    +0.000 N 
ATOM     16  H   UNL     1       1.389   4.042  16.911  0.00  0.00    +0.000 HD
ATOM     17  H   UNL     1       1.060   5.682  17.200  0.00  0.00    +0.000 HD
ENDBRANCH   9  15
ENDBRANCH   1  14
BRANCH   6  18
ATOM     18  C   UNL     1       0.564  10.351  21.878  0.00  0.00    +0.000 C 
BRANCH  18  19
ATOM     19  C   UNL     1      -0.328  11.507  22.318  0.00  0.00    +0.000 A 
ATOM     20  N   UNL     1       0.003  12.733  22.044  0.00  0.00    +0.000 NA
ATOM     21  C   UNL     1      -0.897  13.665  22.467  0.00  0.00    +0.000 A 
ATOM     22  S   UNL     1      -0.606  15.335  22.267  0.00  0.00    +0.000 S 
ATOM     23  C   UNL     1      -2.095  15.740  22.985  0.00  0.00    +0.000 A 
ATOM     24  C   UNL     1      -2.830  14.629  23.360  0.00  0.00    +0.000 A 
ATOM     25  C   UNL     1      -2.107  13.425  23.081  0.00  0.00    +0.000 A 
ATOM     26  C   UNL     1      -2.456  12.042  23.352  0.00  0.00    +0.000 A 
ATOM     27  O   UNL     1      -3.517  11.682  23.851  0.00  0.00    +0.000 OA
ATOM     28  N   UNL     1      -1.479  11.146  22.987  0.00  0.00    +0.000 N 
ATOM     29  C   UNL     1      -4.202  14.749  23.954  0.00  0.00    +0.000 C 
ATOM     30  C   UNL     1      -4.505  16.178  24.434  0.00  0.00    +0.000 C 
ATOM     31  C   UNL     1      -4.032  17.237  23.427  0.00  0.00    +0.000 C 
ATOM     32  C   UNL     1      -2.515  17.161  23.200  0.00  0.00    +0.000 C 
ATOM     33  H   UNL     1      -1.634  10.180  23.228  0.00  0.00    +0.000 HD
ENDBRANCH  18  19
ENDBRANCH   6  18
TORSDOF 4
ENDMDL
MODEL 9
REMARK VINA RESULT:      -7.0      1.830      2.212
REMARK  Name = 
REMARK  4 active torsions:
REMARK  status: ('A' for Active; 'I' for Inactive)
REMARK    1  A    between atoms: N_1  and  C_2
REMARK    2  A    between atoms: C_7  and  C_8
REMARK    3  A    between atoms: N_13  and  C_14
REMARK    4  A    between atoms: C_14  and  C_15
REMARK                            x       y       z     vdW  Elec       q    Type
REMARK                         _______ _______ _______ _____ _____    ______ ____
ROOT
ATOM      1  C   UNL     1      -1.446  13.838  21.581  0.00  0.00    +0.000 C 
ATOM      2  O   UNL     1      -0.921  14.682  20.849  0.00  0.00    +0.000 OA
ATOM      3  N   UNL     1      -0.979  12.509  21.617  0.00  0.00    +0.000 N 
ATOM      4  C   UNL     1      -1.536  11.419  22.424  0.00  0.00    +0.000 C 
ATOM      5  C   UNL     1      -0.435  10.516  23.010  0.00  0.00    +0.000 C 
ATOM      6  N   UNL     1       0.547   9.985  22.035  0.00  0.00    +0.000 NA
ATOM      7  C   UNL     1       1.083  11.136  21.259  0.00  0.00    +0.000 C 
ATOM      8  C   UNL     1       0.023  12.077  20.636  0.00  0.00    +0.000 C 
ENDROOT
BRANCH   1  14
ATOM      9  C   UNL     1      -3.903  14.431  21.858  0.00  0.00    +0.000 A 
ATOM     10  N   UNL     1      -4.960  14.806  22.620  0.00  0.00    +0.000 NA
ATOM     11  C   UNL     1      -4.722  14.969  23.941  0.00  0.00    +0.000 A 
ATOM     12  C   UNL     1      -3.477  14.762  24.499  0.00  0.00    +0.000 A 
ATOM     13  N   UNL     1      -2.406  14.398  23.761  0.00  0.00    +0.000 NA
ATOM     14  C   UNL     1      -2.624  14.268  22.419  0.00  0.00    +0.000 A 
BRANCH   9  15
ATOM     15  N   UNL     1      -4.218  14.289  20.504  0.00  0.00    +0.000 N 
ATOM     16  H   UNL     1      -3.559  13.637  20.094  0.00  0.00    +0.000 HD
ATOM     17  H   UNL     1      -4.221  15.199  20.041  0.00  0.00    +0.000 HD
ENDBRANCH   9  15
ENDBRANCH   1  14
BRANCH   6  18
ATOM     18  C   UNL     1      -0.047   8.979  21.132  0.00  0.00    +0.000 C 
BRANCH  18  19
ATOM     19  C   UNL     1       1.024   8.322  20.268  0.00  0.00    +0.000 A 
ATOM     20  N   UNL     1       1.511   7.162  20.595  0.00  0.00    +0.000 NA
ATOM     21  C   UNL     1       2.437   6.676  19.721  0.00  0.00    +0.000 A 
ATOM     22  S   UNL     1       3.247   5.203  20.013  0.00  0.00    +0.000 S 
ATOM     23  C   UNL     1       4.124   5.329  18.561  0.00  0.00    +0.000 A 
ATOM     24  C   UNL     1       3.802   6.462  17.835  0.00  0.00    +0.000 A 
ATOM     25  C   UNL     1       2.840   7.257  18.537  0.00  0.00    +0.000 A 
ATOM     26  C   UNL     1       2.258   8.541  18.192  0.00  0.00    +0.000 A 
ATOM     27  O   UNL     1       2.492   9.148  17.152  0.00  0.00    +0.000 OA
ATOM     28  N   UNL     1       1.398   9.031  19.146  0.00  0.00    +0.000 N 
ATOM     29  C   UNL     1       4.406   6.743  16.491  0.00  0.00    +0.000 C 
ATOM     30  C   UNL     1       5.647   5.876  16.220  0.00  0.00    +0.000 C 
ATOM     31  C   UNL     1       5.438   4.418  16.654  0.00  0.00    +0.000 C 
ATOM     32  C   UNL     1       5.150   4.315  18.159  0.00  0.00    +0.000 C 
ATOM     33  H   UNL     1       1.030   9.957  18.995  0.00  0.00    +0.000 HD
ENDBRANCH  18  19
ENDBRANCH   6  18
TORSDOF 4
ENDMDL
