MODEL 1
REMARK VINA RESULT:      -9.2      0.000      0.000
REMARK  Name = 
REMARK  5 active torsions:
REMARK  status: ('A' for Active; 'I' for Inactive)
REMARK    1  A    between atoms: C_2  and  C_16
REMARK    2  A    between atoms: N_3  and  C_4
REMARK    3  A    between atoms: C_9  and  N_10
REMARK    4  A    between atoms: C_20  and  S_21
REMARK    5  A    between atoms: S_21  and  N_24
REMARK                            x       y       z     vdW  Elec       q    Type
REMARK                         _______ _______ _______ _____ _____    ______ ____
ROOT
ATOM      1  O   UNL     1       2.691   8.408  17.136  0.00  0.00    +0.000 OA
ATOM      2  C   UNL     1       2.465   7.841  18.216  0.00  0.00    +0.000 C 
ATOM      3  N   UNL     1       2.957   6.610  18.578  0.00  0.00    +0.000 N 
ATOM      4  H   UNL     1       2.744   6.178  19.474  0.00  0.00    +0.000 HD
ENDROOT
BRANCH   3   5
ATOM      5  C   UNL     1       3.806   5.887  17.718  0.00  0.00    +0.000 A 
ATOM      6  C   UNL     1       4.551   6.627  16.794  0.00  0.00    +0.000 A 
ATOM      7  C   UNL     1       5.363   5.980  15.872  0.00  0.00    +0.000 A 
ATOM      8  C   UNL     1       5.454   4.595  15.894  0.00  0.00    +0.000 A 
ATOM      9  C   UNL     1       4.702   3.856  16.813  0.00  0.00    +0.000 A 
ATOM     10  C   UNL     1       3.841   4.476  17.735  0.00  0.00    +0.000 A 
BRANCH  10  11
ATOM     11  N   UNL     1       3.061   3.726  18.598  0.00  0.00    +0.000 N 
ATOM     12  C   UNL     1       1.707   3.294  18.238  0.00  0.00    +0.000 C 
ATOM     13  C   UNL     1       0.847   3.371  19.511  0.00  0.00    +0.000 C 
ATOM     14  O   UNL     1       1.401   2.570  20.575  0.00  0.00    +0.000 OA
ATOM     15  C   UNL     1       2.748   2.980  20.874  0.00  0.00    +0.000 C 
ATOM     16  C   UNL     1       3.658   2.876  19.638  0.00  0.00    +0.000 C 
ENDBRANCH  10  11
ENDBRANCH   3   5
BRANCH   2  17
ATOM     17  C   UNL     1       1.602   8.534  19.191  0.00  0.00    +0.000 A 
ATOM     18  C   UNL     1       1.612   8.020  20.494  0.00  0.00    +0.000 A 
ATOM     19  C   UNL     1       0.833   8.620  21.487  0.00  0.00    +0.000 A 
ATOM     20  C   UNL     1       0.049   9.725  21.181  0.00  0.00    +0.000 A 
ATOM     21  C   UNL     1       0.020  10.229  19.873  0.00  0.00    +0.000 A 
ATOM     22  C   UNL     1       0.803   9.632  18.876  0.00  0.00    +0.000 A 
BRANCH  21  23
ATOM     23  S   UNL     1      -0.813  11.778  19.510  0.00  0.00    +0.000 S 
ATOM     24  O   UNL     1      -1.148  12.378  20.785  0.00  0.00    +0.000 OA
ATOM     25  O   UNL     1       0.025  12.471  18.559  0.00  0.00    +0.000 OA
BRANCH  23  26
ATOM     26  N   UNL     1      -2.262  11.340  18.719  0.00  0.00    +0.000 NA
ATOM     27  C   UNL     1      -3.475  12.093  19.119  0.00  0.00    +0.000 C 
ATOM     28  C   UNL     1      -4.743  11.497  18.520  0.00  0.00    +0.000 C 
ATOM     29  C   UNL     1      -4.615  11.303  17.017  0.00  0.00    +0.000 C 
ATOM     30  C   UNL     1      -3.427  10.402  16.725  0.00  0.00    +0.000 C 
ATOM     31  C   UNL     1      -2.134  10.985  17.287  0.00  0.00    +0.000 C 
ENDBRANCH  23  26
ENDBRANCH  21  23
ENDBRANCH   2  17
TORSDOF 5
ENDMDL
MODEL 2
REMARK VINA RESULT:      -9.0      0.629      1.059
REMARK  Name = 
REMARK  5 active torsions:
REMARK  status: ('A' for Active; 'I' for Inactive)
REMARK    1  A    between atoms: C_2  and  C_16
REMARK    2  A    between atoms: N_3  and  C_4
REMARK    3  A    between atoms: C_9  and  N_10
REMARK    4  A    between atoms: C_20  and  S_21
REMARK    5  A    between atoms: S_21  and  N_24
REMARK                            x       y       z     vdW  Elec       q    Type
REMARK                         _______ _______ _______ _____ _____    ______ ____
ROOT
ATOM      1  O   UNL     1       2.364   8.813  17.334  0.00  0.00    +0.000 OA
ATOM      2  C   UNL     1       2.158   8.245  18.419  0.00  0.00    +0.000 C 
ATOM      3  N   UNL     1       2.685   7.029  18.783  0.00  0.00    +0.000 N 
ATOM      4  H   UNL     1       2.489   6.596  19.683  0.00  0.00    +0.000 HD
ENDROOT
BRANCH   3   5
ATOM      5  C   UNL     1       3.548   6.324  17.923  0.00  0.00    +0.000 A 
ATOM      6  C   UNL     1       4.342   7.087  17.059  0.00  0.00    +0.000 A 
ATOM      7  C   UNL     1       5.172   6.461  16.137  0.00  0.00    +0.000 A 
ATOM      8  C   UNL     1       5.232   5.075  16.101  0.00  0.00    +0.000 A 
ATOM      9  C   UNL     1       4.431   4.314  16.959  0.00  0.00    +0.000 A 
ATOM     10  C   UNL     1       3.551   4.913  17.878  0.00  0.00    +0.000 A 
BRANCH  10  11
ATOM     11  N   UNL     1       2.725   4.145  18.679  0.00  0.00    +0.000 N 
ATOM     12  C   UNL     1       2.918   4.060  20.130  0.00  0.00    +0.000 C 
ATOM     13  C   UNL     1       2.597   2.615  20.551  0.00  0.00    +0.000 C 
ATOM     14  O   UNL     1       1.261   2.233  20.163  0.00  0.00    +0.000 OA
ATOM     15  C   UNL     1       1.083   2.376  18.742  0.00  0.00    +0.000 C 
ATOM     16  C   UNL     1       1.349   3.819  18.281  0.00  0.00    +0.000 C 
ENDBRANCH  10  11
ENDBRANCH   3   5
BRANCH   2  17
ATOM     17  C   UNL     1       1.283   8.920  19.395  0.00  0.00    +0.000 A 
ATOM     18  C   UNL     1       1.354   8.447  20.711  0.00  0.00    +0.000 A 
ATOM     19  C   UNL     1       0.567   9.035  21.706  0.00  0.00    +0.000 A 
ATOM     20  C   UNL     1      -0.283  10.086  21.389  0.00  0.00    +0.000 A 
ATOM     21  C   UNL     1      -0.372  10.546  20.068  0.00  0.00    +0.000 A 
ATOM     22  C   UNL     1       0.418   9.962  19.069  0.00  0.00    +0.000 A 
BRANCH  21  23
ATOM     23  S   UNL     1      -1.298  12.036  19.681  0.00  0.00    +0.000 S 
ATOM     24  O   UNL     1      -1.839  12.525  20.933  0.00  0.00    +0.000 OA
ATOM     25  O   UNL     1      -0.420  12.857  18.880  0.00  0.00    +0.000 OA
BRANCH  23  26
ATOM     26  N   UNL     1      -2.593  11.523  18.694  0.00  0.00    +0.000 NA
ATOM     27  C   UNL     1      -3.941  11.995  19.090  0.00  0.00    +0.000 C 
ATOM     28  C   UNL     1      -5.045  11.323  18.283  0.00  0.00    +0.000 C 
ATOM     29  C   UNL     1      -4.782  11.419  16.788  0.00  0.00    +0.000 C 
ATOM     30  C   UNL     1      -3.441  10.779  16.471  0.00  0.00    +0.000 C 
ATOM     31  C   UNL     1      -2.307  11.450  17.242  0.00  0.00    +0.000 C 
ENDBRANCH  23  26
ENDBRANCH  21  23
ENDBRANCH   2  17
TORSDOF 5
ENDMDL
MODEL 3
REMARK VINA RESULT:      -8.8      0.977      1.352
REMARK  Name = 
REMARK  5 active torsions:
REMARK  status: ('A' for Active; 'I' for Inactive)
REMARK    1  A    between atoms: C_2  and  C_16
REMARK    2  A    between atoms: N_3  and  C_4
REMARK    3  A    between atoms: C_9  and  N_10
REMARK    4  A    between atoms: C_20  and  S_21
REMARK    5  A    between atoms: S_21  and  N_24
REMARK                            x       y       z     vdW  Elec       q    Type
REMARK                         _______ _______ _______ _____ _____    ______ ____
ROOT
ATOM      1  O   UNL     1       3.063   7.709  16.824  0.00  0.00    +0.000 OA
ATOM      2  C   UNL     1       3.103   7.394  18.024  0.00  0.00    +0.000 C 
ATOM      3  N   UNL     1       3.944   6.451  18.564  0.00  0.00    +0.000 N 
ATOM      4  H   UNL     1       3.943   6.221  19.555  0.00  0.00    +0.000 HD
ENDROOT
BRANCH   3   5
ATOM      5  C   UNL     1       4.873   5.762  17.761  0.00  0.00    +0.000 A 
ATOM      6  C   UNL     1       5.888   6.525  17.171  0.00  0.00    +0.000 A 
ATOM      7  C   UNL     1       6.804   5.926  16.316  0.00  0.00    +0.000 A 
ATOM      8  C   UNL     1       6.725   4.561  16.075  0.00  0.00    +0.000 A 
ATOM      9  C   UNL     1       5.705   3.802  16.659  0.00  0.00    +0.000 A 
ATOM     10  C   UNL     1       4.738   4.382  17.499  0.00  0.00    +0.000 A 
BRANCH  10  11
ATOM     11  N   UNL     1       3.702   3.627  18.021  0.00  0.00    +0.000 N 
ATOM     12  C   UNL     1       2.446   3.431  17.292  0.00  0.00    +0.000 C 
ATOM     13  C   UNL     1       1.308   3.440  18.328  0.00  0.00    +0.000 C 
ATOM     14  O   UNL     1       1.505   2.432  19.341  0.00  0.00    +0.000 OA
ATOM     15  C   UNL     1       2.768   2.617  20.006  0.00  0.00    +0.000 C 
ATOM     16  C   UNL     1       3.942   2.569  19.012  0.00  0.00    +0.000 C 
ENDBRANCH  10  11
ENDBRANCH   3   5
BRANCH   2  17
ATOM     17  C   UNL     1       2.180   8.081  18.947  0.00  0.00    +0.000 A 
ATOM     18  C   UNL     1       1.964   7.450  20.179  0.00  0.00    +0.000 A 
ATOM     19  C   UNL     1       1.112   8.034  21.121  0.00  0.00    +0.000 A 
ATOM     20  C   UNL     1       0.481   9.238  20.835  0.00  0.00    +0.000 A 
ATOM     21  C   UNL     1       0.679   9.860  19.594  0.00  0.00    +0.000 A 
ATOM     22  C   UNL     1       1.536   9.280  18.650  0.00  0.00    +0.000 A 
BRANCH  21  23
ATOM     23  S   UNL     1       0.048  11.515  19.292  0.00  0.00    +0.000 S 
ATOM     24  O   UNL     1      -0.294  12.071  20.585  0.00  0.00    +0.000 OA
ATOM     25  O   UNL     1       1.015  12.162  18.436  0.00  0.00    +0.000 OA
BRANCH  23  26
ATOM     26  N   UNL     1      -1.390  11.296  18.398  0.00  0.00    +0.000 NA
ATOM     27  C   UNL     1      -1.476  10.050  17.598  0.00  0.00    +0.000 C 
ATOM     28  C   UNL     1      -2.692  10.042  16.680  0.00  0.00    +0.000 C 
ATOM     29  C   UNL     1      -3.970  10.367  17.439  0.00  0.00    +0.000 C 
ATOM     30  C   UNL     1      -3.828  11.726  18.103  0.00  0.00    +0.000 C 
ATOM     31  C   UNL     1      -2.634  11.760  19.054  0.00  0.00    +0.000 C 
ENDBRANCH  23  26
ENDBRANCH  21  23
ENDBRANCH   2  17
TORSDOF 5
ENDMDL
MODEL 4
REMARK VINA RESULT:      -8.8      1.876      3.746
REMARK  Name = 
REMARK  5 active torsions:
REMARK  status: ('A' for Active; 'I' for Inactive)
REMARK    1  A    between atoms: C_2  and  C_16
REMARK    2  A    between atoms: N_3  and  C_4
REMARK    3  A    between atoms: C_9  and  N_10
REMARK    4  A    between atoms: C_20  and  S_21
REMARK    5  A    between atoms: S_21  and  N_24
REMARK                            x       y       z     vdW  Elec       q    Type
REMARK                         _______ _______ _______ _____ _____    ______ ____
ROOT
ATOM      1  O   UNL     1       3.078   6.014  20.205  0.00  0.00    +0.000 OA
ATOM      2  C   UNL     1       2.485   6.382  19.178  0.00  0.00    +0.000 C 
ATOM      3  N   UNL     1       2.158   5.565  18.123  0.00  0.00    +0.000 N 
ATOM      4  H   UNL     1       1.674   5.907  17.296  0.00  0.00    +0.000 HD
ENDROOT
BRANCH   3   5
ATOM      5  C   UNL     1       2.468   4.191  18.144  0.00  0.00    +0.000 A 
ATOM      6  C   UNL     1       1.508   3.335  18.695  0.00  0.00    +0.000 A 
ATOM      7  C   UNL     1       1.767   1.975  18.808  0.00  0.00    +0.000 A 
ATOM      8  C   UNL     1       2.973   1.467  18.344  0.00  0.00    +0.000 A 
ATOM      9  C   UNL     1       3.935   2.326  17.801  0.00  0.00    +0.000 A 
ATOM     10  C   UNL     1       3.721   3.713  17.706  0.00  0.00    +0.000 A 
BRANCH  10  11
ATOM     11  N   UNL     1       4.707   4.554  17.220  0.00  0.00    +0.000 N 
ATOM     12  C   UNL     1       5.777   5.067  18.080  0.00  0.00    +0.000 C 
ATOM     13  C   UNL     1       6.063   6.514  17.642  0.00  0.00    +0.000 C 
ATOM     14  O   UNL     1       6.415   6.587  16.245  0.00  0.00    +0.000 OA
ATOM     15  C   UNL     1       5.370   6.029  15.426  0.00  0.00    +0.000 C 
ATOM     16  C   UNL     1       5.081   4.565  15.799  0.00  0.00    +0.000 C 
ENDBRANCH  10  11
ENDBRANCH   3   5
BRANCH   2  17
ATOM     17  C   UNL     1       2.100   7.802  19.075  0.00  0.00    +0.000 A 
ATOM     18  C   UNL     1       2.421   8.438  17.869  0.00  0.00    +0.000 A 
ATOM     19  C   UNL     1       2.085   9.781  17.679  0.00  0.00    +0.000 A 
ATOM     20  C   UNL     1       1.433  10.483  18.684  0.00  0.00    +0.000 A 
ATOM     21  C   UNL     1       1.130   9.855  19.901  0.00  0.00    +0.000 A 
ATOM     22  C   UNL     1       1.462   8.507  20.093  0.00  0.00    +0.000 A 
BRANCH  21  23
ATOM     23  S   UNL     1       0.101  10.677  21.122  0.00  0.00    +0.000 S 
ATOM     24  O   UNL     1      -0.461   9.638  21.958  0.00  0.00    +0.000 OA
ATOM     25  O   UNL     1       0.914  11.729  21.687  0.00  0.00    +0.000 OA
BRANCH  23  26
ATOM     26  N   UNL     1      -1.164  11.403  20.234  0.00  0.00    +0.000 NA
ATOM     27  C   UNL     1      -1.715  10.603  19.113  0.00  0.00    +0.000 C 
ATOM     28  C   UNL     1      -2.686  11.408  18.257  0.00  0.00    +0.000 C 
ATOM     29  C   UNL     1      -3.753  12.082  19.105  0.00  0.00    +0.000 C 
ATOM     30  C   UNL     1      -3.086  12.988  20.127  0.00  0.00    +0.000 C 
ATOM     31  C   UNL     1      -2.127  12.206  21.022  0.00  0.00    +0.000 C 
ENDBRANCH  23  26
ENDBRANCH  21  23
ENDBRANCH   2  17
TORSDOF 5
ENDMDL
MODEL 5
REMARK VINA RESULT:      -8.8      1.700      3.476
REMARK  Name = 
REMARK  5 active torsions:
REMARK  status: ('A' for Active; 'I' for Inactive)
REMARK    1  A    between atoms: C_2  and  C_16
REMARK    2  A    between atoms: N_3  and  C_4
REMARK    3  A    between atoms: C_9  and  N_10
REMARK    4  A    between atoms: C_20  and  S_21
REMARK    5  A    between atoms: S_21  and  N_24
REMARK                            x       y       z     vdW  Elec       q    Type
REMARK                         _______ _______ _______ _____ _____    ______ ____
ROOT
ATOM      1  O   UNL     1       2.423   6.136  20.342  0.00  0.00    +0.000 OA
ATOM      2  C   UNL     1       2.205   6.543  19.189  0.00  0.00    +0.000 C 
ATOM      3  N   UNL     1       2.183   5.751  18.066  0.00  0.00    +0.000 N 
ATOM      4  H   UNL     1       2.004   6.125  17.137  0.00  0.00    +0.000 HD
ENDROOT
BRANCH   3   5
ATOM      5  C   UNL     1       2.394   4.361  18.153  0.00  0.00    +0.000 A 
ATOM      6  C   UNL     1       1.361   3.599  18.710  0.00  0.00    +0.000 A 
ATOM      7  C   UNL     1       1.520   2.230  18.886  0.00  0.00    +0.000 A 
ATOM      8  C   UNL     1       2.699   1.620  18.478  0.00  0.00    +0.000 A 
ATOM      9  C   UNL     1       3.733   2.385  17.930  0.00  0.00    +0.000 A 
ATOM     10  C   UNL     1       3.622   3.778  17.772  0.00  0.00    +0.000 A 
BRANCH  10  11
ATOM     11  N   UNL     1       4.677   4.527  17.281  0.00  0.00    +0.000 N 
ATOM     12  C   UNL     1       5.702   5.088  18.166  0.00  0.00    +0.000 C 
ATOM     13  C   UNL     1       6.084   6.470  17.607  0.00  0.00    +0.000 C 
ATOM     14  O   UNL     1       6.541   6.382  16.242  0.00  0.00    +0.000 OA
ATOM     15  C   UNL     1       5.536   5.781  15.405  0.00  0.00    +0.000 C 
ATOM     16  C   UNL     1       5.155   4.375  15.901  0.00  0.00    +0.000 C 
ENDBRANCH  10  11
ENDBRANCH   3   5
BRANCH   2  17
ATOM     17  C   UNL     1       1.952   7.984  19.002  0.00  0.00    +0.000 A 
ATOM     18  C   UNL     1       2.582   8.580  17.904  0.00  0.00    +0.000 A 
ATOM     19  C   UNL     1       2.390   9.939  17.643  0.00  0.00    +0.000 A 
ATOM     20  C   UNL     1       1.575  10.698  18.473  0.00  0.00    +0.000 A 
ATOM     21  C   UNL     1       0.960  10.108  19.586  0.00  0.00    +0.000 A 
ATOM     22  C   UNL     1       1.147   8.744  19.848  0.00  0.00    +0.000 A 
BRANCH  21  23
ATOM     23  S   UNL     1      -0.264  11.014  20.539  0.00  0.00    +0.000 S 
ATOM     24  O   UNL     1      -0.486  10.258  21.754  0.00  0.00    +0.000 OA
ATOM     25  O   UNL     1       0.199  12.382  20.588  0.00  0.00    +0.000 OA
BRANCH  23  26
ATOM     26  N   UNL     1      -1.692  10.970  19.604  0.00  0.00    +0.000 NA
ATOM     27  C   UNL     1      -2.506  12.209  19.599  0.00  0.00    +0.000 C 
ATOM     28  C   UNL     1      -3.853  12.008  18.915  0.00  0.00    +0.000 C 
ATOM     29  C   UNL     1      -3.693  11.380  17.539  0.00  0.00    +0.000 C 
ATOM     30  C   UNL     1      -2.973  10.048  17.674  0.00  0.00    +0.000 C 
ATOM     31  C   UNL     1      -1.605  10.219  18.330  0.00  0.00    +0.000 C 
ENDBRANCH  23  26
ENDBRANCH  21  23
ENDBRANCH   2  17
TORSDOF 5
ENDMDL
MODEL 6
REMARK VINA RESULT:      -8.8      1.889      2.617
REMARK  Name = 
REMARK  5 active torsions:
REMARK  status: ('A' for Active; 'I' for Inactive)
REMARK    1  A    between atoms: C_2  and  C_16
REMARK    2  A    between atoms: N_3  and  C_4
REMARK    3  A    between atoms: C_9  and  N_10
REMARK    4  A    between atoms: C_20  and  S_21
REMARK    5  A    between atoms: S_21  and  N_24
REMARK                            x       y       z     vdW  Elec       q    Type
REMARK                         _______ _______ _______ _____ _____    ______ ____
ROOT
ATOM      1  O   UNL     1       2.431   8.480  17.326  0.00  0.00    +0.000 OA
ATOM      2  C   UNL     1       2.339   7.958  18.448  0.00  0.00    +0.000 C 
ATOM      3  N   UNL     1       2.926   6.771  18.815  0.00  0.00    +0.000 N 
ATOM      4  H   UNL     1       2.822   6.375  19.747  0.00  0.00    +0.000 HD
ENDROOT
BRANCH   3   5
ATOM      5  C   UNL     1       3.726   6.046  17.911  0.00  0.00    +0.000 A 
ATOM      6  C   UNL     1       4.467   6.790  16.986  0.00  0.00    +0.000 A 
ATOM      7  C   UNL     1       5.231   6.144  16.022  0.00  0.00    +0.000 A 
ATOM      8  C   UNL     1       5.278   4.756  16.002  0.00  0.00    +0.000 A 
ATOM      9  C   UNL     1       4.529   4.015  16.922  0.00  0.00    +0.000 A 
ATOM     10  C   UNL     1       3.715   4.635  17.887  0.00  0.00    +0.000 A 
BRANCH  10  11
ATOM     11  N   UNL     1       2.937   3.885  18.752  0.00  0.00    +0.000 N 
ATOM     12  C   UNL     1       1.581   3.457  18.395  0.00  0.00    +0.000 C 
ATOM     13  C   UNL     1       0.726   3.534  19.672  0.00  0.00    +0.000 C 
ATOM     14  O   UNL     1       1.282   2.730  20.733  0.00  0.00    +0.000 OA
ATOM     15  C   UNL     1       2.632   3.137  21.027  0.00  0.00    +0.000 C 
ATOM     16  C   UNL     1       3.536   3.033  19.788  0.00  0.00    +0.000 C 
ENDBRANCH  10  11
ENDBRANCH   3   5
BRANCH   2  17
ATOM     17  C   UNL     1       1.538   8.657  19.470  0.00  0.00    +0.000 A 
ATOM     18  C   UNL     1       1.545   8.088  20.750  0.00  0.00    +0.000 A 
ATOM     19  C   UNL     1       0.822   8.690  21.784  0.00  0.00    +0.000 A 
ATOM     20  C   UNL     1       0.098   9.850  21.542  0.00  0.00    +0.000 A 
ATOM     21  C   UNL     1       0.072  10.409  20.257  0.00  0.00    +0.000 A 
ATOM     22  C   UNL     1       0.798   9.811  19.219  0.00  0.00    +0.000 A 
BRANCH  21  23
ATOM     23  S   UNL     1      -0.676  12.018  19.977  0.00  0.00    +0.000 S 
ATOM     24  O   UNL     1       0.398  12.916  19.608  0.00  0.00    +0.000 OA
ATOM     25  O   UNL     1      -1.795  11.792  19.091  0.00  0.00    +0.000 OA
BRANCH  23  26
ATOM     26  N   UNL     1      -1.291  12.503  21.495  0.00  0.00    +0.000 NA
ATOM     27  C   UNL     1      -0.673  13.711  22.092  0.00  0.00    +0.000 C 
ATOM     28  C   UNL     1      -1.135  13.943  23.525  0.00  0.00    +0.000 C 
ATOM     29  C   UNL     1      -2.652  13.918  23.635  0.00  0.00    +0.000 C 
ATOM     30  C   UNL     1      -3.171  12.582  23.131  0.00  0.00    +0.000 C 
ATOM     31  C   UNL     1      -2.750  12.331  21.685  0.00  0.00    +0.000 C 
ENDBRANCH  23  26
ENDBRANCH  21  23
ENDBRANCH   2  17
TORSDOF 5
ENDMDL
MODEL 7
REMARK VINA RESULT:      -8.7      1.720      2.187
REMARK  Name = 
REMARK  5 active torsions:
REMARK  status: ('A' for Active; 'I' for Inactive)
REMARK    1  A    between atoms: C_2  and  C_16
REMARK    2  A    between atoms: N_3  and  C_4
REMARK    3  A    between atoms: C_9  and  N_10
REMARK    4  A    between atoms: C_20  and  S_21
REMARK    5  A    between atoms: S_21  and  N_24
REMARK                            x       y       z     vdW  Elec       q    Type
REMARK                         _______ _______ _______ _____ _____    ______ ____
ROOT
ATOM      1  O   UNL     1       2.175   8.344  17.423  0.00  0.00    +0.000 OA
ATOM      2  C   UNL     1       2.305   7.880  18.567  0.00  0.00    +0.000 C 
ATOM      3  N   UNL     1       3.065   6.783  18.890  0.00  0.00    +0.000 N 
ATOM      4  H   UNL     1       3.142   6.432  19.842  0.00  0.00    +0.000 HD
ENDROOT
BRANCH   3   5
ATOM      5  C   UNL     1       3.798   6.092  17.906  0.00  0.00    +0.000 A 
ATOM      6  C   UNL     1       4.570   6.865  17.032  0.00  0.00    +0.000 A 
ATOM      7  C   UNL     1       5.271   6.261  15.997  0.00  0.00    +0.000 A 
ATOM      8  C   UNL     1       5.225   4.880  15.853  0.00  0.00    +0.000 A 
ATOM      9  C   UNL     1       4.445   4.109  16.722  0.00  0.00    +0.000 A 
ATOM     10  C   UNL     1       3.693   4.692  17.758  0.00  0.00    +0.000 A 
BRANCH  10  11
ATOM     11  N   UNL     1       2.882   3.920  18.571  0.00  0.00    +0.000 N 
ATOM     12  C   UNL     1       2.142   2.766  18.052  0.00  0.00    +0.000 C 
ATOM     13  C   UNL     1       0.781   2.734  18.770  0.00  0.00    +0.000 C 
ATOM     14  O   UNL     1       0.938   2.671  20.202  0.00  0.00    +0.000 OA
ATOM     15  C   UNL     1       1.713   3.786  20.680  0.00  0.00    +0.000 C 
ATOM     16  C   UNL     1       3.102   3.833  20.021  0.00  0.00    +0.000 C 
ENDBRANCH  10  11
ENDBRANCH   3   5
BRANCH   2  17
ATOM     17  C   UNL     1       1.591   8.553  19.668  0.00  0.00    +0.000 A 
ATOM     18  C   UNL     1       1.452   7.814  20.850  0.00  0.00    +0.000 A 
ATOM     19  C   UNL     1       0.798   8.376  21.950  0.00  0.00    +0.000 A 
ATOM     20  C   UNL     1       0.287   9.665  21.871  0.00  0.00    +0.000 A 
ATOM     21  C   UNL     1       0.405  10.398  20.682  0.00  0.00    +0.000 A 
ATOM     22  C   UNL     1       1.064   9.840  19.578  0.00  0.00    +0.000 A 
BRANCH  21  23
ATOM     23  S   UNL     1      -0.054  12.134  20.630  0.00  0.00    +0.000 S 
ATOM     24  O   UNL     1       0.887  12.837  21.479  0.00  0.00    +0.000 OA
ATOM     25  O   UNL     1      -0.191  12.472  19.232  0.00  0.00    +0.000 OA
BRANCH  23  26
ATOM     26  N   UNL     1      -1.600  12.216  21.350  0.00  0.00    +0.000 NA
ATOM     27  C   UNL     1      -1.626  12.484  22.808  0.00  0.00    +0.000 C 
ATOM     28  C   UNL     1      -3.024  12.333  23.395  0.00  0.00    +0.000 C 
ATOM     29  C   UNL     1      -4.050  13.136  22.610  0.00  0.00    +0.000 C 
ATOM     30  C   UNL     1      -4.041  12.683  21.159  0.00  0.00    +0.000 C 
ATOM     31  C   UNL     1      -2.660  12.850  20.532  0.00  0.00    +0.000 C 
ENDBRANCH  23  26
ENDBRANCH  21  23
ENDBRANCH   2  17
TORSDOF 5
ENDMDL
MODEL 8
REMARK VINA RESULT:      -8.7      1.996      3.647
REMARK  Name = 
REMARK  5 active torsions:
REMARK  status: ('A' for Active; 'I' for Inactive)
REMARK    1  A    between atoms: C_2  and  C_16
REMARK    2  A    between atoms: N_3  and  C_4
REMARK    3  A    between atoms: C_9  and  N_10
REMARK    4  A    between atoms: C_20  and  S_21
REMARK    5  A    between atoms: S_21  and  N_24
REMARK                            x       y       z     vdW  Elec       q    Type
REMARK                         _______ _______ _______ _____ _____    ______ ____
ROOT
ATOM      1  O   UNL     1       2.647   6.003  20.338  0.00  0.00    +0.000 OA
ATOM      2  C   UNL     1       2.357   6.453  19.218  0.00  0.00    +0.000 C 
ATOM      3  N   UNL     1       2.309   5.715  18.060  0.00  0.00    +0.000 N 
ATOM      4  H   UNL     1       2.069   6.125  17.160  0.00  0.00    +0.000 HD
ENDROOT
BRANCH   3   5
ATOM      5  C   UNL     1       2.577   4.333  18.069  0.00  0.00    +0.000 A 
ATOM      6  C   UNL     1       1.513   3.484  18.395  0.00  0.00    +0.000 A 
ATOM      7  C   UNL     1       1.715   2.113  18.485  0.00  0.00    +0.000 A 
ATOM      8  C   UNL     1       2.973   1.587  18.220  0.00  0.00    +0.000 A 
ATOM      9  C   UNL     1       4.037   2.438  17.903  0.00  0.00    +0.000 A 
ATOM     10  C   UNL     1       3.878   3.834  17.840  0.00  0.00    +0.000 A 
BRANCH  10  11
ATOM     11  N   UNL     1       4.954   4.664  17.582  0.00  0.00    +0.000 N 
ATOM     12  C   UNL     1       4.993   5.533  16.402  0.00  0.00    +0.000 C 
ATOM     13  C   UNL     1       6.445   5.554  15.895  0.00  0.00    +0.000 C 
ATOM     14  O   UNL     1       7.359   5.997  16.920  0.00  0.00    +0.000 OA
ATOM     15  C   UNL     1       7.264   5.158  18.086  0.00  0.00    +0.000 C 
ATOM     16  C   UNL     1       5.835   5.144  18.656  0.00  0.00    +0.000 C 
ENDBRANCH  10  11
ENDBRANCH   3   5
BRANCH   2  17
ATOM     17  C   UNL     1       2.039   7.890  19.114  0.00  0.00    +0.000 A 
ATOM     18  C   UNL     1       2.413   8.516  17.919  0.00  0.00    +0.000 A 
ATOM     19  C   UNL     1       2.141   9.873  17.728  0.00  0.00    +0.000 A 
ATOM     20  C   UNL     1       1.501  10.600  18.724  0.00  0.00    +0.000 A 
ATOM     21  C   UNL     1       1.146   9.982  19.931  0.00  0.00    +0.000 A 
ATOM     22  C   UNL     1       1.413   8.620  20.123  0.00  0.00    +0.000 A 
BRANCH  21  23
ATOM     23  S   UNL     1       0.131  10.845  21.135  0.00  0.00    +0.000 S 
ATOM     24  O   UNL     1      -0.392   9.838  22.035  0.00  0.00    +0.000 OA
ATOM     25  O   UNL     1       0.937  11.938  21.628  0.00  0.00    +0.000 OA
BRANCH  23  26
ATOM     26  N   UNL     1      -1.169  11.503  20.244  0.00  0.00    +0.000 NA
ATOM     27  C   UNL     1      -1.652  10.692  19.102  0.00  0.00    +0.000 C 
ATOM     28  C   UNL     1      -2.664  11.447  18.248  0.00  0.00    +0.000 C 
ATOM     29  C   UNL     1      -3.783  12.035  19.094  0.00  0.00    +0.000 C 
ATOM     30  C   UNL     1      -3.188  12.962  20.141  0.00  0.00    +0.000 C 
ATOM     31  C   UNL     1      -2.191  12.227  21.034  0.00  0.00    +0.000 C 
ENDBRANCH  23  26
ENDBRANCH  21  23
ENDBRANCH   2  17
TORSDOF 5
ENDMDL
MODEL 9
REMARK VINA RESULT:      -8.7      1.316      1.685
REMARK  Name = 
REMARK  5 active torsions:
REMARK  status: ('A' for Active; 'I' for Inactive)
REMARK    1  A    between atoms: C_2  and  C_16
REMARK    2  A    between atoms: N_3  and  C_4
REMARK    3  A    between atoms: C_9  and  N_10
REMARK    4  A    between atoms: C_20  and  S_21
REMARK    5  A    between atoms: S_21  and  N_24
REMARK                            x       y       z     vdW  Elec       q    Type
REMARK                         _______ _______ _______ _____ _____    ______ ____
ROOT
ATOM      1  O   UNL     1       4.231   5.980  19.742  0.00  0.00    +0.000 OA
ATOM      2  C   UNL     1       3.393   6.505  18.992  0.00  0.00    +0.000 C 
ATOM      3  N   UNL     1       3.350   6.347  17.627  0.00  0.00    +0.000 N 
ATOM      4  H   UNL     1       2.647   6.799  17.047  0.00  0.00    +0.000 HD
ENDROOT
BRANCH   3   5
ATOM      5  C   UNL     1       4.280   5.526  16.961  0.00  0.00    +0.000 A 
ATOM      6  C   UNL     1       5.131   6.151  16.044  0.00  0.00    +0.000 A 
ATOM      7  C   UNL     1       6.033   5.398  15.302  0.00  0.00    +0.000 A 
ATOM      8  C   UNL     1       6.105   4.026  15.501  0.00  0.00    +0.000 A 
ATOM      9  C   UNL     1       5.247   3.402  16.413  0.00  0.00    +0.000 A 
ATOM     10  C   UNL     1       4.296   4.128  17.152  0.00  0.00    +0.000 A 
BRANCH  10  11
ATOM     11  N   UNL     1       3.416   3.487  18.007  0.00  0.00    +0.000 N 
ATOM     12  C   UNL     1       2.015   3.257  17.642  0.00  0.00    +0.000 C 
ATOM     13  C   UNL     1       1.174   3.441  18.917  0.00  0.00    +0.000 C 
ATOM     14  O   UNL     1       1.607   2.556  19.971  0.00  0.00    +0.000 OA
ATOM     15  C   UNL     1       2.999   2.767  20.274  0.00  0.00    +0.000 C 
ATOM     16  C   UNL     1       3.885   2.548  19.035  0.00  0.00    +0.000 C 
ENDBRANCH  10  11
ENDBRANCH   3   5
BRANCH   2  17
ATOM     17  C   UNL     1       2.363   7.366  19.603  0.00  0.00    +0.000 A 
ATOM     18  C   UNL     1       1.759   6.868  20.764  0.00  0.00    +0.000 A 
ATOM     19  C   UNL     1       0.780   7.621  21.418  0.00  0.00    +0.000 A 
ATOM     20  C   UNL     1       0.407   8.861  20.916  0.00  0.00    +0.000 A 
ATOM     21  C   UNL     1       0.995   9.352  19.742  0.00  0.00    +0.000 A 
ATOM     22  C   UNL     1       1.980   8.602  19.087  0.00  0.00    +0.000 A 
BRANCH  21  23
ATOM     23  S   UNL     1       0.685  11.037  19.202  0.00  0.00    +0.000 S 
ATOM     24  O   UNL     1       0.553  11.839  20.400  0.00  0.00    +0.000 OA
ATOM     25  O   UNL     1       1.698  11.334  18.215  0.00  0.00    +0.000 OA
BRANCH  23  26
ATOM     26  N   UNL     1      -0.828  10.989  18.412  0.00  0.00    +0.000 NA
ATOM     27  C   UNL     1      -1.084   9.799  17.567  0.00  0.00    +0.000 C 
ATOM     28  C   UNL     1      -2.360   9.942  16.745  0.00  0.00    +0.000 C 
ATOM     29  C   UNL     1      -3.544  10.338  17.614  0.00  0.00    +0.000 C 
ATOM     30  C   UNL     1      -3.232  11.644  18.325  0.00  0.00    +0.000 C 
ATOM     31  C   UNL     1      -1.975  11.525  19.182  0.00  0.00    +0.000 C 
ENDBRANCH  23  26
ENDBRANCH  21  23
ENDBRANCH   2  17
TORSDOF 5
ENDMDL
