MODEL 1
REMARK VINA RESULT:      -7.2      0.000      0.000
REMARK  Name = 
REMARK  4 active torsions:
REMARK  status: ('A' for Active; 'I' for Inactive)
REMARK    1  A    between atoms: C_6  and  N_7
REMARK    2  A    between atoms: N_7  and  C_8
REMARK    3  A    between atoms: C_10  and  C_11
REMARK    4  A    between atoms: C_21  and  C_22
REMARK                            x       y       z     vdW  Elec       q    Type
REMARK                         _______ _______ _______ _____ _____    ______ ____
ROOT
ATOM      1  C   UNL     1       4.607   4.038  19.748  0.00  0.00    +0.000 A 
ATOM      2  N   UNL     1       5.278   2.916  20.055  0.00  0.00    +0.000 NA
ATOM      3  C   UNL     1       4.668   1.905  20.694  0.00  0.00    +0.000 A 
ATOM      4  N   UNL     1       3.388   1.906  21.083  0.00  0.00    +0.000 NA
ATOM      5  C   UNL     1       2.736   3.038  20.767  0.00  0.00    +0.000 A 
ATOM      6  S   UNL     1       1.111   3.218  21.229  0.00  0.00    +0.000 S 
ATOM      7  C   UNL     1       1.026   4.770  20.535  0.00  0.00    +0.000 A 
ATOM      8  C   UNL     1       2.208   5.167  19.930  0.00  0.00    +0.000 A 
ATOM      9  C   UNL     1       3.242   4.143  20.094  0.00  0.00    +0.000 A 
ENDROOT
BRANCH   3  10
ATOM     10  C   UNL     1       5.505   0.724  21.026  0.00  0.00    +0.000 A 
ATOM     11  C   UNL     1       5.593  -0.384  20.180  0.00  0.00    +0.000 A 
ATOM     12  C   UNL     1       6.360  -1.482  20.567  0.00  0.00    +0.000 A 
ATOM     13  C   UNL     1       7.030  -1.450  21.782  0.00  0.00    +0.000 A 
ATOM     14  C   UNL     1       6.912  -0.319  22.565  0.00  0.00    +0.000 A 
ATOM     15  N   UNL     1       6.173   0.754  22.219  0.00  0.00    +0.000 NA
ENDBRANCH   3  10
BRANCH   8  16
ATOM     16  C   UNL     1       2.270   6.472  19.247  0.00  0.00    +0.000 A 
ATOM     17  C   UNL     1       2.758   6.589  17.942  0.00  0.00    +0.000 A 
ATOM     18  C   UNL     1       2.717   7.804  17.251  0.00  0.00    +0.000 A 
ATOM     19  C   UNL     1       2.270   8.951  17.893  0.00  0.00    +0.000 A 
ATOM     20  C   UNL     1       1.861   8.878  19.222  0.00  0.00    +0.000 A 
ATOM     21  C   UNL     1       1.841   7.645  19.886  0.00  0.00    +0.000 A 
ENDBRANCH   8  16
BRANCH   1  22
ATOM     22  N   UNL     1       5.320   5.061  19.119  0.00  0.00    +0.000 N 
ATOM     23  H   UNL     1       4.736   5.407  18.351  0.00  0.00    +0.000 HD
BRANCH  22  29
ATOM     24  O   UNL     1       5.282   5.933  16.041  0.00  0.00    +0.000 OA
ATOM     25  S   UNL     1       6.683   5.718  16.346  0.00  0.00    +0.000 S 
ATOM     26  O   UNL     1       7.703   5.708  15.321  0.00  0.00    +0.000 OA
ATOM     27  C   UNL     1       7.152   6.874  17.619  0.00  0.00    +0.000 C 
ATOM     28  C   UNL     1       7.556   6.012  18.810  0.00  0.00    +0.000 C 
ATOM     29  C   UNL     1       6.704   4.736  18.748  0.00  0.00    +0.000 C 
ATOM     30  C   UNL     1       6.823   4.237  17.313  0.00  0.00    +0.000 C 
ENDBRANCH  22  29
ENDBRANCH   1  22
TORSDOF 4
ENDMDL
MODEL 2
REMARK VINA RESULT:      -7.0      7.229     10.152
REMARK  Name = 
REMARK  4 active torsions:
REMARK  status: ('A' for Active; 'I' for Inactive)
REMARK    1  A    between atoms: C_6  and  N_7
REMARK    2  A    between atoms: N_7  and  C_8
REMARK    3  A    between atoms: C_10  and  C_11
REMARK    4  A    between atoms: C_21  and  C_22
REMARK                            x       y       z     vdW  Elec       q    Type
REMARK                         _______ _______ _______ _____ _____    ______ ____
ROOT
ATOM      1  C   UNL     1       1.284  13.103  18.907  0.00  0.00    +0.000 A 
ATOM      2  N   UNL     1       1.725  11.845  18.749  0.00  0.00    +0.000 NA
ATOM      3  C   UNL     1       1.000  10.804  19.186  0.00  0.00    +0.000 A 
ATOM      4  N   UNL     1      -0.182  10.900  19.804  0.00  0.00    +0.000 NA
ATOM      5  C   UNL     1      -0.605  12.167  19.953  0.00  0.00    +0.000 A 
ATOM      6  S   UNL     1      -2.071  12.467  20.758  0.00  0.00    +0.000 S 
ATOM      7  C   UNL     1      -1.904  14.148  20.557  0.00  0.00    +0.000 A 
ATOM      8  C   UNL     1      -0.758  14.509  19.866  0.00  0.00    +0.000 A 
ATOM      9  C   UNL     1       0.037  13.325  19.530  0.00  0.00    +0.000 A 
ENDROOT
BRANCH   3  10
ATOM     10  C   UNL     1       1.592   9.454  19.003  0.00  0.00    +0.000 A 
ATOM     11  C   UNL     1       2.176   9.058  17.798  0.00  0.00    +0.000 A 
ATOM     12  C   UNL     1       2.675   7.763  17.672  0.00  0.00    +0.000 A 
ATOM     13  C   UNL     1       2.591   6.892  18.749  0.00  0.00    +0.000 A 
ATOM     14  C   UNL     1       2.013   7.351  19.916  0.00  0.00    +0.000 A 
ATOM     15  N   UNL     1       1.517   8.596  20.065  0.00  0.00    +0.000 NA
ENDBRANCH   3  10
BRANCH   8  16
ATOM     16  C   UNL     1      -0.501  15.931  19.578  0.00  0.00    +0.000 A 
ATOM     17  C   UNL     1      -0.301  16.858  20.605  0.00  0.00    +0.000 A 
ATOM     18  C   UNL     1       0.052  18.184  20.335  0.00  0.00    +0.000 A 
ATOM     19  C   UNL     1       0.117  18.631  19.023  0.00  0.00    +0.000 A 
ATOM     20  C   UNL     1      -0.164  17.748  17.983  0.00  0.00    +0.000 A 
ATOM     21  C   UNL     1      -0.450  16.405  18.258  0.00  0.00    +0.000 A 
ENDBRANCH   8  16
BRANCH   1  22
ATOM     22  N   UNL     1       2.113  14.135  18.461  0.00  0.00    +0.000 N 
ATOM     23  H   UNL     1       2.081  14.126  17.436  0.00  0.00    +0.000 HD
BRANCH  22  29
ATOM     24  O   UNL     1       3.087  17.012  17.456  0.00  0.00    +0.000 OA
ATOM     25  S   UNL     1       4.081  16.605  18.430  0.00  0.00    +0.000 S 
ATOM     26  O   UNL     1       5.313  17.338  18.626  0.00  0.00    +0.000 OA
ATOM     27  C   UNL     1       3.264  16.414  20.002  0.00  0.00    +0.000 C 
ATOM     28  C   UNL     1       3.432  14.942  20.360  0.00  0.00    +0.000 C 
ATOM     29  C   UNL     1       3.464  14.160  19.039  0.00  0.00    +0.000 C 
ATOM     30  C   UNL     1       4.464  14.896  18.156  0.00  0.00    +0.000 C 
ENDBRANCH  22  29
ENDBRANCH   1  22
TORSDOF 4
ENDMDL
MODEL 3
REMARK VINA RESULT:      -6.9      6.125      8.807
REMARK  Name = 
REMARK  4 active torsions:
REMARK  status: ('A' for Active; 'I' for Inactive)
REMARK    1  A    between atoms: C_6  and  N_7
REMARK    2  A    between atoms: N_7  and  C_8
REMARK    3  A    between atoms: C_10  and  C_11
REMARK    4  A    between atoms: C_21  and  C_22
REMARK                            x       y       z     vdW  Elec       q    Type
REMARK                         _______ _______ _______ _____ _____    ______ ____
ROOT
ATOM      1  C   UNL     1       0.754  11.121  19.949  0.00  0.00    +0.000 A 
ATOM      2  N   UNL     1       1.412  10.116  19.350  0.00  0.00    +0.000 NA
ATOM      3  C   UNL     1       1.425   8.887  19.890  0.00  0.00    +0.000 A 
ATOM      4  N   UNL     1       0.817   8.546  21.032  0.00  0.00    +0.000 NA
ATOM      5  C   UNL     1       0.165   9.567  21.614  0.00  0.00    +0.000 A 
ATOM      6  S   UNL     1      -0.626   9.312  23.096  0.00  0.00    +0.000 S 
ATOM      7  C   UNL     1      -1.147  10.931  23.163  0.00  0.00    +0.000 A 
ATOM      8  C   UNL     1      -0.753  11.681  22.066  0.00  0.00    +0.000 A 
ATOM      9  C   UNL     1       0.058  10.873  21.152  0.00  0.00    +0.000 A 
ENDROOT
BRANCH   3  10
ATOM     10  C   UNL     1       2.216   7.853  19.176  0.00  0.00    +0.000 A 
ATOM     11  C   UNL     1       2.824   8.103  17.944  0.00  0.00    +0.000 A 
ATOM     12  C   UNL     1       3.516   7.078  17.301  0.00  0.00    +0.000 A 
ATOM     13  C   UNL     1       3.597   5.829  17.901  0.00  0.00    +0.000 A 
ATOM     14  C   UNL     1       2.984   5.652  19.126  0.00  0.00    +0.000 A 
ATOM     15  N   UNL     1       2.303   6.623  19.768  0.00  0.00    +0.000 NA
ENDBRANCH   3  10
BRANCH   8  16
ATOM     16  C   UNL     1      -1.169  13.091  21.964  0.00  0.00    +0.000 A 
ATOM     17  C   UNL     1      -1.982  13.537  20.917  0.00  0.00    +0.000 A 
ATOM     18  C   UNL     1      -2.470  14.846  20.876  0.00  0.00    +0.000 A 
ATOM     19  C   UNL     1      -2.072  15.764  21.839  0.00  0.00    +0.000 A 
ATOM     20  C   UNL     1      -1.193  15.367  22.843  0.00  0.00    +0.000 A 
ATOM     21  C   UNL     1      -0.763  14.038  22.917  0.00  0.00    +0.000 A 
ENDBRANCH   8  16
BRANCH   1  22
ATOM     22  N   UNL     1       0.820  12.380  19.347  0.00  0.00    +0.000 N 
ATOM     23  H   UNL     1       0.270  12.331  18.483  0.00  0.00    +0.000 HD
BRANCH  22  29
ATOM     24  O   UNL     1       0.078  15.401  18.596  0.00  0.00    +0.000 OA
ATOM     25  S   UNL     1       1.503  15.426  18.863  0.00  0.00    +0.000 S 
ATOM     26  O   UNL     1       2.319  16.586  18.581  0.00  0.00    +0.000 OA
ATOM     27  C   UNL     1       1.752  14.940  20.560  0.00  0.00    +0.000 C 
ATOM     28  C   UNL     1       2.571  13.656  20.489  0.00  0.00    +0.000 C 
ATOM     29  C   UNL     1       2.170  12.940  19.191  0.00  0.00    +0.000 C 
ATOM     30  C   UNL     1       2.239  14.004  18.102  0.00  0.00    +0.000 C 
ENDBRANCH  22  29
ENDBRANCH   1  22
TORSDOF 4
ENDMDL
MODEL 4
REMARK VINA RESULT:      -6.9     10.165     13.086
REMARK  Name = 
REMARK  4 active torsions:
REMARK  status: ('A' for Active; 'I' for Inactive)
REMARK    1  A    between atoms: C_6  and  N_7
REMARK    2  A    between atoms: N_7  and  C_8
REMARK    3  A    between atoms: C_10  and  C_11
REMARK    4  A    between atoms: C_21  and  C_22
REMARK                            x       y       z     vdW  Elec       q    Type
REMARK                         _______ _______ _______ _____ _____    ______ ____
ROOT
ATOM      1  C   UNL     1      -3.487  13.198  20.111  0.00  0.00    +0.000 A 
ATOM      2  N   UNL     1      -3.513  14.000  21.187  0.00  0.00    +0.000 NA
ATOM      3  C   UNL     1      -4.632  14.135  21.915  0.00  0.00    +0.000 A 
ATOM      4  N   UNL     1      -5.792  13.520  21.657  0.00  0.00    +0.000 NA
ATOM      5  C   UNL     1      -5.744  12.723  20.576  0.00  0.00    +0.000 A 
ATOM      6  S   UNL     1      -7.148  11.900  20.086  0.00  0.00    +0.000 S 
ATOM      7  C   UNL     1      -6.339  11.186  18.770  0.00  0.00    +0.000 A 
ATOM      8  C   UNL     1      -5.001  11.537  18.691  0.00  0.00    +0.000 A 
ATOM      9  C   UNL     1      -4.650  12.482  19.755  0.00  0.00    +0.000 A 
ENDROOT
BRANCH   3  10
ATOM     10  C   UNL     1      -4.573  15.077  23.061  0.00  0.00    +0.000 A 
ATOM     11  C   UNL     1      -5.631  15.934  23.372  0.00  0.00    +0.000 A 
ATOM     12  C   UNL     1      -5.499  16.828  24.434  0.00  0.00    +0.000 A 
ATOM     13  C   UNL     1      -4.322  16.845  25.168  0.00  0.00    +0.000 A 
ATOM     14  C   UNL     1      -3.320  15.962  24.816  0.00  0.00    +0.000 A 
ATOM     15  N   UNL     1      -3.417  15.092  23.792  0.00  0.00    +0.000 NA
ENDBRANCH   3  10
BRANCH   8  16
ATOM     16  C   UNL     1      -4.161  10.960  17.626  0.00  0.00    +0.000 A 
ATOM     17  C   UNL     1      -4.437  11.189  16.275  0.00  0.00    +0.000 A 
ATOM     18  C   UNL     1      -3.582  10.736  15.266  0.00  0.00    +0.000 A 
ATOM     19  C   UNL     1      -2.478   9.960  15.590  0.00  0.00    +0.000 A 
ATOM     20  C   UNL     1      -2.229   9.645  16.923  0.00  0.00    +0.000 A 
ATOM     21  C   UNL     1      -3.051  10.158  17.933  0.00  0.00    +0.000 A 
ENDBRANCH   8  16
BRANCH   1  22
ATOM     22  N   UNL     1      -2.297  13.140  19.381  0.00  0.00    +0.000 N 
ATOM     23  H   UNL     1      -2.144  12.158  19.132  0.00  0.00    +0.000 HD
BRANCH  22  29
ATOM     24  O   UNL     1      -0.672  10.592  20.432  0.00  0.00    +0.000 OA
ATOM     25  S   UNL     1       0.252  11.702  20.568  0.00  0.00    +0.000 S 
ATOM     26  O   UNL     1       1.514  11.572  21.264  0.00  0.00    +0.000 OA
ATOM     27  C   UNL     1       0.550  12.371  18.944  0.00  0.00    +0.000 C 
ATOM     28  C   UNL     1       0.030  13.803  19.003  0.00  0.00    +0.000 C 
ATOM     29  C   UNL     1      -1.143  13.812  19.994  0.00  0.00    +0.000 C 
ATOM     30  C   UNL     1      -0.634  13.087  21.233  0.00  0.00    +0.000 C 
ENDBRANCH  22  29
ENDBRANCH   1  22
TORSDOF 4
ENDMDL
MODEL 5
REMARK VINA RESULT:      -6.8     10.239     13.016
REMARK  Name = 
REMARK  4 active torsions:
REMARK  status: ('A' for Active; 'I' for Inactive)
REMARK    1  A    between atoms: C_6  and  N_7
REMARK    2  A    between atoms: N_7  and  C_8
REMARK    3  A    between atoms: C_10  and  C_11
REMARK    4  A    between atoms: C_21  and  C_22
REMARK                            x       y       z     vdW  Elec       q    Type
REMARK                         _______ _______ _______ _____ _____    ______ ____
ROOT
ATOM      1  C   UNL     1      -3.527  13.128  20.088  0.00  0.00    +0.000 A 
ATOM      2  N   UNL     1      -3.525  13.916  21.175  0.00  0.00    +0.000 NA
ATOM      3  C   UNL     1      -4.628  14.047  21.928  0.00  0.00    +0.000 A 
ATOM      4  N   UNL     1      -5.796  13.442  21.687  0.00  0.00    +0.000 NA
ATOM      5  C   UNL     1      -5.776  12.659  20.595  0.00  0.00    +0.000 A 
ATOM      6  S   UNL     1      -7.194  11.850  20.124  0.00  0.00    +0.000 S 
ATOM      7  C   UNL     1      -6.418  11.150  18.782  0.00  0.00    +0.000 A 
ATOM      8  C   UNL     1      -5.079  11.495  18.679  0.00  0.00    +0.000 A 
ATOM      9  C   UNL     1      -4.701  12.423  19.747  0.00  0.00    +0.000 A 
ENDROOT
BRANCH   3  10
ATOM     10  C   UNL     1      -4.539  14.974  23.085  0.00  0.00    +0.000 A 
ATOM     11  C   UNL     1      -5.543  15.901  23.372  0.00  0.00    +0.000 A 
ATOM     12  C   UNL     1      -5.383  16.774  24.446  0.00  0.00    +0.000 A 
ATOM     13  C   UNL     1      -4.231  16.702  25.218  0.00  0.00    +0.000 A 
ATOM     14  C   UNL     1      -3.283  15.753  24.888  0.00  0.00    +0.000 A 
ATOM     15  N   UNL     1      -3.409  14.900  23.852  0.00  0.00    +0.000 NA
ENDBRANCH   3  10
BRANCH   8  16
ATOM     16  C   UNL     1      -4.266  10.927  17.588  0.00  0.00    +0.000 A 
ATOM     17  C   UNL     1      -4.331  11.438  16.288  0.00  0.00    +0.000 A 
ATOM     18  C   UNL     1      -3.482  10.977  15.278  0.00  0.00    +0.000 A 
ATOM     19  C   UNL     1      -2.613   9.925  15.530  0.00  0.00    +0.000 A 
ATOM     20  C   UNL     1      -2.590   9.341  16.793  0.00  0.00    +0.000 A 
ATOM     21  C   UNL     1      -3.394   9.852  17.819  0.00  0.00    +0.000 A 
ENDBRANCH   8  16
BRANCH   1  22
ATOM     22  N   UNL     1      -2.353  13.074  19.332  0.00  0.00    +0.000 N 
ATOM     23  H   UNL     1      -2.625  13.157  18.347  0.00  0.00    +0.000 HD
BRANCH  22  29
ATOM     24  O   UNL     1       0.459  14.416  18.604  0.00  0.00    +0.000 OA
ATOM     25  S   UNL     1       0.804  13.188  19.294  0.00  0.00    +0.000 S 
ATOM     26  O   UNL     1       2.161  12.694  19.356  0.00  0.00    +0.000 OA
ATOM     27  C   UNL     1       0.145  13.284  20.948  0.00  0.00    +0.000 C 
ATOM     28  C   UNL     1      -0.864  12.144  21.040  0.00  0.00    +0.000 C 
ATOM     29  C   UNL     1      -1.452  11.953  19.635  0.00  0.00    +0.000 C 
ATOM     30  C   UNL     1      -0.254  11.896  18.696  0.00  0.00    +0.000 C 
ENDBRANCH  22  29
ENDBRANCH   1  22
TORSDOF 4
ENDMDL
MODEL 6
REMARK VINA RESULT:      -6.8      7.214     10.132
REMARK  Name = 
REMARK  4 active torsions:
REMARK  status: ('A' for Active; 'I' for Inactive)
REMARK    1  A    between atoms: C_6  and  N_7
REMARK    2  A    between atoms: N_7  and  C_8
REMARK    3  A    between atoms: C_10  and  C_11
REMARK    4  A    between atoms: C_21  and  C_22
REMARK                            x       y       z     vdW  Elec       q    Type
REMARK                         _______ _______ _______ _____ _____    ______ ____
ROOT
ATOM      1  C   UNL     1       1.265  13.058  18.806  0.00  0.00    +0.000 A 
ATOM      2  N   UNL     1       1.707  11.801  18.642  0.00  0.00    +0.000 NA
ATOM      3  C   UNL     1       0.980  10.757  19.071  0.00  0.00    +0.000 A 
ATOM      4  N   UNL     1      -0.204  10.850  19.686  0.00  0.00    +0.000 NA
ATOM      5  C   UNL     1      -0.627  12.116  19.841  0.00  0.00    +0.000 A 
ATOM      6  S   UNL     1      -2.096  12.411  20.643  0.00  0.00    +0.000 S 
ATOM      7  C   UNL     1      -1.928  14.094  20.453  0.00  0.00    +0.000 A 
ATOM      8  C   UNL     1      -0.779  14.458  19.768  0.00  0.00    +0.000 A 
ATOM      9  C   UNL     1       0.016  13.276  19.427  0.00  0.00    +0.000 A 
ENDROOT
BRANCH   3  10
ATOM     10  C   UNL     1       1.572   9.408  18.881  0.00  0.00    +0.000 A 
ATOM     11  C   UNL     1       1.578   8.451  19.897  0.00  0.00    +0.000 A 
ATOM     12  C   UNL     1       2.189   7.218  19.674  0.00  0.00    +0.000 A 
ATOM     13  C   UNL     1       2.772   6.960  18.441  0.00  0.00    +0.000 A 
ATOM     14  C   UNL     1       2.719   7.945  17.475  0.00  0.00    +0.000 A 
ATOM     15  N   UNL     1       2.141   9.148  17.665  0.00  0.00    +0.000 NA
ENDBRANCH   3  10
BRANCH   8  16
ATOM     16  C   UNL     1      -0.521  15.882  19.489  0.00  0.00    +0.000 A 
ATOM     17  C   UNL     1      -0.411  16.360  18.179  0.00  0.00    +0.000 A 
ATOM     18  C   UNL     1      -0.278  17.725  17.907  0.00  0.00    +0.000 A 
ATOM     19  C   UNL     1      -0.157  18.631  18.951  0.00  0.00    +0.000 A 
ATOM     20  C   UNL     1      -0.176  18.170  20.265  0.00  0.00    +0.000 A 
ATOM     21  C   UNL     1      -0.378  16.811  20.531  0.00  0.00    +0.000 A 
ENDBRANCH   8  16
BRANCH   1  22
ATOM     22  N   UNL     1       2.096  14.092  18.370  0.00  0.00    +0.000 N 
ATOM     23  H   UNL     1       2.075  14.083  17.344  0.00  0.00    +0.000 HD
BRANCH  22  29
ATOM     24  O   UNL     1       3.039  17.007  17.448  0.00  0.00    +0.000 OA
ATOM     25  S   UNL     1       4.030  16.589  18.421  0.00  0.00    +0.000 S 
ATOM     26  O   UNL     1       5.249  17.333  18.648  0.00  0.00    +0.000 OA
ATOM     27  C   UNL     1       3.200  16.346  19.979  0.00  0.00    +0.000 C 
ATOM     28  C   UNL     1       3.385  14.868  20.302  0.00  0.00    +0.000 C 
ATOM     29  C   UNL     1       3.441  14.121  18.962  0.00  0.00    +0.000 C 
ATOM     30  C   UNL     1       4.439  14.892  18.108  0.00  0.00    +0.000 C 
ENDBRANCH  22  29
ENDBRANCH   1  22
TORSDOF 4
ENDMDL
MODEL 7
REMARK VINA RESULT:      -6.8     10.458     12.569
REMARK  Name = 
REMARK  4 active torsions:
REMARK  status: ('A' for Active; 'I' for Inactive)
REMARK    1  A    between atoms: C_6  and  N_7
REMARK    2  A    between atoms: N_7  and  C_8
REMARK    3  A    between atoms: C_10  and  C_11
REMARK    4  A    between atoms: C_21  and  C_22
REMARK                            x       y       z     vdW  Elec       q    Type
REMARK                         _______ _______ _______ _____ _____    ______ ____
ROOT
ATOM      1  C   UNL     1      -3.061  13.251  20.446  0.00  0.00    +0.000 A 
ATOM      2  N   UNL     1      -2.867  12.582  19.299  0.00  0.00    +0.000 NA
ATOM      3  C   UNL     1      -3.851  11.846  18.759  0.00  0.00    +0.000 A 
ATOM      4  N   UNL     1      -5.073  11.700  19.283  0.00  0.00    +0.000 NA
ATOM      5  C   UNL     1      -5.246  12.376  20.431  0.00  0.00    +0.000 A 
ATOM      6  S   UNL     1      -6.730  12.263  21.250  0.00  0.00    +0.000 S 
ATOM      7  C   UNL     1      -6.192  13.298  22.489  0.00  0.00    +0.000 A 
ATOM      8  C   UNL     1      -4.899  13.759  22.297  0.00  0.00    +0.000 A 
ATOM      9  C   UNL     1      -4.320  13.185  21.080  0.00  0.00    +0.000 A 
ENDROOT
BRANCH   3  10
ATOM     10  C   UNL     1      -3.527  11.110  17.511  0.00  0.00    +0.000 A 
ATOM     11  C   UNL     1      -2.508  10.157  17.455  0.00  0.00    +0.000 A 
ATOM     12  C   UNL     1      -2.220   9.531  16.243  0.00  0.00    +0.000 A 
ATOM     13  C   UNL     1      -2.958   9.859  15.115  0.00  0.00    +0.000 A 
ATOM     14  C   UNL     1      -3.961  10.801  15.241  0.00  0.00    +0.000 A 
ATOM     15  N   UNL     1      -4.257  11.426  16.398  0.00  0.00    +0.000 NA
ENDBRANCH   3  10
BRANCH   8  16
ATOM     16  C   UNL     1      -4.314  14.701  23.268  0.00  0.00    +0.000 A 
ATOM     17  C   UNL     1      -3.755  14.254  24.470  0.00  0.00    +0.000 A 
ATOM     18  C   UNL     1      -3.100  15.129  25.342  0.00  0.00    +0.000 A 
ATOM     19  C   UNL     1      -3.076  16.490  25.070  0.00  0.00    +0.000 A 
ATOM     20  C   UNL     1      -3.701  16.971  23.923  0.00  0.00    +0.000 A 
ATOM     21  C   UNL     1      -4.296  16.082  23.019  0.00  0.00    +0.000 A 
ENDBRANCH   8  16
BRANCH   1  22
ATOM     22  N   UNL     1      -1.977  13.962  20.966  0.00  0.00    +0.000 N 
ATOM     23  H   UNL     1      -1.445  14.326  20.168  0.00  0.00    +0.000 HD
BRANCH  22  29
ATOM     24  O   UNL     1       0.892  14.056  19.553  0.00  0.00    +0.000 OA
ATOM     25  S   UNL     1       1.162  13.610  20.906  0.00  0.00    +0.000 S 
ATOM     26  O   UNL     1       2.462  13.124  21.313  0.00  0.00    +0.000 OA
ATOM     27  C   UNL     1       0.649  14.900  22.023  0.00  0.00    +0.000 C 
ATOM     28  C   UNL     1      -0.461  14.280  22.863  0.00  0.00    +0.000 C 
ATOM     29  C   UNL     1      -1.175  13.253  21.974  0.00  0.00    +0.000 C 
ATOM     30  C   UNL     1      -0.067  12.412  21.354  0.00  0.00    +0.000 C 
ENDBRANCH  22  29
ENDBRANCH   1  22
TORSDOF 4
ENDMDL
MODEL 8
REMARK VINA RESULT:      -6.7      9.802     13.080
REMARK  Name = 
REMARK  4 active torsions:
REMARK  status: ('A' for Active; 'I' for Inactive)
REMARK    1  A    between atoms: C_6  and  N_7
REMARK    2  A    between atoms: N_7  and  C_8
REMARK    3  A    between atoms: C_10  and  C_11
REMARK    4  A    between atoms: C_21  and  C_22
REMARK                            x       y       z     vdW  Elec       q    Type
REMARK                         _______ _______ _______ _____ _____    ______ ____
ROOT
ATOM      1  C   UNL     1      -2.445  13.037  20.611  0.00  0.00    +0.000 A 
ATOM      2  N   UNL     1      -2.325  13.842  21.678  0.00  0.00    +0.000 NA
ATOM      3  C   UNL     1      -1.294  13.706  22.527  0.00  0.00    +0.000 A 
ATOM      4  N   UNL     1      -0.324  12.793  22.413  0.00  0.00    +0.000 NA
ATOM      5  C   UNL     1      -0.464  11.997  21.340  0.00  0.00    +0.000 A 
ATOM      6  S   UNL     1       0.664  10.754  21.072  0.00  0.00    +0.000 S 
ATOM      7  C   UNL     1      -0.141  10.250  19.660  0.00  0.00    +0.000 A 
ATOM      8  C   UNL     1      -1.254  11.018  19.357  0.00  0.00    +0.000 A 
ATOM      9  C   UNL     1      -1.466  12.046  20.379  0.00  0.00    +0.000 A 
ENDROOT
BRANCH   3  10
ATOM     10  C   UNL     1      -1.272  14.617  23.700  0.00  0.00    +0.000 A 
ATOM     11  C   UNL     1      -2.260  14.581  24.686  0.00  0.00    +0.000 A 
ATOM     12  C   UNL     1      -2.209  15.491  25.740  0.00  0.00    +0.000 A 
ATOM     13  C   UNL     1      -1.171  16.411  25.797  0.00  0.00    +0.000 A 
ATOM     14  C   UNL     1      -0.220  16.385  24.797  0.00  0.00    +0.000 A 
ATOM     15  N   UNL     1      -0.247  15.521  23.763  0.00  0.00    +0.000 NA
ENDBRANCH   3  10
BRANCH   8  16
ATOM     16  C   UNL     1      -2.027  10.726  18.136  0.00  0.00    +0.000 A 
ATOM     17  C   UNL     1      -2.944   9.671  18.089  0.00  0.00    +0.000 A 
ATOM     18  C   UNL     1      -3.758   9.459  16.973  0.00  0.00    +0.000 A 
ATOM     19  C   UNL     1      -3.601  10.246  15.841  0.00  0.00    +0.000 A 
ATOM     20  C   UNL     1      -2.634  11.248  15.831  0.00  0.00    +0.000 A 
ATOM     21  C   UNL     1      -1.869  11.499  16.976  0.00  0.00    +0.000 A 
ENDBRANCH   8  16
BRANCH   1  22
ATOM     22  N   UNL     1      -3.565  13.214  19.795  0.00  0.00    +0.000 N 
ATOM     23  H   UNL     1      -3.823  14.205  19.848  0.00  0.00    +0.000 HD
BRANCH  22  29
ATOM     24  O   UNL     1      -5.835  15.254  20.757  0.00  0.00    +0.000 OA
ATOM     25  S   UNL     1      -6.536  14.006  20.522  0.00  0.00    +0.000 S 
ATOM     26  O   UNL     1      -7.916  13.813  20.908  0.00  0.00    +0.000 OA
ATOM     27  C   UNL     1      -6.351  13.588  18.799  0.00  0.00    +0.000 C 
ATOM     28  C   UNL     1      -5.589  12.268  18.790  0.00  0.00    +0.000 C 
ATOM     29  C   UNL     1      -4.671  12.273  20.021  0.00  0.00    +0.000 C 
ATOM     30  C   UNL     1      -5.560  12.684  21.189  0.00  0.00    +0.000 C 
ENDBRANCH  22  29
ENDBRANCH   1  22
TORSDOF 4
ENDMDL
MODEL 9
REMARK VINA RESULT:      -6.7      9.320     12.800
REMARK  Name = 
REMARK  4 active torsions:
REMARK  status: ('A' for Active; 'I' for Inactive)
REMARK    1  A    between atoms: C_6  and  N_7
REMARK    2  A    between atoms: N_7  and  C_8
REMARK    3  A    between atoms: C_10  and  C_11
REMARK    4  A    between atoms: C_21  and  C_22
REMARK                            x       y       z     vdW  Elec       q    Type
REMARK                         _______ _______ _______ _____ _____    ______ ____
ROOT
ATOM      1  C   UNL     1      -3.145  12.826  20.509  0.00  0.00    +0.000 A 
ATOM      2  N   UNL     1      -1.951  12.379  20.091  0.00  0.00    +0.000 NA
ATOM      3  C   UNL     1      -1.849  11.628  18.983  0.00  0.00    +0.000 A 
ATOM      4  N   UNL     1      -2.878  11.256  18.214  0.00  0.00    +0.000 NA
ATOM      5  C   UNL     1      -4.063  11.713  18.650  0.00  0.00    +0.000 A 
ATOM      6  S   UNL     1      -5.479  11.294  17.808  0.00  0.00    +0.000 S 
ATOM      7  C   UNL     1      -6.453  12.173  18.893  0.00  0.00    +0.000 A 
ATOM      8  C   UNL     1      -5.730  12.809  19.890  0.00  0.00    +0.000 A 
ATOM      9  C   UNL     1      -4.301  12.511  19.763  0.00  0.00    +0.000 A 
ENDROOT
BRANCH   3  10
ATOM     10  C   UNL     1      -0.491  11.146  18.626  0.00  0.00    +0.000 A 
ATOM     11  C   UNL     1      -0.261   9.848  18.166  0.00  0.00    +0.000 A 
ATOM     12  C   UNL     1       1.043   9.439  17.889  0.00  0.00    +0.000 A 
ATOM     13  C   UNL     1       2.089  10.334  18.066  0.00  0.00    +0.000 A 
ATOM     14  C   UNL     1       1.792  11.607  18.511  0.00  0.00    +0.000 A 
ATOM     15  N   UNL     1       0.542  12.027  18.792  0.00  0.00    +0.000 NA
ENDBRANCH   3  10
BRANCH   8  16
ATOM     16  C   UNL     1      -6.436  13.645  20.878  0.00  0.00    +0.000 A 
ATOM     17  C   UNL     1      -7.207  13.075  21.896  0.00  0.00    +0.000 A 
ATOM     18  C   UNL     1      -7.787  13.856  22.899  0.00  0.00    +0.000 A 
ATOM     19  C   UNL     1      -7.684  15.240  22.846  0.00  0.00    +0.000 A 
ATOM     20  C   UNL     1      -6.995  15.836  21.794  0.00  0.00    +0.000 A 
ATOM     21  C   UNL     1      -6.359  15.045  20.830  0.00  0.00    +0.000 A 
ENDBRANCH   8  16
BRANCH   1  22
ATOM     22  N   UNL     1      -3.175  13.568  21.692  0.00  0.00    +0.000 N 
ATOM     23  H   UNL     1      -2.895  14.526  21.455  0.00  0.00    +0.000 HD
BRANCH  22  29
ATOM     24  O   UNL     1      -3.548  15.903  23.848  0.00  0.00    +0.000 OA
ATOM     25  S   UNL     1      -3.036  14.778  24.607  0.00  0.00    +0.000 S 
ATOM     26  O   UNL     1      -2.613  14.907  25.984  0.00  0.00    +0.000 OA
ATOM     27  C   UNL     1      -4.217  13.449  24.484  0.00  0.00    +0.000 C 
ATOM     28  C   UNL     1      -3.473  12.321  23.779  0.00  0.00    +0.000 C 
ATOM     29  C   UNL     1      -2.459  12.977  22.832  0.00  0.00    +0.000 C 
ATOM     30  C   UNL     1      -1.734  14.021  23.672  0.00  0.00    +0.000 C 
ENDBRANCH  22  29
ENDBRANCH   1  22
TORSDOF 4
ENDMDL
