MODEL 1
REMARK VINA RESULT:      -8.8      0.000      0.000
REMARK  Name = 
REMARK  7 active torsions:
REMARK  status: ('A' for Active; 'I' for Inactive)
REMARK    1  A    between atoms: C_2  and  C_15
REMARK    2  A    between atoms: N_3  and  C_4
REMARK    3  A    between atoms: C_8  and  N_9
REMARK    4  A    between atoms: N_20  and  C_21
REMARK    5  A    between atoms: C_21  and  C_22
REMARK    6  A    between atoms: C_22  and  O_23
REMARK    7  A    between atoms: O_23  and  C_24
REMARK                            x       y       z     vdW  Elec       q    Type
REMARK                         _______ _______ _______ _____ _____    ______ ____
ROOT
ATOM      1  C   UNL     1       1.174   9.004  20.206  0.00  0.00    +0.000 A 
ATOM      2  C   UNL     1       1.058   8.375  21.538  0.00  0.00    +0.000 A 
ATOM      3  C   UNL     1       0.543   9.117  22.517  0.00  0.00    +0.000 A 
ATOM      4  C   UNL     1       0.091  10.497  22.260  0.00  0.00    +0.000 A 
ATOM      5  O   UNL     1      -0.336  11.167  23.196  0.00  0.00    +0.000 OA
ATOM      6  N   UNL     1       0.175  10.934  20.940  0.00  0.00    +0.000 N 
ATOM      7  N   UNL     1       0.755  10.198  19.911  0.00  0.00    +0.000 NA
ENDROOT
BRANCH   1   9
ATOM      8  O   UNL     1       2.155   8.726  18.085  0.00  0.00    +0.000 OA
ATOM      9  C   UNL     1       1.853   8.160  19.129  0.00  0.00    +0.000 C 
ATOM     10  N   UNL     1       2.019   6.821  19.441  0.00  0.00    +0.000 N 
ATOM     11  H   UNL     1       1.616   6.519  20.323  0.00  0.00    +0.000 HD
BRANCH  10  12
ATOM     12  C   UNL     1       2.614   5.851  18.598  0.00  0.00    +0.000 A 
ATOM     13  C   UNL     1       2.000   4.625  18.321  0.00  0.00    +0.000 A 
ATOM     14  C   UNL     1       2.616   3.670  17.514  0.00  0.00    +0.000 A 
ATOM     15  C   UNL     1       3.858   3.929  16.953  0.00  0.00    +0.000 A 
ATOM     16  C   UNL     1       4.486   5.158  17.191  0.00  0.00    +0.000 A 
ATOM     17  C   UNL     1       3.860   6.121  18.015  0.00  0.00    +0.000 A 
BRANCH  16  18
ATOM     18  N   UNL     1       5.748   5.426  16.607  0.00  0.00    +0.000 N 
ATOM     19  C   UNL     1       6.653   6.413  16.911  0.00  0.00    +0.000 A 
ATOM     20  N   UNL     1       7.696   6.310  16.118  0.00  0.00    +0.000 NA
ATOM     21  N   UNL     1       7.438   5.235  15.309  0.00  0.00    +0.000 NA
ATOM     22  N   UNL     1       6.267   4.684  15.603  0.00  0.00    +0.000 NA
ENDBRANCH  16  18
ENDBRANCH  10  12
ENDBRANCH   1   9
BRANCH   6  23
ATOM     23  C   UNL     1      -0.278  12.292  20.640  0.00  0.00    +0.000 C 
BRANCH  23  24
ATOM     24  C   UNL     1      -0.947  12.435  19.279  0.00  0.00    +0.000 C 
BRANCH  24  25
ATOM     25  O   UNL     1      -2.250  11.852  19.307  0.00  0.00    +0.000 OA
BRANCH  25  26
ATOM     26  C   UNL     1      -2.685  11.333  18.115  0.00  0.00    +0.000 A 
ATOM     27  C   UNL     1      -1.946  10.499  17.271  0.00  0.00    +0.000 A 
ATOM     28  C   UNL     1      -2.503  10.024  16.082  0.00  0.00    +0.000 A 
ATOM     29  C   UNL     1      -3.802  10.381  15.728  0.00  0.00    +0.000 A 
ATOM     30  C   UNL     1      -4.542  11.218  16.562  0.00  0.00    +0.000 A 
ATOM     31  C   UNL     1      -3.983  11.694  17.751  0.00  0.00    +0.000 A 
ENDBRANCH  25  26
ENDBRANCH  24  25
ENDBRANCH  23  24
ENDBRANCH   6  23
TORSDOF 7
ENDMDL
MODEL 2
REMARK VINA RESULT:      -8.6      0.863      1.012
REMARK  Name = 
REMARK  7 active torsions:
REMARK  status: ('A' for Active; 'I' for Inactive)
REMARK    1  A    between atoms: C_2  and  C_15
REMARK    2  A    between atoms: N_3  and  C_4
REMARK    3  A    between atoms: C_8  and  N_9
REMARK    4  A    between atoms: N_20  and  C_21
REMARK    5  A    between atoms: C_21  and  C_22
REMARK    6  A    between atoms: C_22  and  O_23
REMARK    7  A    between atoms: O_23  and  C_24
REMARK                            x       y       z     vdW  Elec       q    Type
REMARK                         _______ _______ _______ _____ _____    ______ ____
ROOT
ATOM      1  C   UNL     1       1.135   9.147  19.922  0.00  0.00    +0.000 A 
ATOM      2  C   UNL     1       0.717   8.509  21.187  0.00  0.00    +0.000 A 
ATOM      3  C   UNL     1       0.268   9.309  22.152  0.00  0.00    +0.000 A 
ATOM      4  C   UNL     1       0.174  10.766  21.940  0.00  0.00    +0.000 A 
ATOM      5  O   UNL     1      -0.203  11.478  22.867  0.00  0.00    +0.000 OA
ATOM      6  N   UNL     1       0.516  11.225  20.670  0.00  0.00    +0.000 N 
ATOM      7  N   UNL     1       1.036  10.416  19.664  0.00  0.00    +0.000 NA
ENDROOT
BRANCH   1   9
ATOM      8  O   UNL     1       1.842   8.652  17.732  0.00  0.00    +0.000 OA
ATOM      9  C   UNL     1       1.733   8.213  18.872  0.00  0.00    +0.000 C 
ATOM     10  N   UNL     1       2.054   6.942  19.320  0.00  0.00    +0.000 N 
ATOM     11  H   UNL     1       1.800   6.737  20.282  0.00  0.00    +0.000 HD
BRANCH  10  12
ATOM     12  C   UNL     1       2.610   5.910  18.528  0.00  0.00    +0.000 A 
ATOM     13  C   UNL     1       1.944   4.702  18.299  0.00  0.00    +0.000 A 
ATOM     14  C   UNL     1       2.522   3.685  17.542  0.00  0.00    +0.000 A 
ATOM     15  C   UNL     1       3.780   3.862  16.982  0.00  0.00    +0.000 A 
ATOM     16  C   UNL     1       4.461   5.071  17.173  0.00  0.00    +0.000 A 
ATOM     17  C   UNL     1       3.873   6.097  17.946  0.00  0.00    +0.000 A 
BRANCH  16  18
ATOM     18  N   UNL     1       5.739   5.255  16.590  0.00  0.00    +0.000 N 
ATOM     19  C   UNL     1       6.502   4.367  15.873  0.00  0.00    +0.000 A 
ATOM     20  N   UNL     1       7.630   4.941  15.522  0.00  0.00    +0.000 NA
ATOM     21  N   UNL     1       7.566   6.214  16.025  0.00  0.00    +0.000 NA
ATOM     22  N   UNL     1       6.420   6.421  16.663  0.00  0.00    +0.000 NA
ENDBRANCH  16  18
ENDBRANCH  10  12
ENDBRANCH   1   9
BRANCH   6  23
ATOM     23  C   UNL     1       0.422  12.662  20.416  0.00  0.00    +0.000 C 
BRANCH  23  24
ATOM     24  C   UNL     1      -0.905  13.097  19.807  0.00  0.00    +0.000 C 
BRANCH  24  25
ATOM     25  O   UNL     1      -0.969  12.708  18.435  0.00  0.00    +0.000 OA
BRANCH  25  26
ATOM     26  C   UNL     1      -1.944  11.793  18.130  0.00  0.00    +0.000 A 
ATOM     27  C   UNL     1      -1.768  10.641  17.359  0.00  0.00    +0.000 A 
ATOM     28  C   UNL     1      -2.840   9.777  17.125  0.00  0.00    +0.000 A 
ATOM     29  C   UNL     1      -4.094  10.061  17.659  0.00  0.00    +0.000 A 
ATOM     30  C   UNL     1      -4.278  11.211  18.424  0.00  0.00    +0.000 A 
ATOM     31  C   UNL     1      -3.206  12.076  18.656  0.00  0.00    +0.000 A 
ENDBRANCH  25  26
ENDBRANCH  24  25
ENDBRANCH  23  24
ENDBRANCH   6  23
TORSDOF 7
ENDMDL
MODEL 3
REMARK VINA RESULT:      -8.4      1.059      1.457
REMARK  Name = 
REMARK  7 active torsions:
REMARK  status: ('A' for Active; 'I' for Inactive)
REMARK    1  A    between atoms: C_2  and  C_15
REMARK    2  A    between atoms: N_3  and  C_4
REMARK    3  A    between atoms: C_8  and  N_9
REMARK    4  A    between atoms: N_20  and  C_21
REMARK    5  A    between atoms: C_21  and  C_22
REMARK    6  A    between atoms: C_22  and  O_23
REMARK    7  A    between atoms: O_23  and  C_24
REMARK                            x       y       z     vdW  Elec       q    Type
REMARK                         _______ _______ _______ _____ _____    ______ ____
ROOT
ATOM      1  C   UNL     1       1.147   8.701  20.685  0.00  0.00    +0.000 A 
ATOM      2  C   UNL     1       0.970   8.829  22.147  0.00  0.00    +0.000 A 
ATOM      3  C   UNL     1       0.584  10.017  22.610  0.00  0.00    +0.000 A 
ATOM      4  C   UNL     1       0.324  11.138  21.687  0.00  0.00    +0.000 A 
ATOM      5  O   UNL     1       0.013  12.231  22.153  0.00  0.00    +0.000 OA
ATOM      6  N   UNL     1       0.442  10.854  20.328  0.00  0.00    +0.000 N 
ATOM      7  N   UNL     1       0.893   9.639  19.823  0.00  0.00    +0.000 NA
ENDROOT
BRANCH   1   9
ATOM      8  O   UNL     1       1.660   6.424  20.992  0.00  0.00    +0.000 OA
ATOM      9  C   UNL     1       1.681   7.356  20.196  0.00  0.00    +0.000 C 
ATOM     10  N   UNL     1       2.172   7.348  18.901  0.00  0.00    +0.000 N 
ATOM     11  H   UNL     1       2.190   8.247  18.430  0.00  0.00    +0.000 HD
BRANCH  10  12
ATOM     12  C   UNL     1       2.721   6.222  18.240  0.00  0.00    +0.000 A 
ATOM     13  C   UNL     1       2.090   4.974  18.241  0.00  0.00    +0.000 A 
ATOM     14  C   UNL     1       2.661   3.871  17.610  0.00  0.00    +0.000 A 
ATOM     15  C   UNL     1       3.875   3.997  16.949  0.00  0.00    +0.000 A 
ATOM     16  C   UNL     1       4.518   5.241  16.910  0.00  0.00    +0.000 A 
ATOM     17  C   UNL     1       3.938   6.356  17.555  0.00  0.00    +0.000 A 
BRANCH  16  18
ATOM     18  N   UNL     1       5.751   5.371  16.223  0.00  0.00    +0.000 N 
ATOM     19  C   UNL     1       6.230   4.651  15.157  0.00  0.00    +0.000 A 
ATOM     20  N   UNL     1       7.425   5.091  14.833  0.00  0.00    +0.000 NA
ATOM     21  N   UNL     1       7.692   6.109  15.711  0.00  0.00    +0.000 NA
ATOM     22  N   UNL     1       6.681   6.296  16.550  0.00  0.00    +0.000 NA
ENDBRANCH  16  18
ENDBRANCH  10  12
ENDBRANCH   1   9
BRANCH   6  23
ATOM     23  C   UNL     1       0.178  11.936  19.380  0.00  0.00    +0.000 C 
BRANCH  23  24
ATOM     24  C   UNL     1      -1.281  12.370  19.328  0.00  0.00    +0.000 C 
BRANCH  24  25
ATOM     25  O   UNL     1      -2.133  11.227  19.241  0.00  0.00    +0.000 OA
BRANCH  25  26
ATOM     26  C   UNL     1      -2.654  10.977  17.998  0.00  0.00    +0.000 A 
ATOM     27  C   UNL     1      -3.833  11.523  17.483  0.00  0.00    +0.000 A 
ATOM     28  C   UNL     1      -4.258  11.199  16.193  0.00  0.00    +0.000 A 
ATOM     29  C   UNL     1      -3.506  10.326  15.410  0.00  0.00    +0.000 A 
ATOM     30  C   UNL     1      -2.332   9.774  15.918  0.00  0.00    +0.000 A 
ATOM     31  C   UNL     1      -1.909  10.097  17.210  0.00  0.00    +0.000 A 
ENDBRANCH  25  26
ENDBRANCH  24  25
ENDBRANCH  23  24
ENDBRANCH   6  23
TORSDOF 7
ENDMDL
MODEL 4
REMARK VINA RESULT:      -8.3      2.759      3.902
REMARK  Name = 
REMARK  7 active torsions:
REMARK  status: ('A' for Active; 'I' for Inactive)
REMARK    1  A    between atoms: C_2  and  C_15
REMARK    2  A    between atoms: N_3  and  C_4
REMARK    3  A    between atoms: C_8  and  N_9
REMARK    4  A    between atoms: N_20  and  C_21
REMARK    5  A    between atoms: C_21  and  C_22
REMARK    6  A    between atoms: C_22  and  O_23
REMARK    7  A    between atoms: O_23  and  C_24
REMARK                            x       y       z     vdW  Elec       q    Type
REMARK                         _______ _______ _______ _____ _____    ______ ____
ROOT
ATOM      1  C   UNL     1       1.202   9.106  19.904  0.00  0.00    +0.000 A 
ATOM      2  C   UNL     1       0.732   8.535  21.183  0.00  0.00    +0.000 A 
ATOM      3  C   UNL     1       0.257   9.386  22.090  0.00  0.00    +0.000 A 
ATOM      4  C   UNL     1       0.188  10.832  21.804  0.00  0.00    +0.000 A 
ATOM      5  O   UNL     1      -0.213  11.592  22.682  0.00  0.00    +0.000 OA
ATOM      6  N   UNL     1       0.580  11.224  20.527  0.00  0.00    +0.000 N 
ATOM      7  N   UNL     1       1.127  10.362  19.581  0.00  0.00    +0.000 NA
ENDROOT
BRANCH   1   9
ATOM      8  O   UNL     1       2.070   8.528  17.794  0.00  0.00    +0.000 OA
ATOM      9  C   UNL     1       1.826   8.116  18.922  0.00  0.00    +0.000 C 
ATOM     10  N   UNL     1       2.012   6.833  19.410  0.00  0.00    +0.000 N 
ATOM     11  H   UNL     1       1.658   6.661  20.346  0.00  0.00    +0.000 HD
BRANCH  10  12
ATOM     12  C   UNL     1       2.565   5.752  18.683  0.00  0.00    +0.000 A 
ATOM     13  C   UNL     1       1.777   4.719  18.165  0.00  0.00    +0.000 A 
ATOM     14  C   UNL     1       2.342   3.647  17.479  0.00  0.00    +0.000 A 
ATOM     15  C   UNL     1       3.716   3.592  17.282  0.00  0.00    +0.000 A 
ATOM     16  C   UNL     1       4.528   4.624  17.767  0.00  0.00    +0.000 A 
ATOM     17  C   UNL     1       3.950   5.707  18.468  0.00  0.00    +0.000 A 
BRANCH  16  18
ATOM     18  N   UNL     1       5.928   4.573  17.555  0.00  0.00    +0.000 N 
ATOM     19  C   UNL     1       6.628   4.613  16.374  0.00  0.00    +0.000 A 
ATOM     20  N   UNL     1       7.915   4.529  16.625  0.00  0.00    +0.000 NA
ATOM     21  N   UNL     1       8.018   4.442  17.989  0.00  0.00    +0.000 NA
ATOM     22  N   UNL     1       6.823   4.480  18.564  0.00  0.00    +0.000 NA
ENDBRANCH  16  18
ENDBRANCH  10  12
ENDBRANCH   1   9
BRANCH   6  23
ATOM     23  C   UNL     1       0.512  12.648  20.199  0.00  0.00    +0.000 C 
BRANCH  23  24
ATOM     24  C   UNL     1       1.603  13.116  19.245  0.00  0.00    +0.000 C 
BRANCH  24  25
ATOM     25  O   UNL     1       2.196  14.322  19.728  0.00  0.00    +0.000 OA
BRANCH  25  26
ATOM     26  C   UNL     1       2.009  15.424  18.935  0.00  0.00    +0.000 A 
ATOM     27  C   UNL     1       0.902  16.275  18.969  0.00  0.00    +0.000 A 
ATOM     28  C   UNL     1       0.829  17.377  18.113  0.00  0.00    +0.000 A 
ATOM     29  C   UNL     1       1.864  17.633  17.217  0.00  0.00    +0.000 A 
ATOM     30  C   UNL     1       2.969  16.785  17.173  0.00  0.00    +0.000 A 
ATOM     31  C   UNL     1       3.039  15.682  18.029  0.00  0.00    +0.000 A 
ENDBRANCH  25  26
ENDBRANCH  24  25
ENDBRANCH  23  24
ENDBRANCH   6  23
TORSDOF 7
ENDMDL
MODEL 5
REMARK VINA RESULT:      -8.3      3.397      9.329
REMARK  Name = 
REMARK  7 active torsions:
REMARK  status: ('A' for Active; 'I' for Inactive)
REMARK    1  A    between atoms: C_2  and  C_15
REMARK    2  A    between atoms: N_3  and  C_4
REMARK    3  A    between atoms: C_8  and  N_9
REMARK    4  A    between atoms: N_20  and  C_21
REMARK    5  A    between atoms: C_21  and  C_22
REMARK    6  A    between atoms: C_22  and  O_23
REMARK    7  A    between atoms: O_23  and  C_24
REMARK                            x       y       z     vdW  Elec       q    Type
REMARK                         _______ _______ _______ _____ _____    ______ ____
ROOT
ATOM      1  C   UNL     1       3.068   7.112  18.607  0.00  0.00    +0.000 A 
ATOM      2  C   UNL     1       2.455   6.106  19.499  0.00  0.00    +0.000 A 
ATOM      3  C   UNL     1       3.150   4.994  19.728  0.00  0.00    +0.000 A 
ATOM      4  C   UNL     1       4.485   4.801  19.130  0.00  0.00    +0.000 A 
ATOM      5  O   UNL     1       5.077   3.744  19.326  0.00  0.00    +0.000 OA
ATOM      6  N   UNL     1       4.981   5.867  18.383  0.00  0.00    +0.000 N 
ATOM      7  N   UNL     1       4.255   7.016  18.087  0.00  0.00    +0.000 NA
ENDROOT
BRANCH   1   9
ATOM      8  O   UNL     1       2.321   8.821  17.171  0.00  0.00    +0.000 OA
ATOM      9  C   UNL     1       2.207   8.333  18.290  0.00  0.00    +0.000 C 
ATOM     10  N   UNL     1       1.411   8.785  19.329  0.00  0.00    +0.000 N 
ATOM     11  H   UNL     1       1.526   8.302  20.216  0.00  0.00    +0.000 HD
BRANCH  10  12
ATOM     12  C   UNL     1       0.539   9.898  19.270  0.00  0.00    +0.000 A 
ATOM     13  C   UNL     1       0.685  11.008  20.109  0.00  0.00    +0.000 A 
ATOM     14  C   UNL     1      -0.201  12.081  20.056  0.00  0.00    +0.000 A 
ATOM     15  C   UNL     1      -1.251  12.073  19.148  0.00  0.00    +0.000 A 
ATOM     16  C   UNL     1      -1.409  10.988  18.278  0.00  0.00    +0.000 A 
ATOM     17  C   UNL     1      -0.510   9.899  18.339  0.00  0.00    +0.000 A 
BRANCH  16  18
ATOM     18  N   UNL     1      -2.473  10.987  17.343  0.00  0.00    +0.000 N 
ATOM     19  C   UNL     1      -3.752  11.466  17.485  0.00  0.00    +0.000 A 
ATOM     20  N   UNL     1      -4.423  11.257  16.374  0.00  0.00    +0.000 NA
ATOM     21  N   UNL     1      -3.543  10.643  15.523  0.00  0.00    +0.000 NA
ATOM     22  N   UNL     1      -2.355  10.485  16.093  0.00  0.00    +0.000 NA
ENDBRANCH  16  18
ENDBRANCH  10  12
ENDBRANCH   1   9
BRANCH   6  23
ATOM     23  C   UNL     1       6.308   5.721  17.784  0.00  0.00    +0.000 C 
BRANCH  23  24
ATOM     24  C   UNL     1       6.397   6.220  16.348  0.00  0.00    +0.000 C 
BRANCH  24  25
ATOM     25  O   UNL     1       7.441   5.537  15.653  0.00  0.00    +0.000 OA
BRANCH  25  26
ATOM     26  C   UNL     1       7.059   4.906  14.497  0.00  0.00    +0.000 A 
ATOM     27  C   UNL     1       6.056   3.938  14.390  0.00  0.00    +0.000 A 
ATOM     28  C   UNL     1       5.750   3.371  13.151  0.00  0.00    +0.000 A 
ATOM     29  C   UNL     1       6.446   3.768  12.011  0.00  0.00    +0.000 A 
ATOM     30  C   UNL     1       7.451   4.728  12.112  0.00  0.00    +0.000 A 
ATOM     31  C   UNL     1       7.757   5.293  13.352  0.00  0.00    +0.000 A 
ENDBRANCH  25  26
ENDBRANCH  24  25
ENDBRANCH  23  24
ENDBRANCH   6  23
TORSDOF 7
ENDMDL
MODEL 6
REMARK VINA RESULT:      -8.2      1.042      1.436
REMARK  Name = 
REMARK  7 active torsions:
REMARK  status: ('A' for Active; 'I' for Inactive)
REMARK    1  A    between atoms: C_2  and  C_15
REMARK    2  A    between atoms: N_3  and  C_4
REMARK    3  A    between atoms: C_8  and  N_9
REMARK    4  A    between atoms: N_20  and  C_21
REMARK    5  A    between atoms: C_21  and  C_22
REMARK    6  A    between atoms: C_22  and  O_23
REMARK    7  A    between atoms: O_23  and  C_24
REMARK                            x       y       z     vdW  Elec       q    Type
REMARK                         _______ _______ _______ _____ _____    ______ ____
ROOT
ATOM      1  C   UNL     1       1.066   8.968  20.641  0.00  0.00    +0.000 A 
ATOM      2  C   UNL     1       0.566   8.388  21.905  0.00  0.00    +0.000 A 
ATOM      3  C   UNL     1       0.001   9.223  22.774  0.00  0.00    +0.000 A 
ATOM      4  C   UNL     1      -0.135  10.659  22.462  0.00  0.00    +0.000 A 
ATOM      5  O   UNL     1      -0.621  11.406  23.306  0.00  0.00    +0.000 OA
ATOM      6  N   UNL     1       0.296  11.055  21.199  0.00  0.00    +0.000 N 
ATOM      7  N   UNL     1       0.937  10.213  20.295  0.00  0.00    +0.000 NA
ENDROOT
BRANCH   1   9
ATOM      8  O   UNL     1       1.978   8.374  18.554  0.00  0.00    +0.000 OA
ATOM      9  C   UNL     1       1.792   8.002  19.707  0.00  0.00    +0.000 C 
ATOM     10  N   UNL     1       2.130   6.779  20.263  0.00  0.00    +0.000 N 
ATOM     11  H   UNL     1       1.805   6.621  21.212  0.00  0.00    +0.000 HD
BRANCH  10  12
ATOM     12  C   UNL     1       2.798   5.728  19.589  0.00  0.00    +0.000 A 
ATOM     13  C   UNL     1       2.363   4.401  19.658  0.00  0.00    +0.000 A 
ATOM     14  C   UNL     1       3.052   3.376  19.013  0.00  0.00    +0.000 A 
ATOM     15  C   UNL     1       4.189   3.661  18.269  0.00  0.00    +0.000 A 
ATOM     16  C   UNL     1       4.633   4.985  18.160  0.00  0.00    +0.000 A 
ATOM     17  C   UNL     1       3.934   6.020  18.821  0.00  0.00    +0.000 A 
BRANCH  16  18
ATOM     18  N   UNL     1       5.786   5.276  17.389  0.00  0.00    +0.000 N 
ATOM     19  C   UNL     1       6.729   4.417  16.882  0.00  0.00    +0.000 A 
ATOM     20  N   UNL     1       7.642   5.104  16.232  0.00  0.00    +0.000 NA
ATOM     21  N   UNL     1       7.255   6.415  16.331  0.00  0.00    +0.000 NA
ATOM     22  N   UNL     1       6.126   6.531  17.020  0.00  0.00    +0.000 NA
ENDBRANCH  16  18
ENDBRANCH  10  12
ENDBRANCH   1   9
BRANCH   6  23
ATOM     23  C   UNL     1       0.165  12.469  20.845  0.00  0.00    +0.000 C 
BRANCH  23  24
ATOM     24  C   UNL     1      -1.239  12.869  20.412  0.00  0.00    +0.000 C 
BRANCH  24  25
ATOM     25  O   UNL     1      -1.320  12.920  18.987  0.00  0.00    +0.000 OA
BRANCH  25  26
ATOM     26  C   UNL     1      -2.023  11.897  18.404  0.00  0.00    +0.000 A 
ATOM     27  C   UNL     1      -3.415  11.793  18.347  0.00  0.00    +0.000 A 
ATOM     28  C   UNL     1      -4.018  10.704  17.716  0.00  0.00    +0.000 A 
ATOM     29  C   UNL     1      -3.232   9.710  17.138  0.00  0.00    +0.000 A 
ATOM     30  C   UNL     1      -1.843   9.803  17.196  0.00  0.00    +0.000 A 
ATOM     31  C   UNL     1      -1.241  10.893  17.830  0.00  0.00    +0.000 A 
ENDBRANCH  25  26
ENDBRANCH  24  25
ENDBRANCH  23  24
ENDBRANCH   6  23
TORSDOF 7
ENDMDL
MODEL 7
REMARK VINA RESULT:      -8.2      3.434      9.385
REMARK  Name = 
REMARK  7 active torsions:
REMARK  status: ('A' for Active; 'I' for Inactive)
REMARK    1  A    between atoms: C_2  and  C_15
REMARK    2  A    between atoms: N_3  and  C_4
REMARK    3  A    between atoms: C_8  and  N_9
REMARK    4  A    between atoms: N_20  and  C_21
REMARK    5  A    between atoms: C_21  and  C_22
REMARK    6  A    between atoms: C_22  and  O_23
REMARK    7  A    between atoms: O_23  and  C_24
REMARK                            x       y       z     vdW  Elec       q    Type
REMARK                         _______ _______ _______ _____ _____    ______ ____
ROOT
ATOM      1  C   UNL     1       2.742   6.924  18.797  0.00  0.00    +0.000 A 
ATOM      2  C   UNL     1       2.098   6.295  19.969  0.00  0.00    +0.000 A 
ATOM      3  C   UNL     1       2.553   5.100  20.343  0.00  0.00    +0.000 A 
ATOM      4  C   UNL     1       3.670   4.459  19.623  0.00  0.00    +0.000 A 
ATOM      5  O   UNL     1       4.033   3.338  19.968  0.00  0.00    +0.000 OA
ATOM      6  N   UNL     1       4.243   5.202  18.594  0.00  0.00    +0.000 N 
ATOM      7  N   UNL     1       3.754   6.427  18.151  0.00  0.00    +0.000 NA
ENDROOT
BRANCH   1   9
ATOM      8  O   UNL     1       2.490   8.674  17.243  0.00  0.00    +0.000 OA
ATOM      9  C   UNL     1       2.136   8.249  18.337  0.00  0.00    +0.000 C 
ATOM     10  N   UNL     1       1.272   8.851  19.236  0.00  0.00    +0.000 N 
ATOM     11  H   UNL     1       1.177   8.388  20.135  0.00  0.00    +0.000 HD
BRANCH  10  12
ATOM     12  C   UNL     1       0.600  10.080  19.030  0.00  0.00    +0.000 A 
ATOM     13  C   UNL     1       1.091  11.292  19.526  0.00  0.00    +0.000 A 
ATOM     14  C   UNL     1       0.400  12.487  19.340  0.00  0.00    +0.000 A 
ATOM     15  C   UNL     1      -0.797  12.497  18.637  0.00  0.00    +0.000 A 
ATOM     16  C   UNL     1      -1.301  11.303  18.107  0.00  0.00    +0.000 A 
ATOM     17  C   UNL     1      -0.599  10.092  18.303  0.00  0.00    +0.000 A 
BRANCH  16  18
ATOM     18  N   UNL     1      -2.516  11.317  17.379  0.00  0.00    +0.000 N 
ATOM     19  C   UNL     1      -2.748  10.967  16.071  0.00  0.00    +0.000 A 
ATOM     20  N   UNL     1      -4.021  11.138  15.792  0.00  0.00    +0.000 NA
ATOM     21  N   UNL     1      -4.593  11.597  16.949  0.00  0.00    +0.000 NA
ATOM     22  N   UNL     1      -3.695  11.698  17.921  0.00  0.00    +0.000 NA
ENDBRANCH  16  18
ENDBRANCH  10  12
ENDBRANCH   1   9
BRANCH   6  23
ATOM     23  C   UNL     1       5.363   4.607  17.864  0.00  0.00    +0.000 C 
BRANCH  23  24
ATOM     24  C   UNL     1       5.254   4.737  16.351  0.00  0.00    +0.000 C 
BRANCH  24  25
ATOM     25  O   UNL     1       6.506   5.149  15.800  0.00  0.00    +0.000 OA
BRANCH  25  26
ATOM     26  C   UNL     1       6.702   4.821  14.483  0.00  0.00    +0.000 A 
ATOM     27  C   UNL     1       7.663   5.381  13.638  0.00  0.00    +0.000 A 
ATOM     28  C   UNL     1       7.773   4.956  12.312  0.00  0.00    +0.000 A 
ATOM     29  C   UNL     1       6.920   3.970  11.823  0.00  0.00    +0.000 A 
ATOM     30  C   UNL     1       5.954   3.412  12.658  0.00  0.00    +0.000 A 
ATOM     31  C   UNL     1       5.845   3.839  13.984  0.00  0.00    +0.000 A 
ENDBRANCH  25  26
ENDBRANCH  24  25
ENDBRANCH  23  24
ENDBRANCH   6  23
TORSDOF 7
ENDMDL
MODEL 8
REMARK VINA RESULT:      -8.2      1.195      1.406
REMARK  Name = 
REMARK  7 active torsions:
REMARK  status: ('A' for Active; 'I' for Inactive)
REMARK    1  A    between atoms: C_2  and  C_15
REMARK    2  A    between atoms: N_3  and  C_4
REMARK    3  A    between atoms: C_8  and  N_9
REMARK    4  A    between atoms: N_20  and  C_21
REMARK    5  A    between atoms: C_21  and  C_22
REMARK    6  A    between atoms: C_22  and  O_23
REMARK    7  A    between atoms: O_23  and  C_24
REMARK                            x       y       z     vdW  Elec       q    Type
REMARK                         _______ _______ _______ _____ _____    ______ ____
ROOT
ATOM      1  C   UNL     1       1.134   8.607  20.615  0.00  0.00    +0.000 A 
ATOM      2  C   UNL     1       0.703   8.681  22.027  0.00  0.00    +0.000 A 
ATOM      3  C   UNL     1       0.322   9.871  22.485  0.00  0.00    +0.000 A 
ATOM      4  C   UNL     1       0.312  11.052  21.599  0.00  0.00    +0.000 A 
ATOM      5  O   UNL     1      -0.003  12.142  22.068  0.00  0.00    +0.000 OA
ATOM      6  N   UNL     1       0.655  10.823  20.269  0.00  0.00    +0.000 N 
ATOM      7  N   UNL     1       1.106   9.602  19.779  0.00  0.00    +0.000 NA
ENDROOT
BRANCH   1   9
ATOM      8  O   UNL     1       1.691   6.350  20.980  0.00  0.00    +0.000 OA
ATOM      9  C   UNL     1       1.653   7.249  20.148  0.00  0.00    +0.000 C 
ATOM     10  N   UNL     1       2.068   7.194  18.828  0.00  0.00    +0.000 N 
ATOM     11  H   UNL     1       2.047   8.074  18.321  0.00  0.00    +0.000 HD
BRANCH  10  12
ATOM     12  C   UNL     1       2.590   6.049  18.180  0.00  0.00    +0.000 A 
ATOM     13  C   UNL     1       1.872   4.852  18.083  0.00  0.00    +0.000 A 
ATOM     14  C   UNL     1       2.415   3.726  17.468  0.00  0.00    +0.000 A 
ATOM     15  C   UNL     1       3.690   3.778  16.921  0.00  0.00    +0.000 A 
ATOM     16  C   UNL     1       4.423   4.970  16.980  0.00  0.00    +0.000 A 
ATOM     17  C   UNL     1       3.870   6.108  17.609  0.00  0.00    +0.000 A 
BRANCH  16  18
ATOM     18  N   UNL     1       5.719   5.025  16.409  0.00  0.00    +0.000 N 
ATOM     19  C   UNL     1       6.854   4.340  16.766  0.00  0.00    +0.000 A 
ATOM     20  N   UNL     1       7.845   4.695  15.980  0.00  0.00    +0.000 NA
ATOM     21  N   UNL     1       7.315   5.613  15.112  0.00  0.00    +0.000 NA
ATOM     22  N   UNL     1       6.025   5.813  15.354  0.00  0.00    +0.000 NA
ENDBRANCH  16  18
ENDBRANCH  10  12
ENDBRANCH   1   9
BRANCH   6  23
ATOM     23  C   UNL     1       0.642  11.966  19.356  0.00  0.00    +0.000 C 
BRANCH  23  24
ATOM     24  C   UNL     1      -0.517  11.955  18.368  0.00  0.00    +0.000 C 
BRANCH  24  25
ATOM     25  O   UNL     1      -1.581  11.143  18.865  0.00  0.00    +0.000 OA
BRANCH  25  26
ATOM     26  C   UNL     1      -2.804  11.362  18.286  0.00  0.00    +0.000 A 
ATOM     27  C   UNL     1      -3.147  11.064  16.965  0.00  0.00    +0.000 A 
ATOM     28  C   UNL     1      -4.433  11.326  16.491  0.00  0.00    +0.000 A 
ATOM     29  C   UNL     1      -5.386  11.890  17.335  0.00  0.00    +0.000 A 
ATOM     30  C   UNL     1      -5.050  12.197  18.653  0.00  0.00    +0.000 A 
ATOM     31  C   UNL     1      -3.762  11.935  19.125  0.00  0.00    +0.000 A 
ENDBRANCH  25  26
ENDBRANCH  24  25
ENDBRANCH  23  24
ENDBRANCH   6  23
TORSDOF 7
ENDMDL
MODEL 9
REMARK VINA RESULT:      -8.2      3.443      9.195
REMARK  Name = 
REMARK  7 active torsions:
REMARK  status: ('A' for Active; 'I' for Inactive)
REMARK    1  A    between atoms: C_2  and  C_15
REMARK    2  A    between atoms: N_3  and  C_4
REMARK    3  A    between atoms: C_8  and  N_9
REMARK    4  A    between atoms: N_20  and  C_21
REMARK    5  A    between atoms: C_21  and  C_22
REMARK    6  A    between atoms: C_22  and  O_23
REMARK    7  A    between atoms: O_23  and  C_24
REMARK                            x       y       z     vdW  Elec       q    Type
REMARK                         _______ _______ _______ _____ _____    ______ ____
ROOT
ATOM      1  C   UNL     1       2.685   4.801  19.443  0.00  0.00    +0.000 A 
ATOM      2  C   UNL     1       2.463   3.749  20.457  0.00  0.00    +0.000 A 
ATOM      3  C   UNL     1       2.861   2.516  20.149  0.00  0.00    +0.000 A 
ATOM      4  C   UNL     1       3.516   2.235  18.857  0.00  0.00    +0.000 A 
ATOM      5  O   UNL     1       3.829   1.078  18.589  0.00  0.00    +0.000 OA
ATOM      6  N   UNL     1       3.744   3.335  18.033  0.00  0.00    +0.000 N 
ATOM      7  N   UNL     1       3.293   4.622  18.309  0.00  0.00    +0.000 NA
ENDROOT
BRANCH   1   9
ATOM      8  O   UNL     1       1.533   6.296  20.850  0.00  0.00    +0.000 OA
ATOM      9  C   UNL     1       2.133   6.184  19.787  0.00  0.00    +0.000 C 
ATOM     10  N   UNL     1       2.340   7.162  18.829  0.00  0.00    +0.000 N 
ATOM     11  H   UNL     1       2.778   6.850  17.967  0.00  0.00    +0.000 HD
BRANCH  10  12
ATOM     12  C   UNL     1       1.914   8.508  18.926  0.00  0.00    +0.000 A 
ATOM     13  C   UNL     1       2.177   9.449  17.926  0.00  0.00    +0.000 A 
ATOM     14  C   UNL     1       1.776  10.777  18.053  0.00  0.00    +0.000 A 
ATOM     15  C   UNL     1       1.087  11.191  19.185  0.00  0.00    +0.000 A 
ATOM     16  C   UNL     1       0.787  10.266  20.193  0.00  0.00    +0.000 A 
ATOM     17  C   UNL     1       1.201   8.921  20.061  0.00  0.00    +0.000 A 
BRANCH  16  18
ATOM     18  N   UNL     1       0.073  10.687  21.342  0.00  0.00    +0.000 N 
ATOM     19  C   UNL     1      -0.913  11.636  21.450  0.00  0.00    +0.000 A 
ATOM     20  N   UNL     1      -1.301  11.723  22.703  0.00  0.00    +0.000 NA
ATOM     21  N   UNL     1      -0.547  10.805  23.385  0.00  0.00    +0.000 NA
ATOM     22  N   UNL     1       0.281  10.163  22.570  0.00  0.00    +0.000 NA
ENDBRANCH  16  18
ENDBRANCH  10  12
ENDBRANCH   1   9
BRANCH   6  23
ATOM     23  C   UNL     1       4.405   3.100  16.750  0.00  0.00    +0.000 C 
BRANCH  23  24
ATOM     24  C   UNL     1       4.946   4.363  16.093  0.00  0.00    +0.000 C 
BRANCH  24  25
ATOM     25  O   UNL     1       6.374   4.355  16.110  0.00  0.00    +0.000 OA
BRANCH  25  26
ATOM     26  C   UNL     1       6.953   5.202  17.020  0.00  0.00    +0.000 A 
ATOM     27  C   UNL     1       7.481   4.830  18.259  0.00  0.00    +0.000 A 
ATOM     28  C   UNL     1       8.055   5.786  19.099  0.00  0.00    +0.000 A 
ATOM     29  C   UNL     1       8.105   7.121  18.705  0.00  0.00    +0.000 A 
ATOM     30  C   UNL     1       7.574   7.500  17.473  0.00  0.00    +0.000 A 
ATOM     31  C   UNL     1       6.998   6.543  16.634  0.00  0.00    +0.000 A 
ENDBRANCH  25  26
ENDBRANCH  24  25
ENDBRANCH  23  24
ENDBRANCH   6  23
TORSDOF 7
ENDMDL
