MODEL 1
REMARK VINA RESULT:      -8.4      0.000      0.000
REMARK  Name = 
REMARK  7 active torsions:
REMARK  status: ('A' for Active; 'I' for Inactive)
REMARK    1  A    between atoms: C_1  and  N_2
REMARK    2  A    between atoms: C_6  and  C_7
REMARK    3  A    between atoms: C_7  and  C_8
REMARK    4  A    between atoms: C_12  and  N_13
REMARK    5  A    between atoms: C_16  and  C_17
REMARK    6  A    between atoms: C_17  and  C_18
REMARK    7  A    between atoms: C_22  and  O_23
REMARK                            x       y       z     vdW  Elec       q    Type
REMARK                         _______ _______ _______ _____ _____    ______ ____
ROOT
ATOM      1  N   UNL     1       3.808   4.796  19.527  0.00  0.00    +0.000 N 
ATOM      2  C   UNL     1       5.136   5.456  19.483  0.00  0.00    +0.000 C 
ATOM      3  C   UNL     1       5.530   5.273  18.045  0.00  0.00    +0.000 A 
ATOM      4  C   UNL     1       6.053   6.174  17.116  0.00  0.00    +0.000 A 
ATOM      5  C   UNL     1       6.009   5.787  15.759  0.00  0.00    +0.000 A 
ATOM      6  C   UNL     1       5.445   4.560  15.369  0.00  0.00    +0.000 A 
ATOM      7  C   UNL     1       4.915   3.672  16.298  0.00  0.00    +0.000 A 
ATOM      8  C   UNL     1       4.948   4.067  17.624  0.00  0.00    +0.000 A 
ATOM      9  C   UNL     1       3.944   3.673  18.661  0.00  0.00    +0.000 C 
ATOM     10  O   UNL     1       3.254   2.680  18.595  0.00  0.00    +0.000 OA
ENDROOT
BRANCH   1  15
ATOM     11  C   UNL     1       1.639   7.710  20.037  0.00  0.00    +0.000 A 
ATOM     12  C   UNL     1       2.098   8.441  18.931  0.00  0.00    +0.000 A 
ATOM     13  C   UNL     1       2.681   7.792  17.850  0.00  0.00    +0.000 A 
ATOM     14  C   UNL     1       2.911   6.424  17.910  0.00  0.00    +0.000 A 
ATOM     15  C   UNL     1       2.777   5.761  19.139  0.00  0.00    +0.000 A 
ATOM     16  C   UNL     1       2.003   6.358  20.147  0.00  0.00    +0.000 A 
BRANCH  11  17
ATOM     17  C   UNL     1       0.725   8.398  21.021  0.00  0.00    +0.000 C 
BRANCH  17  23
ATOM     18  C   UNL     1      -1.063  10.127  19.159  0.00  0.00    +0.000 C 
ATOM     19  N   UNL     1      -0.081  10.611  20.093  0.00  0.00    +0.000 N 
ATOM     20  C   UNL     1       0.298  11.908  20.243  0.00  0.00    +0.000 A 
ATOM     21  N   UNL     1       1.216  11.991  21.175  0.00  0.00    +0.000 NA
ATOM     22  N   UNL     1       1.463  10.718  21.633  0.00  0.00    +0.000 NA
ATOM     23  C   UNL     1       0.687   9.883  20.967  0.00  0.00    +0.000 A 
ENDBRANCH  17  23
ENDBRANCH  11  17
ENDBRANCH   1  15
BRANCH   6  24
ATOM     24  O   UNL     1       5.289   4.257  14.046  0.00  0.00    +0.000 OA
ATOM     25  H   UNL     1       4.856   5.004  13.599  0.00  0.00    +0.000 HD
ENDBRANCH   6  24
BRANCH   4  26
ATOM     26  C   UNL     1       6.426   7.599  17.477  0.00  0.00    +0.000 C 
BRANCH  26  27
ATOM     27  C   UNL     1       7.916   7.864  17.633  0.00  0.00    +0.000 C 
ATOM     28  F   UNL     1       8.144   9.186  17.828  0.00  0.00    +0.000 F 
ATOM     29  F   UNL     1       8.421   7.207  18.707  0.00  0.00    +0.000 F 
ENDBRANCH  26  27
ENDBRANCH   4  26
TORSDOF 6
ENDMDL
MODEL 2
REMARK VINA RESULT:      -8.3      1.132      1.831
REMARK  Name = 
REMARK  7 active torsions:
REMARK  status: ('A' for Active; 'I' for Inactive)
REMARK    1  A    between atoms: C_1  and  N_2
REMARK    2  A    between atoms: C_6  and  C_7
REMARK    3  A    between atoms: C_7  and  C_8
REMARK    4  A    between atoms: C_12  and  N_13
REMARK    5  A    between atoms: C_16  and  C_17
REMARK    6  A    between atoms: C_17  and  C_18
REMARK    7  A    between atoms: C_22  and  O_23
REMARK                            x       y       z     vdW  Elec       q    Type
REMARK                         _______ _______ _______ _____ _____    ______ ____
ROOT
ATOM      1  N   UNL     1       4.434   4.234  19.563  0.00  0.00    +0.000 N 
ATOM      2  C   UNL     1       5.621   5.106  19.385  0.00  0.00    +0.000 C 
ATOM      3  C   UNL     1       5.837   5.043  17.900  0.00  0.00    +0.000 A 
ATOM      4  C   UNL     1       6.078   6.052  16.965  0.00  0.00    +0.000 A 
ATOM      5  C   UNL     1       5.909   5.713  15.606  0.00  0.00    +0.000 A 
ATOM      6  C   UNL     1       5.499   4.424  15.221  0.00  0.00    +0.000 A 
ATOM      7  C   UNL     1       5.249   3.428  16.158  0.00  0.00    +0.000 A 
ATOM      8  C   UNL     1       5.402   3.773  17.489  0.00  0.00    +0.000 A 
ATOM      9  C   UNL     1       4.625   3.182  18.623  0.00  0.00    +0.000 C 
ATOM     10  O   UNL     1       4.100   2.092  18.589  0.00  0.00    +0.000 OA
ENDROOT
BRANCH   1  15
ATOM     11  C   UNL     1       2.538   7.161  18.424  0.00  0.00    +0.000 A 
ATOM     12  C   UNL     1       1.672   6.462  17.570  0.00  0.00    +0.000 A 
ATOM     13  C   UNL     1       1.419   5.112  17.773  0.00  0.00    +0.000 A 
ATOM     14  C   UNL     1       2.112   4.422  18.759  0.00  0.00    +0.000 A 
ATOM     15  C   UNL     1       3.219   5.030  19.369  0.00  0.00    +0.000 A 
ATOM     16  C   UNL     1       3.334   6.429  19.319  0.00  0.00    +0.000 A 
BRANCH  11  17
ATOM     17  C   UNL     1       2.525   8.670  18.379  0.00  0.00    +0.000 C 
BRANCH  17  23
ATOM     18  C   UNL     1       1.380   8.871  21.261  0.00  0.00    +0.000 C 
ATOM     19  N   UNL     1       0.760   9.359  20.057  0.00  0.00    +0.000 N 
ATOM     20  C   UNL     1      -0.483   9.904  19.972  0.00  0.00    +0.000 A 
ATOM     21  N   UNL     1      -0.732  10.234  18.728  0.00  0.00    +0.000 NA
ATOM     22  N   UNL     1       0.362   9.878  17.974  0.00  0.00    +0.000 NA
ATOM     23  C   UNL     1       1.258   9.336  18.779  0.00  0.00    +0.000 A 
ENDBRANCH  17  23
ENDBRANCH  11  17
ENDBRANCH   1  15
BRANCH   6  24
ATOM     24  O   UNL     1       5.212   4.148  13.914  0.00  0.00    +0.000 OA
ATOM     25  H   UNL     1       5.572   3.273  13.689  0.00  0.00    +0.000 HD
ENDBRANCH   6  24
BRANCH   4  26
ATOM     26  C   UNL     1       6.265   7.505  17.357  0.00  0.00    +0.000 C 
BRANCH  26  27
ATOM     27  C   UNL     1       7.708   7.945  17.559  0.00  0.00    +0.000 C 
ATOM     28  F   UNL     1       7.760   9.257  17.895  0.00  0.00    +0.000 F 
ATOM     29  F   UNL     1       8.297   7.249  18.563  0.00  0.00    +0.000 F 
ENDBRANCH  26  27
ENDBRANCH   4  26
TORSDOF 6
ENDMDL
MODEL 3
REMARK VINA RESULT:      -8.2      1.443      1.944
REMARK  Name = 
REMARK  7 active torsions:
REMARK  status: ('A' for Active; 'I' for Inactive)
REMARK    1  A    between atoms: C_1  and  N_2
REMARK    2  A    between atoms: C_6  and  C_7
REMARK    3  A    between atoms: C_7  and  C_8
REMARK    4  A    between atoms: C_12  and  N_13
REMARK    5  A    between atoms: C_16  and  C_17
REMARK    6  A    between atoms: C_17  and  C_18
REMARK    7  A    between atoms: C_22  and  O_23
REMARK                            x       y       z     vdW  Elec       q    Type
REMARK                         _______ _______ _______ _____ _____    ______ ____
ROOT
ATOM      1  N   UNL     1       2.556   3.506  19.375  0.00  0.00    +0.000 N 
ATOM      2  C   UNL     1       3.933   3.646  19.908  0.00  0.00    +0.000 C 
ATOM      3  C   UNL     1       4.743   3.790  18.650  0.00  0.00    +0.000 A 
ATOM      4  C   UNL     1       5.750   4.695  18.307  0.00  0.00    +0.000 A 
ATOM      5  C   UNL     1       6.084   4.785  16.939  0.00  0.00    +0.000 A 
ATOM      6  C   UNL     1       5.418   4.012  15.973  0.00  0.00    +0.000 A 
ATOM      7  C   UNL     1       4.408   3.122  16.320  0.00  0.00    +0.000 A 
ATOM      8  C   UNL     1       4.075   3.052  17.661  0.00  0.00    +0.000 A 
ATOM      9  C   UNL     1       2.713   2.730  18.191  0.00  0.00    +0.000 C 
ATOM     10  O   UNL     1       1.876   2.108  17.576  0.00  0.00    +0.000 OA
ENDROOT
BRANCH   1  15
ATOM     11  C   UNL     1       2.001   7.034  20.213  0.00  0.00    +0.000 A 
ATOM     12  C   UNL     1       2.480   7.558  19.003  0.00  0.00    +0.000 A 
ATOM     13  C   UNL     1       2.485   6.782  17.851  0.00  0.00    +0.000 A 
ATOM     14  C   UNL     1       2.117   5.445  17.920  0.00  0.00    +0.000 A 
ATOM     15  C   UNL     1       1.979   4.837  19.177  0.00  0.00    +0.000 A 
ATOM     16  C   UNL     1       1.768   5.652  20.301  0.00  0.00    +0.000 A 
BRANCH  11  17
ATOM     17  C   UNL     1       1.701   7.992  21.341  0.00  0.00    +0.000 C 
BRANCH  17  23
ATOM     18  C   UNL     1      -0.098   9.579  23.316  0.00  0.00    +0.000 C 
ATOM     19  N   UNL     1       0.028   9.806  21.900  0.00  0.00    +0.000 N 
ATOM     20  C   UNL     1      -0.700  10.696  21.173  0.00  0.00    +0.000 A 
ATOM     21  N   UNL     1      -0.332  10.640  19.917  0.00  0.00    +0.000 NA
ATOM     22  N   UNL     1       0.643   9.676  19.809  0.00  0.00    +0.000 NA
ATOM     23  C   UNL     1       0.849   9.164  21.008  0.00  0.00    +0.000 A 
ENDBRANCH  17  23
ENDBRANCH  11  17
ENDBRANCH   1  15
BRANCH   6  24
ATOM     24  O   UNL     1       5.659   4.205  14.642  0.00  0.00    +0.000 OA
ATOM     25  H   UNL     1       6.358   4.874  14.541  0.00  0.00    +0.000 HD
ENDBRANCH   6  24
BRANCH   4  26
ATOM     26  C   UNL     1       6.299   5.718  19.282  0.00  0.00    +0.000 C 
BRANCH  26  27
ATOM     27  C   UNL     1       7.813   5.870  19.285  0.00  0.00    +0.000 C 
ATOM     28  F   UNL     1       8.401   4.758  18.780  0.00  0.00    +0.000 F 
ATOM     29  F   UNL     1       8.203   6.916  18.515  0.00  0.00    +0.000 F 
ENDBRANCH  26  27
ENDBRANCH   4  26
TORSDOF 6
ENDMDL
MODEL 4
REMARK VINA RESULT:      -8.2      3.876      7.549
REMARK  Name = 
REMARK  7 active torsions:
REMARK  status: ('A' for Active; 'I' for Inactive)
REMARK    1  A    between atoms: C_1  and  N_2
REMARK    2  A    between atoms: C_6  and  C_7
REMARK    3  A    between atoms: C_7  and  C_8
REMARK    4  A    between atoms: C_12  and  N_13
REMARK    5  A    between atoms: C_16  and  C_17
REMARK    6  A    between atoms: C_17  and  C_18
REMARK    7  A    between atoms: C_22  and  O_23
REMARK                            x       y       z     vdW  Elec       q    Type
REMARK                         _______ _______ _______ _____ _____    ______ ____
ROOT
ATOM      1  N   UNL     1       2.401   4.528  17.230  0.00  0.00    +0.000 N 
ATOM      2  C   UNL     1       1.636   5.487  18.064  0.00  0.00    +0.000 C 
ATOM      3  C   UNL     1       1.625   4.800  19.401  0.00  0.00    +0.000 A 
ATOM      4  C   UNL     1       1.891   5.286  20.683  0.00  0.00    +0.000 A 
ATOM      5  C   UNL     1       2.121   4.326  21.691  0.00  0.00    +0.000 A 
ATOM      6  C   UNL     1       2.101   2.949  21.406  0.00  0.00    +0.000 A 
ATOM      7  C   UNL     1       1.847   2.473  20.125  0.00  0.00    +0.000 A 
ATOM      8  C   UNL     1       1.638   3.422  19.139  0.00  0.00    +0.000 A 
ATOM      9  C   UNL     1       1.987   3.247  17.694  0.00  0.00    +0.000 C 
ATOM     10  O   UNL     1       2.093   2.172  17.148  0.00  0.00    +0.000 OA
ENDROOT
BRANCH   1  15
ATOM     11  C   UNL     1       5.855   4.788  16.022  0.00  0.00    +0.000 A 
ATOM     12  C   UNL     1       6.023   6.148  16.323  0.00  0.00    +0.000 A 
ATOM     13  C   UNL     1       5.248   6.754  17.303  0.00  0.00    +0.000 A 
ATOM     14  C   UNL     1       4.225   6.040  17.912  0.00  0.00    +0.000 A 
ATOM     15  C   UNL     1       3.833   4.808  17.367  0.00  0.00    +0.000 A 
ATOM     16  C   UNL     1       4.733   4.119  16.537  0.00  0.00    +0.000 A 
BRANCH  11  17
ATOM     17  C   UNL     1       6.923   4.096  15.209  0.00  0.00    +0.000 C 
BRANCH  17  23
ATOM     18  C   UNL     1       5.806   3.324  12.414  0.00  0.00    +0.000 C 
ATOM     19  N   UNL     1       6.806   4.322  12.691  0.00  0.00    +0.000 N 
ATOM     20  C   UNL     1       7.501   5.026  11.759  0.00  0.00    +0.000 A 
ATOM     21  N   UNL     1       8.333   5.843  12.358  0.00  0.00    +0.000 NA
ATOM     22  N   UNL     1       8.198   5.657  13.713  0.00  0.00    +0.000 NA
ATOM     23  C   UNL     1       7.284   4.726  13.912  0.00  0.00    +0.000 A 
ENDBRANCH  17  23
ENDBRANCH  11  17
ENDBRANCH   1  15
BRANCH   6  24
ATOM     24  O   UNL     1       2.455   2.038  22.360  0.00  0.00    +0.000 OA
ATOM     25  H   UNL     1       3.189   1.496  22.024  0.00  0.00    +0.000 HD
ENDBRANCH   6  24
BRANCH   4  26
ATOM     26  C   UNL     1       2.174   6.749  20.962  0.00  0.00    +0.000 C 
BRANCH  26  27
ATOM     27  C   UNL     1       0.953   7.657  20.985  0.00  0.00    +0.000 C 
ATOM     28  F   UNL     1       0.950   8.419  22.105  0.00  0.00    +0.000 F 
ATOM     29  F   UNL     1       0.951   8.502  19.924  0.00  0.00    +0.000 F 
ENDBRANCH  26  27
ENDBRANCH   4  26
TORSDOF 6
ENDMDL
MODEL 5
REMARK VINA RESULT:      -8.2      0.791      1.133
REMARK  Name = 
REMARK  7 active torsions:
REMARK  status: ('A' for Active; 'I' for Inactive)
REMARK    1  A    between atoms: C_1  and  N_2
REMARK    2  A    between atoms: C_6  and  C_7
REMARK    3  A    between atoms: C_7  and  C_8
REMARK    4  A    between atoms: C_12  and  N_13
REMARK    5  A    between atoms: C_16  and  C_17
REMARK    6  A    between atoms: C_17  and  C_18
REMARK    7  A    between atoms: C_22  and  O_23
REMARK                            x       y       z     vdW  Elec       q    Type
REMARK                         _______ _______ _______ _____ _____    ______ ____
ROOT
ATOM      1  N   UNL     1       3.977   4.502  19.473  0.00  0.00    +0.000 N 
ATOM      2  C   UNL     1       5.283   5.202  19.410  0.00  0.00    +0.000 C 
ATOM      3  C   UNL     1       5.628   5.093  17.952  0.00  0.00    +0.000 A 
ATOM      4  C   UNL     1       6.090   6.050  17.046  0.00  0.00    +0.000 A 
ATOM      5  C   UNL     1       6.005   5.721  15.676  0.00  0.00    +0.000 A 
ATOM      6  C   UNL     1       5.462   4.496  15.252  0.00  0.00    +0.000 A 
ATOM      7  C   UNL     1       4.991   3.553  16.159  0.00  0.00    +0.000 A 
ATOM      8  C   UNL     1       5.064   3.890  17.499  0.00  0.00    +0.000 A 
ATOM      9  C   UNL     1       4.110   3.422  18.553  0.00  0.00    +0.000 C 
ATOM     10  O   UNL     1       3.447   2.413  18.468  0.00  0.00    +0.000 OA
ENDROOT
BRANCH   1  15
ATOM     11  C   UNL     1       1.903   7.465  20.085  0.00  0.00    +0.000 A 
ATOM     12  C   UNL     1       2.212   8.122  18.885  0.00  0.00    +0.000 A 
ATOM     13  C   UNL     1       2.644   7.402  17.778  0.00  0.00    +0.000 A 
ATOM     14  C   UNL     1       2.876   6.038  17.892  0.00  0.00    +0.000 A 
ATOM     15  C   UNL     1       2.906   5.453  19.166  0.00  0.00    +0.000 A 
ATOM     16  C   UNL     1       2.275   6.119  20.230  0.00  0.00    +0.000 A 
BRANCH  11  17
ATOM     17  C   UNL     1       1.131   8.222  21.138  0.00  0.00    +0.000 C 
BRANCH  17  23
ATOM     18  C   UNL     1      -0.441  10.207  22.941  0.00  0.00    +0.000 C 
ATOM     19  N   UNL     1      -0.315  10.266  21.508  0.00  0.00    +0.000 N 
ATOM     20  C   UNL     1      -0.950  11.151  20.694  0.00  0.00    +0.000 A 
ATOM     21  N   UNL     1      -0.615  10.919  19.449  0.00  0.00    +0.000 NA
ATOM     22  N   UNL     1       0.243   9.844  19.440  0.00  0.00    +0.000 NA
ATOM     23  C   UNL     1       0.411   9.442  20.686  0.00  0.00    +0.000 A 
ENDBRANCH  17  23
ENDBRANCH  11  17
ENDBRANCH   1  15
BRANCH   6  24
ATOM     24  O   UNL     1       5.264   4.247  13.923  0.00  0.00    +0.000 OA
ATOM     25  H   UNL     1       4.757   4.981  13.535  0.00  0.00    +0.000 HD
ENDBRANCH   6  24
BRANCH   4  26
ATOM     26  C   UNL     1       6.437   7.467  17.457  0.00  0.00    +0.000 C 
BRANCH  26  27
ATOM     27  C   UNL     1       7.912   7.726  17.730  0.00  0.00    +0.000 C 
ATOM     28  F   UNL     1       8.119   9.035  18.013  0.00  0.00    +0.000 F 
ATOM     29  F   UNL     1       8.346   7.010  18.796  0.00  0.00    +0.000 F 
ENDBRANCH  26  27
ENDBRANCH   4  26
TORSDOF 6
ENDMDL
MODEL 6
REMARK VINA RESULT:      -8.1      5.725      9.302
REMARK  Name = 
REMARK  7 active torsions:
REMARK  status: ('A' for Active; 'I' for Inactive)
REMARK    1  A    between atoms: C_1  and  N_2
REMARK    2  A    between atoms: C_6  and  C_7
REMARK    3  A    between atoms: C_7  and  C_8
REMARK    4  A    between atoms: C_12  and  N_13
REMARK    5  A    between atoms: C_16  and  C_17
REMARK    6  A    between atoms: C_17  and  C_18
REMARK    7  A    between atoms: C_22  and  O_23
REMARK                            x       y       z     vdW  Elec       q    Type
REMARK                         _______ _______ _______ _____ _____    ______ ____
ROOT
ATOM      1  N   UNL     1      -2.540  13.128  19.876  0.00  0.00    +0.000 N 
ATOM      2  C   UNL     1      -1.253  12.755  19.241  0.00  0.00    +0.000 C 
ATOM      3  C   UNL     1      -0.697  11.759  20.220  0.00  0.00    +0.000 A 
ATOM      4  C   UNL     1      -0.126  10.501  20.022  0.00  0.00    +0.000 A 
ATOM      5  C   UNL     1      -0.004   9.672  21.158  0.00  0.00    +0.000 A 
ATOM      6  C   UNL     1      -0.457  10.094  22.421  0.00  0.00    +0.000 A 
ATOM      7  C   UNL     1      -1.037  11.344  22.608  0.00  0.00    +0.000 A 
ATOM      8  C   UNL     1      -1.166  12.143  21.486  0.00  0.00    +0.000 A 
ATOM      9  C   UNL     1      -2.254  13.148  21.271  0.00  0.00    +0.000 C 
ATOM     10  O   UNL     1      -2.879  13.673  22.165  0.00  0.00    +0.000 OA
ENDROOT
BRANCH   1  15
ATOM     11  C   UNL     1      -5.966  12.103  19.057  0.00  0.00    +0.000 A 
ATOM     12  C   UNL     1      -5.692  11.676  17.749  0.00  0.00    +0.000 A 
ATOM     13  C   UNL     1      -4.408  11.287  17.389  0.00  0.00    +0.000 A 
ATOM     14  C   UNL     1      -3.366  11.426  18.296  0.00  0.00    +0.000 A 
ATOM     15  C   UNL     1      -3.573  12.173  19.465  0.00  0.00    +0.000 A 
ATOM     16  C   UNL     1      -4.889  12.373  19.915  0.00  0.00    +0.000 A 
BRANCH  11  17
ATOM     17  C   UNL     1      -7.409  12.192  19.494  0.00  0.00    +0.000 C 
BRANCH  17  23
ATOM     18  C   UNL     1      -7.899  14.263  21.759  0.00  0.00    +0.000 C 
ATOM     19  N   UNL     1      -7.851  12.832  21.902  0.00  0.00    +0.000 N 
ATOM     20  C   UNL     1      -7.916  12.151  23.078  0.00  0.00    +0.000 A 
ATOM     21  N   UNL     1      -7.837  10.864  22.844  0.00  0.00    +0.000 NA
ATOM     22  N   UNL     1      -7.696  10.694  21.487  0.00  0.00    +0.000 NA
ATOM     23  C   UNL     1      -7.691  11.886  20.921  0.00  0.00    +0.000 A 
ENDBRANCH  17  23
ENDBRANCH  11  17
ENDBRANCH   1  15
BRANCH   6  24
ATOM     24  O   UNL     1      -0.454   9.234  23.482  0.00  0.00    +0.000 OA
ATOM     25  H   UNL     1      -1.300   8.756  23.505  0.00  0.00    +0.000 HD
ENDBRANCH   6  24
BRANCH   4  26
ATOM     26  C   UNL     1       0.131   9.925  18.644  0.00  0.00    +0.000 C 
BRANCH  26  27
ATOM     27  C   UNL     1       1.552   9.444  18.391  0.00  0.00    +0.000 C 
ATOM     28  F   UNL     1       1.547   8.354  17.585  0.00  0.00    +0.000 F 
ATOM     29  F   UNL     1       2.290  10.399  17.772  0.00  0.00    +0.000 F 
ENDBRANCH  26  27
ENDBRANCH   4  26
TORSDOF 6
ENDMDL
MODEL 7
REMARK VINA RESULT:      -8.1      5.075      8.311
REMARK  Name = 
REMARK  7 active torsions:
REMARK  status: ('A' for Active; 'I' for Inactive)
REMARK    1  A    between atoms: C_1  and  N_2
REMARK    2  A    between atoms: C_6  and  C_7
REMARK    3  A    between atoms: C_7  and  C_8
REMARK    4  A    between atoms: C_12  and  N_13
REMARK    5  A    between atoms: C_16  and  C_17
REMARK    6  A    between atoms: C_17  and  C_18
REMARK    7  A    between atoms: C_22  and  O_23
REMARK                            x       y       z     vdW  Elec       q    Type
REMARK                         _______ _______ _______ _____ _____    ______ ____
ROOT
ATOM      1  N   UNL     1      -1.141  12.183  18.854  0.00  0.00    +0.000 N 
ATOM      2  C   UNL     1       0.179  11.534  18.661  0.00  0.00    +0.000 C 
ATOM      3  C   UNL     1       0.367  10.811  19.965  0.00  0.00    +0.000 A 
ATOM      4  C   UNL     1       0.772   9.503  20.237  0.00  0.00    +0.000 A 
ATOM      5  C   UNL     1       0.533   9.022  21.542  0.00  0.00    +0.000 A 
ATOM      6  C   UNL     1      -0.101   9.822  22.510  0.00  0.00    +0.000 A 
ATOM      7  C   UNL     1      -0.512  11.119  22.228  0.00  0.00    +0.000 A 
ATOM      8  C   UNL     1      -0.288  11.577  20.941  0.00  0.00    +0.000 A 
ATOM      9  C   UNL     1      -1.146  12.572  20.224  0.00  0.00    +0.000 C 
ATOM     10  O   UNL     1      -1.855  13.381  20.779  0.00  0.00    +0.000 OA
ENDROOT
BRANCH   1  15
ATOM     11  C   UNL     1      -4.470  11.277  17.608  0.00  0.00    +0.000 A 
ATOM     12  C   UNL     1      -4.026  10.520  16.514  0.00  0.00    +0.000 A 
ATOM     13  C   UNL     1      -2.759   9.949  16.519  0.00  0.00    +0.000 A 
ATOM     14  C   UNL     1      -1.886  10.220  17.563  0.00  0.00    +0.000 A 
ATOM     15  C   UNL     1      -2.199  11.246  18.468  0.00  0.00    +0.000 A 
ATOM     16  C   UNL     1      -3.536  11.659  18.585  0.00  0.00    +0.000 A 
BRANCH  11  17
ATOM     17  C   UNL     1      -5.943  11.590  17.712  0.00  0.00    +0.000 C 
BRANCH  17  23
ATOM     18  C   UNL     1      -7.545  13.152  19.869  0.00  0.00    +0.000 C 
ATOM     19  N   UNL     1      -7.322  11.731  19.830  0.00  0.00    +0.000 N 
ATOM     20  C   UNL     1      -7.696  10.844  20.791  0.00  0.00    +0.000 A 
ATOM     21  N   UNL     1      -7.332   9.636  20.437  0.00  0.00    +0.000 NA
ATOM     22  N   UNL     1      -6.685   9.731  19.227  0.00  0.00    +0.000 NA
ATOM     23  C   UNL     1      -6.668  11.002  18.869  0.00  0.00    +0.000 A 
ENDBRANCH  17  23
ENDBRANCH  11  17
ENDBRANCH   1  15
BRANCH   6  24
ATOM     24  O   UNL     1      -0.443   9.300  23.725  0.00  0.00    +0.000 OA
ATOM     25  H   UNL     1       0.138   8.546  23.921  0.00  0.00    +0.000 HD
ENDBRANCH   6  24
BRANCH   4  26
ATOM     26  C   UNL     1       1.215   8.540  19.153  0.00  0.00    +0.000 C 
BRANCH  26  27
ATOM     27  C   UNL     1       2.412   8.991  18.329  0.00  0.00    +0.000 C 
ATOM     28  F   UNL     1       3.229   7.942  18.067  0.00  0.00    +0.000 F 
ATOM     29  F   UNL     1       2.021   9.504  17.136  0.00  0.00    +0.000 F 
ENDBRANCH  26  27
ENDBRANCH   4  26
TORSDOF 6
ENDMDL
MODEL 8
REMARK VINA RESULT:      -8.1      1.087      1.503
REMARK  Name = 
REMARK  7 active torsions:
REMARK  status: ('A' for Active; 'I' for Inactive)
REMARK    1  A    between atoms: C_1  and  N_2
REMARK    2  A    between atoms: C_6  and  C_7
REMARK    3  A    between atoms: C_7  and  C_8
REMARK    4  A    between atoms: C_12  and  N_13
REMARK    5  A    between atoms: C_16  and  C_17
REMARK    6  A    between atoms: C_17  and  C_18
REMARK    7  A    between atoms: C_22  and  O_23
REMARK                            x       y       z     vdW  Elec       q    Type
REMARK                         _______ _______ _______ _____ _____    ______ ____
ROOT
ATOM      1  N   UNL     1       4.375   3.923  19.488  0.00  0.00    +0.000 N 
ATOM      2  C   UNL     1       5.530   4.844  19.363  0.00  0.00    +0.000 C 
ATOM      3  C   UNL     1       5.755   4.866  17.878  0.00  0.00    +0.000 A 
ATOM      4  C   UNL     1       5.962   5.930  16.998  0.00  0.00    +0.000 A 
ATOM      5  C   UNL     1       5.811   5.656  15.622  0.00  0.00    +0.000 A 
ATOM      6  C   UNL     1       5.450   4.376  15.169  0.00  0.00    +0.000 A 
ATOM      7  C   UNL     1       5.232   3.324  16.051  0.00  0.00    +0.000 A 
ATOM      8  C   UNL     1       5.367   3.605  17.399  0.00  0.00    +0.000 A 
ATOM      9  C   UNL     1       4.607   2.928  18.496  0.00  0.00    +0.000 C 
ATOM     10  O   UNL     1       4.122   1.823  18.403  0.00  0.00    +0.000 OA
ENDROOT
BRANCH   1  15
ATOM     11  C   UNL     1       2.400   6.912  18.700  0.00  0.00    +0.000 A 
ATOM     12  C   UNL     1       1.643   6.331  17.671  0.00  0.00    +0.000 A 
ATOM     13  C   UNL     1       1.457   4.956  17.623  0.00  0.00    +0.000 A 
ATOM     14  C   UNL     1       2.113   4.140  18.534  0.00  0.00    +0.000 A 
ATOM     15  C   UNL     1       3.133   4.684  19.329  0.00  0.00    +0.000 A 
ATOM     16  C   UNL     1       3.168   6.074  19.524  0.00  0.00    +0.000 A 
BRANCH  11  17
ATOM     17  C   UNL     1       2.301   8.404  18.908  0.00  0.00    +0.000 C 
BRANCH  17  23
ATOM     18  C   UNL     1      -0.105  10.309  18.417  0.00  0.00    +0.000 C 
ATOM     19  N   UNL     1       0.304   9.753  19.680  0.00  0.00    +0.000 N 
ATOM     20  C   UNL     1      -0.241  10.052  20.890  0.00  0.00    +0.000 A 
ATOM     21  N   UNL     1       0.374   9.372  21.827  0.00  0.00    +0.000 NA
ATOM     22  N   UNL     1       1.359   8.627  21.224  0.00  0.00    +0.000 NA
ATOM     23  C   UNL     1       1.324   8.870  19.927  0.00  0.00    +0.000 A 
ENDBRANCH  17  23
ENDBRANCH  11  17
ENDBRANCH   1  15
BRANCH   6  24
ATOM     24  O   UNL     1       5.179   4.158  13.847  0.00  0.00    +0.000 OA
ATOM     25  H   UNL     1       5.520   4.905  13.327  0.00  0.00    +0.000 HD
ENDBRANCH   6  24
BRANCH   4  26
ATOM     26  C   UNL     1       6.097   7.366  17.466  0.00  0.00    +0.000 C 
BRANCH  26  27
ATOM     27  C   UNL     1       7.518   7.909  17.508  0.00  0.00    +0.000 C 
ATOM     28  F   UNL     1       7.510   9.235  17.792  0.00  0.00    +0.000 F 
ATOM     29  F   UNL     1       8.249   7.296  18.472  0.00  0.00    +0.000 F 
ENDBRANCH  26  27
ENDBRANCH   4  26
TORSDOF 6
ENDMDL
MODEL 9
REMARK VINA RESULT:      -7.9      2.383      3.277
REMARK  Name = 
REMARK  7 active torsions:
REMARK  status: ('A' for Active; 'I' for Inactive)
REMARK    1  A    between atoms: C_1  and  N_2
REMARK    2  A    between atoms: C_6  and  C_7
REMARK    3  A    between atoms: C_7  and  C_8
REMARK    4  A    between atoms: C_12  and  N_13
REMARK    5  A    between atoms: C_16  and  C_17
REMARK    6  A    between atoms: C_17  and  C_18
REMARK    7  A    between atoms: C_22  and  O_23
REMARK                            x       y       z     vdW  Elec       q    Type
REMARK                         _______ _______ _______ _____ _____    ______ ____
ROOT
ATOM      1  N   UNL     1       3.372   6.159  20.006  0.00  0.00    +0.000 N 
ATOM      2  C   UNL     1       4.395   5.518  19.143  0.00  0.00    +0.000 C 
ATOM      3  C   UNL     1       3.686   4.274  18.686  0.00  0.00    +0.000 A 
ATOM      4  C   UNL     1       3.560   3.706  17.417  0.00  0.00    +0.000 A 
ATOM      5  C   UNL     1       2.561   2.722  17.257  0.00  0.00    +0.000 A 
ATOM      6  C   UNL     1       1.722   2.354  18.324  0.00  0.00    +0.000 A 
ATOM      7  C   UNL     1       1.844   2.934  19.582  0.00  0.00    +0.000 A 
ATOM      8  C   UNL     1       2.817   3.908  19.725  0.00  0.00    +0.000 A 
ATOM      9  C   UNL     1       2.734   5.069  20.666  0.00  0.00    +0.000 C 
ATOM     10  O   UNL     1       2.055   5.084  21.668  0.00  0.00    +0.000 OA
ENDROOT
BRANCH   1  15
ATOM     11  C   UNL     1       1.209   9.042  19.324  0.00  0.00    +0.000 A 
ATOM     12  C   UNL     1       1.947   9.536  18.238  0.00  0.00    +0.000 A 
ATOM     13  C   UNL     1       2.767   8.692  17.500  0.00  0.00    +0.000 A 
ATOM     14  C   UNL     1       2.944   7.377  17.906  0.00  0.00    +0.000 A 
ATOM     15  C   UNL     1       2.493   6.986  19.176  0.00  0.00    +0.000 A 
ATOM     16  C   UNL     1       1.504   7.757  19.808  0.00  0.00    +0.000 A 
BRANCH  11  17
ATOM     17  C   UNL     1       0.094   9.894  19.880  0.00  0.00    +0.000 C 
BRANCH  17  23
ATOM     18  C   UNL     1      -0.673  12.557  18.473  0.00  0.00    +0.000 C 
ATOM     19  N   UNL     1       0.146  12.414  19.647  0.00  0.00    +0.000 N 
ATOM     20  C   UNL     1       0.805  13.421  20.280  0.00  0.00    +0.000 A 
ATOM     21  N   UNL     1       1.460  12.939  21.308  0.00  0.00    +0.000 NA
ATOM     22  N   UNL     1       1.245  11.581  21.340  0.00  0.00    +0.000 NA
ATOM     23  C   UNL     1       0.462  11.264  20.326  0.00  0.00    +0.000 A 
ENDBRANCH  17  23
ENDBRANCH  11  17
ENDBRANCH   1  15
BRANCH   6  24
ATOM     24  O   UNL     1       0.676   1.500  18.121  0.00  0.00    +0.000 OA
ATOM     25  H   UNL     1       0.870   0.939  17.351  0.00  0.00    +0.000 HD
ENDBRANCH   6  24
BRANCH   4  26
ATOM     26  C   UNL     1       4.267   4.261  16.196  0.00  0.00    +0.000 C 
BRANCH  26  27
ATOM     27  C   UNL     1       5.731   3.870  16.055  0.00  0.00    +0.000 C 
ATOM     28  F   UNL     1       6.029   3.610  14.758  0.00  0.00    +0.000 F 
ATOM     29  F   UNL     1       6.548   4.873  16.462  0.00  0.00    +0.000 F 
ENDBRANCH  26  27
ENDBRANCH   4  26
TORSDOF 6
ENDMDL
