MODEL 1
REMARK VINA RESULT:      -8.9      0.000      0.000
REMARK  Name = 
REMARK  3 active torsions:
REMARK  status: ('A' for Active; 'I' for Inactive)
REMARK    1  A    between atoms: C_1  and  C_2
REMARK    2  A    between atoms: C_4  and  N_5
REMARK    3  A    between atoms: N_8  and  C_9
REMARK                            x       y       z     vdW  Elec       q    Type
REMARK                         _______ _______ _______ _____ _____    ______ ____
ROOT
ATOM      1  N   UNL     1       1.243   9.514  19.051  0.00  0.00    +0.000 N 
ATOM      2  C   UNL     1       1.500   8.304  19.790  0.00  0.00    +0.000 C 
ATOM      3  O   UNL     1       1.097   8.155  20.932  0.00  0.00    +0.000 OA
ATOM      4  N   UNL     1       2.268   7.434  19.091  0.00  0.00    +0.000 N 
ATOM      5  H   UNL     1       1.445   9.574  18.059  0.00  0.00    +0.000 HD
ATOM      6  H   UNL     1       2.778   7.838  18.324  0.00  0.00    +0.000 HD
ENDROOT
BRANCH   1  10
ATOM      7  C   UNL     1       0.122  13.447  21.961  0.00  0.00    +0.000 C 
ATOM      8  C   UNL     1       0.162  12.425  20.887  0.00  0.00    +0.000 A 
ATOM      9  C   UNL     1       1.078  11.367  20.718  0.00  0.00    +0.000 A 
ATOM     10  C   UNL     1       0.646  10.658  19.615  0.00  0.00    +0.000 A 
ATOM     11  N   UNL     1      -0.506  11.323  19.181  0.00  0.00    +0.000 N 
ATOM     12  C   UNL     1      -1.397  10.942  18.132  0.00  0.00    +0.000 A 
ATOM     13  C   UNL     1      -2.498  11.770  17.871  0.00  0.00    +0.000 A 
ATOM     14  C   UNL     1      -3.431  11.379  16.916  0.00  0.00    +0.000 A 
ATOM     15  C   UNL     1      -3.250  10.173  16.257  0.00  0.00    +0.000 A 
ATOM     16  C   UNL     1      -2.125   9.417  16.565  0.00  0.00    +0.000 A 
ATOM     17  N   UNL     1      -1.175   9.772  17.472  0.00  0.00    +0.000 NA
ATOM     18  N   UNL     1      -0.764  12.432  19.930  0.00  0.00    +0.000 NA
ENDBRANCH   1  10
BRANCH   4  19
ATOM     19  C   UNL     1       2.931   6.302  19.753  0.00  0.00    +0.000 C 
ATOM     20  C   UNL     1       4.137   5.792  18.920  0.00  0.00    +0.000 C 
ATOM     21  C   UNL     1       3.833   5.494  17.441  0.00  0.00    +0.000 C 
ATOM     22  C   UNL     1       2.815   4.379  17.197  0.00  0.00    +0.000 C 
ATOM     23  O   UNL     1       1.562   4.681  17.816  0.00  0.00    +0.000 OA
ATOM     24  C   UNL     1       1.589   4.232  19.110  0.00  0.00    +0.000 A 
ATOM     25  C   UNL     1       1.236   2.905  19.387  0.00  0.00    +0.000 A 
ATOM     26  F   UNL     1       0.839   2.094  18.396  0.00  0.00    +0.000 F 
ATOM     27  C   UNL     1       1.425   2.373  20.655  0.00  0.00    +0.000 A 
ATOM     28  C   UNL     1       1.893   3.196  21.677  0.00  0.00    +0.000 A 
ATOM     29  C   UNL     1       2.211   4.535  21.412  0.00  0.00    +0.000 A 
ATOM     30  C   UNL     1       2.115   5.063  20.107  0.00  0.00    +0.000 A 
ENDBRANCH   4  19
TORSDOF 2
ENDMDL
MODEL 2
REMARK VINA RESULT:      -8.1      3.250      8.118
REMARK  Name = 
REMARK  3 active torsions:
REMARK  status: ('A' for Active; 'I' for Inactive)
REMARK    1  A    between atoms: C_1  and  C_2
REMARK    2  A    between atoms: C_4  and  N_5
REMARK    3  A    between atoms: N_8  and  C_9
REMARK                            x       y       z     vdW  Elec       q    Type
REMARK                         _______ _______ _______ _____ _____    ______ ____
ROOT
ATOM      1  N   UNL     1       2.207   7.250  20.050  0.00  0.00    +0.000 N 
ATOM      2  C   UNL     1       1.141   7.947  20.721  0.00  0.00    +0.000 C 
ATOM      3  O   UNL     1       0.404   7.379  21.510  0.00  0.00    +0.000 OA
ATOM      4  N   UNL     1       1.043   9.237  20.320  0.00  0.00    +0.000 N 
ATOM      5  H   UNL     1       2.907   7.754  19.517  0.00  0.00    +0.000 HD
ATOM      6  H   UNL     1       1.496   9.446  19.447  0.00  0.00    +0.000 HD
ENDROOT
BRANCH   1  10
ATOM      7  C   UNL     1       2.259   2.454  21.529  0.00  0.00    +0.000 C 
ATOM      8  C   UNL     1       2.397   3.720  20.769  0.00  0.00    +0.000 A 
ATOM      9  C   UNL     1       1.977   5.014  21.139  0.00  0.00    +0.000 A 
ATOM     10  C   UNL     1       2.399   5.857  20.131  0.00  0.00    +0.000 A 
ATOM     11  N   UNL     1       3.050   5.028  19.210  0.00  0.00    +0.000 N 
ATOM     12  C   UNL     1       3.758   5.412  18.030  0.00  0.00    +0.000 A 
ATOM     13  C   UNL     1       4.337   4.401  17.252  0.00  0.00    +0.000 A 
ATOM     14  C   UNL     1       5.107   4.750  16.146  0.00  0.00    +0.000 A 
ATOM     15  C   UNL     1       5.288   6.093  15.854  0.00  0.00    +0.000 A 
ATOM     16  C   UNL     1       4.668   7.033  16.668  0.00  0.00    +0.000 A 
ATOM     17  N   UNL     1       3.887   6.737  17.742  0.00  0.00    +0.000 NA
ATOM     18  N   UNL     1       2.997   3.718  19.581  0.00  0.00    +0.000 NA
ENDBRANCH   1  10
BRANCH   4  19
ATOM     19  C   UNL     1      -0.157  10.034  20.606  0.00  0.00    +0.000 C 
ATOM     20  C   UNL     1      -0.859  10.483  19.297  0.00  0.00    +0.000 C 
ATOM     21  C   UNL     1       0.054  11.171  18.266  0.00  0.00    +0.000 C 
ATOM     22  C   UNL     1       0.683  12.486  18.728  0.00  0.00    +0.000 C 
ATOM     23  O   UNL     1       1.472  12.295  19.905  0.00  0.00    +0.000 OA
ATOM     24  C   UNL     1       0.663  12.415  21.004  0.00  0.00    +0.000 A 
ATOM     25  C   UNL     1       0.426  13.683  21.550  0.00  0.00    +0.000 A 
ATOM     26  F   UNL     1       1.019  14.764  21.022  0.00  0.00    +0.000 F 
ATOM     27  C   UNL     1      -0.526  13.859  22.545  0.00  0.00    +0.000 A 
ATOM     28  C   UNL     1      -1.188  12.746  23.059  0.00  0.00    +0.000 A 
ATOM     29  C   UNL     1      -0.926  11.470  22.541  0.00  0.00    +0.000 A 
ATOM     30  C   UNL     1      -0.032  11.290  21.464  0.00  0.00    +0.000 A 
ENDBRANCH   4  19
TORSDOF 2
ENDMDL
MODEL 3
REMARK VINA RESULT:      -8.0      2.359      2.830
REMARK  Name = 
REMARK  3 active torsions:
REMARK  status: ('A' for Active; 'I' for Inactive)
REMARK    1  A    between atoms: C_1  and  C_2
REMARK    2  A    between atoms: C_4  and  N_5
REMARK    3  A    between atoms: N_8  and  C_9
REMARK                            x       y       z     vdW  Elec       q    Type
REMARK                         _______ _______ _______ _____ _____    ______ ____
ROOT
ATOM      1  N   UNL     1       1.120   9.372  20.023  0.00  0.00    +0.000 N 
ATOM      2  C   UNL     1       1.439   8.056  20.514  0.00  0.00    +0.000 C 
ATOM      3  O   UNL     1       1.061   7.674  21.609  0.00  0.00    +0.000 OA
ATOM      4  N   UNL     1       2.230   7.369  19.655  0.00  0.00    +0.000 N 
ATOM      5  H   UNL     1       1.304   9.629  19.059  0.00  0.00    +0.000 HD
ATOM      6  H   UNL     1       2.711   7.934  18.975  0.00  0.00    +0.000 HD
ENDROOT
BRANCH   1  10
ATOM      7  C   UNL     1      -1.801  11.817  23.291  0.00  0.00    +0.000 C 
ATOM      8  C   UNL     1      -0.788  11.448  22.272  0.00  0.00    +0.000 A 
ATOM      9  C   UNL     1      -0.464  10.167  21.782  0.00  0.00    +0.000 A 
ATOM     10  C   UNL     1       0.486  10.360  20.800  0.00  0.00    +0.000 A 
ATOM     11  N   UNL     1       0.683  11.745  20.750  0.00  0.00    +0.000 N 
ATOM     12  C   UNL     1       1.494  12.484  19.835  0.00  0.00    +0.000 A 
ATOM     13  C   UNL     1       1.540  13.878  19.974  0.00  0.00    +0.000 A 
ATOM     14  C   UNL     1       2.250  14.632  19.045  0.00  0.00    +0.000 A 
ATOM     15  C   UNL     1       2.882  13.979  17.997  0.00  0.00    +0.000 A 
ATOM     16  C   UNL     1       2.799  12.594  17.938  0.00  0.00    +0.000 A 
ATOM     17  N   UNL     1       2.139  11.815  18.838  0.00  0.00    +0.000 NA
ATOM     18  N   UNL     1      -0.058  12.397  21.689  0.00  0.00    +0.000 NA
ENDBRANCH   1  10
BRANCH   4  19
ATOM     19  C   UNL     1       2.949   6.162  20.082  0.00  0.00    +0.000 C 
ATOM     20  C   UNL     1       4.064   5.784  19.072  0.00  0.00    +0.000 C 
ATOM     21  C   UNL     1       3.614   5.695  17.602  0.00  0.00    +0.000 C 
ATOM     22  C   UNL     1       2.571   4.616  17.305  0.00  0.00    +0.000 C 
ATOM     23  O   UNL     1       1.387   4.816  18.081  0.00  0.00    +0.000 OA
ATOM     24  C   UNL     1       1.539   4.191  19.290  0.00  0.00    +0.000 A 
ATOM     25  C   UNL     1       1.209   2.835  19.410  0.00  0.00    +0.000 A 
ATOM     26  F   UNL     1       0.712   2.168  18.359  0.00  0.00    +0.000 F 
ATOM     27  C   UNL     1       1.520   2.131  20.566  0.00  0.00    +0.000 A 
ATOM     28  C   UNL     1       2.090   2.806  21.643  0.00  0.00    +0.000 A 
ATOM     29  C   UNL     1       2.387   4.172  21.539  0.00  0.00    +0.000 A 
ATOM     30  C   UNL     1       2.166   4.877  20.337  0.00  0.00    +0.000 A 
ENDBRANCH   4  19
TORSDOF 2
ENDMDL
MODEL 4
REMARK VINA RESULT:      -7.6      2.930      8.093
REMARK  Name = 
REMARK  3 active torsions:
REMARK  status: ('A' for Active; 'I' for Inactive)
REMARK    1  A    between atoms: C_1  and  C_2
REMARK    2  A    between atoms: C_4  and  N_5
REMARK    3  A    between atoms: N_8  and  C_9
REMARK                            x       y       z     vdW  Elec       q    Type
REMARK                         _______ _______ _______ _____ _____    ______ ____
ROOT
ATOM      1  N   UNL     1       2.742   7.811  18.795  0.00  0.00    +0.000 N 
ATOM      2  C   UNL     1       1.708   8.638  18.227  0.00  0.00    +0.000 C 
ATOM      3  O   UNL     1       1.329   8.487  17.078  0.00  0.00    +0.000 OA
ATOM      4  N   UNL     1       1.292   9.597  19.090  0.00  0.00    +0.000 N 
ATOM      5  H   UNL     1       2.946   7.837  19.788  0.00  0.00    +0.000 HD
ATOM      6  H   UNL     1       1.922   9.789  19.849  0.00  0.00    +0.000 HD
ENDROOT
BRANCH   1  10
ATOM      7  C   UNL     1       5.759   5.593  15.453  0.00  0.00    +0.000 C 
ATOM      8  C   UNL     1       4.850   5.890  16.587  0.00  0.00    +0.000 A 
ATOM      9  C   UNL     1       4.338   7.138  16.996  0.00  0.00    +0.000 A 
ATOM     10  C   UNL     1       3.487   6.876  18.051  0.00  0.00    +0.000 A 
ATOM     11  N   UNL     1       3.530   5.488  18.219  0.00  0.00    +0.000 N 
ATOM     12  C   UNL     1       2.755   4.688  19.114  0.00  0.00    +0.000 A 
ATOM     13  C   UNL     1       2.968   3.302  19.110  0.00  0.00    +0.000 A 
ATOM     14  C   UNL     1       2.168   2.488  19.906  0.00  0.00    +0.000 A 
ATOM     15  C   UNL     1       1.172   3.074  20.672  0.00  0.00    +0.000 A 
ATOM     16  C   UNL     1       1.034   4.455  20.629  0.00  0.00    +0.000 A 
ATOM     17  N   UNL     1       1.810   5.291  19.887  0.00  0.00    +0.000 NA
ATOM     18  N   UNL     1       4.406   4.899  17.357  0.00  0.00    +0.000 NA
ENDBRANCH   1  10
BRANCH   4  19
ATOM     19  C   UNL     1       0.505  10.747  18.626  0.00  0.00    +0.000 C 
ATOM     20  C   UNL     1       1.333  12.058  18.691  0.00  0.00    +0.000 C 
ATOM     21  C   UNL     1       2.015  12.336  20.043  0.00  0.00    +0.000 C 
ATOM     22  C   UNL     1       1.063  12.531  21.224  0.00  0.00    +0.000 C 
ATOM     23  O   UNL     1       0.236  11.380  21.416  0.00  0.00    +0.000 OA
ATOM     24  C   UNL     1      -0.879  11.502  20.630  0.00  0.00    +0.000 A 
ATOM     25  C   UNL     1      -1.993  12.198  21.117  0.00  0.00    +0.000 A 
ATOM     26  F   UNL     1      -1.977  12.707  22.357  0.00  0.00    +0.000 F 
ATOM     27  C   UNL     1      -3.063  12.492  20.284  0.00  0.00    +0.000 A 
ATOM     28  C   UNL     1      -3.060  12.015  18.975  0.00  0.00    +0.000 A 
ATOM     29  C   UNL     1      -1.963  11.285  18.495  0.00  0.00    +0.000 A 
ATOM     30  C   UNL     1      -0.827  11.062  19.302  0.00  0.00    +0.000 A 
ENDBRANCH   4  19
TORSDOF 2
ENDMDL
MODEL 5
REMARK VINA RESULT:      -7.5      3.152      4.624
REMARK  Name = 
REMARK  3 active torsions:
REMARK  status: ('A' for Active; 'I' for Inactive)
REMARK    1  A    between atoms: C_1  and  C_2
REMARK    2  A    between atoms: C_4  and  N_5
REMARK    3  A    between atoms: N_8  and  C_9
REMARK                            x       y       z     vdW  Elec       q    Type
REMARK                         _______ _______ _______ _____ _____    ______ ____
ROOT
ATOM      1  N   UNL     1       1.864   8.416  19.027  0.00  0.00    +0.000 N 
ATOM      2  C   UNL     1       2.772   7.621  18.240  0.00  0.00    +0.000 C 
ATOM      3  O   UNL     1       3.618   8.136  17.528  0.00  0.00    +0.000 OA
ATOM      4  N   UNL     1       2.516   6.295  18.351  0.00  0.00    +0.000 N 
ATOM      5  H   UNL     1       1.268   7.989  19.728  0.00  0.00    +0.000 HD
ATOM      6  H   UNL     1       1.602   6.066  18.702  0.00  0.00    +0.000 HD
ENDROOT
BRANCH   1  10
ATOM      7  C   UNL     1       2.414  13.216  17.667  0.00  0.00    +0.000 C 
ATOM      8  C   UNL     1       1.995  11.950  18.317  0.00  0.00    +0.000 A 
ATOM      9  C   UNL     1       2.381  10.632  17.998  0.00  0.00    +0.000 A 
ATOM     10  C   UNL     1       1.778   9.818  18.936  0.00  0.00    +0.000 A 
ATOM     11  N   UNL     1       1.066  10.687  19.770  0.00  0.00    +0.000 N 
ATOM     12  C   UNL     1       0.344  10.367  20.961  0.00  0.00    +0.000 A 
ATOM     13  C   UNL     1      -0.300  11.410  21.640  0.00  0.00    +0.000 A 
ATOM     14  C   UNL     1      -0.935  11.145  22.849  0.00  0.00    +0.000 A 
ATOM     15  C   UNL     1      -0.902   9.853  23.353  0.00  0.00    +0.000 A 
ATOM     16  C   UNL     1      -0.254   8.874  22.611  0.00  0.00    +0.000 A 
ATOM     17  N   UNL     1       0.358   9.083  21.413  0.00  0.00    +0.000 NA
ATOM     18  N   UNL     1       1.159  11.981  19.352  0.00  0.00    +0.000 NA
ENDBRANCH   1  10
BRANCH   4  19
ATOM     19  C   UNL     1       3.079   5.329  17.399  0.00  0.00    +0.000 C 
ATOM     20  C   UNL     1       2.840   3.870  17.871  0.00  0.00    +0.000 C 
ATOM     21  C   UNL     1       3.274   3.570  19.317  0.00  0.00    +0.000 C 
ATOM     22  C   UNL     1       4.770   3.726  19.594  0.00  0.00    +0.000 C 
ATOM     23  O   UNL     1       5.211   5.056  19.306  0.00  0.00    +0.000 OA
ATOM     24  C   UNL     1       5.553   5.130  17.981  0.00  0.00    +0.000 A 
ATOM     25  C   UNL     1       6.848   4.775  17.583  0.00  0.00    +0.000 A 
ATOM     26  F   UNL     1       7.754   4.401  18.498  0.00  0.00    +0.000 F 
ATOM     27  C   UNL     1       7.170   4.667  16.237  0.00  0.00    +0.000 A 
ATOM     28  C   UNL     1       6.214   4.999  15.279  0.00  0.00    +0.000 A 
ATOM     29  C   UNL     1       4.928   5.392  15.675  0.00  0.00    +0.000 A 
ATOM     30  C   UNL     1       4.559   5.412  17.037  0.00  0.00    +0.000 A 
ENDBRANCH   4  19
TORSDOF 2
ENDMDL
MODEL 6
REMARK VINA RESULT:      -7.4      3.020      8.196
REMARK  Name = 
REMARK  3 active torsions:
REMARK  status: ('A' for Active; 'I' for Inactive)
REMARK    1  A    between atoms: C_1  and  C_2
REMARK    2  A    between atoms: C_4  and  N_5
REMARK    3  A    between atoms: N_8  and  C_9
REMARK                            x       y       z     vdW  Elec       q    Type
REMARK                         _______ _______ _______ _____ _____    ______ ____
ROOT
ATOM      1  N   UNL     1       2.022   7.408  19.397  0.00  0.00    +0.000 N 
ATOM      2  C   UNL     1       1.619   8.370  20.391  0.00  0.00    +0.000 C 
ATOM      3  O   UNL     1       1.527   8.069  21.570  0.00  0.00    +0.000 OA
ATOM      4  N   UNL     1       1.312   9.570  19.843  0.00  0.00    +0.000 N 
ATOM      5  H   UNL     1       2.244   7.696  18.450  0.00  0.00    +0.000 HD
ATOM      6  H   UNL     1       1.124   9.552  18.855  0.00  0.00    +0.000 HD
ENDROOT
BRANCH   1  10
ATOM      7  C   UNL     1       1.903   2.830  21.450  0.00  0.00    +0.000 C 
ATOM      8  C   UNL     1       2.124   3.995  20.560  0.00  0.00    +0.000 A 
ATOM      9  C   UNL     1       1.671   5.320  20.722  0.00  0.00    +0.000 A 
ATOM     10  C   UNL     1       2.199   6.037  19.668  0.00  0.00    +0.000 A 
ATOM     11  N   UNL     1       2.942   5.109  18.930  0.00  0.00    +0.000 N 
ATOM     12  C   UNL     1       3.771   5.353  17.792  0.00  0.00    +0.000 A 
ATOM     13  C   UNL     1       4.427   4.260  17.209  0.00  0.00    +0.000 A 
ATOM     14  C   UNL     1       5.310   4.479  16.157  0.00  0.00    +0.000 A 
ATOM     15  C   UNL     1       5.525   5.778  15.722  0.00  0.00    +0.000 A 
ATOM     16  C   UNL     1       4.826   6.804  16.345  0.00  0.00    +0.000 A 
ATOM     17  N   UNL     1       3.934   6.634  17.359  0.00  0.00    +0.000 NA
ATOM     18  N   UNL     1       2.846   3.853  19.451  0.00  0.00    +0.000 NA
ENDBRANCH   1  10
BRANCH   4  19
ATOM     19  C   UNL     1       0.566  10.584  20.600  0.00  0.00    +0.000 C 
ATOM     20  C   UNL     1      -0.965  10.358  20.485  0.00  0.00    +0.000 C 
ATOM     21  C   UNL     1      -1.498  10.207  19.048  0.00  0.00    +0.000 C 
ATOM     22  C   UNL     1      -1.313  11.433  18.153  0.00  0.00    +0.000 C 
ATOM     23  O   UNL     1       0.068  11.784  18.038  0.00  0.00    +0.000 OA
ATOM     24  C   UNL     1       0.400  12.618  19.072  0.00  0.00    +0.000 A 
ATOM     25  C   UNL     1       0.193  13.997  18.940  0.00  0.00    +0.000 A 
ATOM     26  F   UNL     1      -0.291  14.497  17.793  0.00  0.00    +0.000 F 
ATOM     27  C   UNL     1       0.349  14.844  20.028  0.00  0.00    +0.000 A 
ATOM     28  C   UNL     1       0.796  14.322  21.240  0.00  0.00    +0.000 A 
ATOM     29  C   UNL     1       1.041  12.947  21.366  0.00  0.00    +0.000 A 
ATOM     30  C   UNL     1       0.794  12.061  20.295  0.00  0.00    +0.000 A 
ENDBRANCH   4  19
TORSDOF 2
ENDMDL
MODEL 7
REMARK VINA RESULT:      -7.3      3.076      7.987
REMARK  Name = 
REMARK  3 active torsions:
REMARK  status: ('A' for Active; 'I' for Inactive)
REMARK    1  A    between atoms: C_1  and  C_2
REMARK    2  A    between atoms: C_4  and  N_5
REMARK    3  A    between atoms: N_8  and  C_9
REMARK                            x       y       z     vdW  Elec       q    Type
REMARK                         _______ _______ _______ _____ _____    ______ ____
ROOT
ATOM      1  N   UNL     1       2.530   7.962  19.138  0.00  0.00    +0.000 N 
ATOM      2  C   UNL     1       1.481   8.922  19.370  0.00  0.00    +0.000 C 
ATOM      3  O   UNL     1       0.459   8.620  19.964  0.00  0.00    +0.000 OA
ATOM      4  N   UNL     1       1.755  10.122  18.806  0.00  0.00    +0.000 N 
ATOM      5  H   UNL     1       3.434   8.251  18.783  0.00  0.00    +0.000 HD
ATOM      6  H   UNL     1       2.462  10.105  18.090  0.00  0.00    +0.000 HD
ENDROOT
BRANCH   1  10
ATOM      7  C   UNL     1       1.449   3.561  21.295  0.00  0.00    +0.000 C 
ATOM      8  C   UNL     1       1.906   4.632  20.377  0.00  0.00    +0.000 A 
ATOM      9  C   UNL     1       1.752   6.027  20.512  0.00  0.00    +0.000 A 
ATOM     10  C   UNL     1       2.410   6.591  19.438  0.00  0.00    +0.000 A 
ATOM     11  N   UNL     1       2.927   5.509  18.717  0.00  0.00    +0.000 N 
ATOM     12  C   UNL     1       3.777   5.545  17.569  0.00  0.00    +0.000 A 
ATOM     13  C   UNL     1       4.174   4.324  17.007  0.00  0.00    +0.000 A 
ATOM     14  C   UNL     1       5.072   4.325  15.943  0.00  0.00    +0.000 A 
ATOM     15  C   UNL     1       5.557   5.538  15.478  0.00  0.00    +0.000 A 
ATOM     16  C   UNL     1       5.103   6.704  16.082  0.00  0.00    +0.000 A 
ATOM     17  N   UNL     1       4.207   6.751  17.106  0.00  0.00    +0.000 NA
ATOM     18  N   UNL     1       2.568   4.315  19.267  0.00  0.00    +0.000 NA
ENDBRANCH   1  10
BRANCH   4  19
ATOM     19  C   UNL     1       0.706  11.134  18.622  0.00  0.00    +0.000 C 
ATOM     20  C   UNL     1       1.312  12.501  18.205  0.00  0.00    +0.000 C 
ATOM     21  C   UNL     1       2.453  13.014  19.103  0.00  0.00    +0.000 C 
ATOM     22  C   UNL     1       2.063  13.296  20.555  0.00  0.00    +0.000 C 
ATOM     23  O   UNL     1       1.546  12.122  21.186  0.00  0.00    +0.000 OA
ATOM     24  C   UNL     1       0.199  12.048  20.947  0.00  0.00    +0.000 A 
ATOM     25  C   UNL     1      -0.690  12.716  21.799  0.00  0.00    +0.000 A 
ATOM     26  F   UNL     1      -0.225  13.390  22.861  0.00  0.00    +0.000 F 
ATOM     27  C   UNL     1      -2.038  12.810  21.482  0.00  0.00    +0.000 A 
ATOM     28  C   UNL     1      -2.519  12.159  20.348  0.00  0.00    +0.000 A 
ATOM     29  C   UNL     1      -1.638  11.457  19.513  0.00  0.00    +0.000 A 
ATOM     30  C   UNL     1      -0.251  11.435  19.771  0.00  0.00    +0.000 A 
ENDBRANCH   4  19
TORSDOF 2
ENDMDL
MODEL 8
REMARK VINA RESULT:      -7.2      3.174      8.407
REMARK  Name = 
REMARK  3 active torsions:
REMARK  status: ('A' for Active; 'I' for Inactive)
REMARK    1  A    between atoms: C_1  and  C_2
REMARK    2  A    between atoms: C_4  and  N_5
REMARK    3  A    between atoms: N_8  and  C_9
REMARK                            x       y       z     vdW  Elec       q    Type
REMARK                         _______ _______ _______ _____ _____    ______ ____
ROOT
ATOM      1  N   UNL     1       2.184   7.165  18.075  0.00  0.00    +0.000 N 
ATOM      2  C   UNL     1       1.981   7.951  19.265  0.00  0.00    +0.000 C 
ATOM      3  O   UNL     1       2.073   7.461  20.378  0.00  0.00    +0.000 OA
ATOM      4  N   UNL     1       1.628   9.228  18.978  0.00  0.00    +0.000 N 
ATOM      5  H   UNL     1       2.257   7.604  17.164  0.00  0.00    +0.000 HD
ATOM      6  H   UNL     1       1.280   9.374  18.045  0.00  0.00    +0.000 HD
ENDROOT
BRANCH   1  10
ATOM      7  C   UNL     1       1.523   2.213  18.556  0.00  0.00    +0.000 C 
ATOM      8  C   UNL     1       2.060   3.565  18.269  0.00  0.00    +0.000 A 
ATOM      9  C   UNL     1       1.417   4.812  18.410  0.00  0.00    +0.000 A 
ATOM     10  C   UNL     1       2.359   5.768  18.087  0.00  0.00    +0.000 A 
ATOM     11  N   UNL     1       3.516   5.048  17.770  0.00  0.00    +0.000 N 
ATOM     12  C   UNL     1       4.813   5.562  17.462  0.00  0.00    +0.000 A 
ATOM     13  C   UNL     1       5.833   4.645  17.174  0.00  0.00    +0.000 A 
ATOM     14  C   UNL     1       7.126   5.111  16.957  0.00  0.00    +0.000 A 
ATOM     15  C   UNL     1       7.369   6.474  17.044  0.00  0.00    +0.000 A 
ATOM     16  C   UNL     1       6.301   7.317  17.320  0.00  0.00    +0.000 A 
ATOM     17  N   UNL     1       5.017   6.908  17.514  0.00  0.00    +0.000 NA
ATOM     18  N   UNL     1       3.310   3.702  17.832  0.00  0.00    +0.000 NA
ENDBRANCH   1  10
BRANCH   4  19
ATOM     19  C   UNL     1       1.050  10.106  20.003  0.00  0.00    +0.000 C 
ATOM     20  C   UNL     1      -0.463   9.821  20.200  0.00  0.00    +0.000 C 
ATOM     21  C   UNL     1      -1.302   9.815  18.909  0.00  0.00    +0.000 C 
ATOM     22  C   UNL     1      -1.350  11.147  18.158  0.00  0.00    +0.000 C 
ATOM     23  O   UNL     1      -0.037  11.576  17.787  0.00  0.00    +0.000 OA
ATOM     24  C   UNL     1       0.501  12.297  18.821  0.00  0.00    +0.000 A 
ATOM     25  C   UNL     1       0.240  13.670  18.913  0.00  0.00    +0.000 A 
ATOM     26  F   UNL     1      -0.500  14.278  17.974  0.00  0.00    +0.000 F 
ATOM     27  C   UNL     1       0.618  14.388  20.039  0.00  0.00    +0.000 A 
ATOM     28  C   UNL     1       1.337  13.748  21.046  0.00  0.00    +0.000 A 
ATOM     29  C   UNL     1       1.633  12.382  20.939  0.00  0.00    +0.000 A 
ATOM     30  C   UNL     1       1.171  11.619  19.846  0.00  0.00    +0.000 A 
ENDBRANCH   4  19
TORSDOF 2
ENDMDL
MODEL 9
REMARK VINA RESULT:      -7.2      4.432      6.227
REMARK  Name = 
REMARK  3 active torsions:
REMARK  status: ('A' for Active; 'I' for Inactive)
REMARK    1  A    between atoms: C_1  and  C_2
REMARK    2  A    between atoms: C_4  and  N_5
REMARK    3  A    between atoms: N_8  and  C_9
REMARK                            x       y       z     vdW  Elec       q    Type
REMARK                         _______ _______ _______ _____ _____    ______ ____
ROOT
ATOM      1  N   UNL     1       2.326  14.162  19.560  0.00  0.00    +0.000 N 
ATOM      2  C   UNL     1       2.347  12.864  18.937  0.00  0.00    +0.000 C 
ATOM      3  O   UNL     1       3.210  12.555  18.132  0.00  0.00    +0.000 OA
ATOM      4  N   UNL     1       1.288  12.104  19.307  0.00  0.00    +0.000 N 
ATOM      5  H   UNL     1       1.703  14.360  20.335  0.00  0.00    +0.000 HD
ATOM      6  H   UNL     1       0.516  12.613  19.702  0.00  0.00    +0.000 HD
ENDROOT
BRANCH   1  10
ATOM      7  C   UNL     1       6.324  17.123  18.897  0.00  0.00    +0.000 C 
ATOM      8  C   UNL     1       4.970  16.517  18.874  0.00  0.00    +0.000 A 
ATOM      9  C   UNL     1       4.552  15.286  19.417  0.00  0.00    +0.000 A 
ATOM     10  C   UNL     1       3.191  15.213  19.198  0.00  0.00    +0.000 A 
ATOM     11  N   UNL     1       2.863  16.402  18.538  0.00  0.00    +0.000 N 
ATOM     12  C   UNL     1       1.565  16.872  18.170  0.00  0.00    +0.000 A 
ATOM     13  C   UNL     1       1.475  18.106  17.510  0.00  0.00    +0.000 A 
ATOM     14  C   UNL     1       0.220  18.631  17.218  0.00  0.00    +0.000 A 
ATOM     15  C   UNL     1      -0.909  17.921  17.600  0.00  0.00    +0.000 A 
ATOM     16  C   UNL     1      -0.732  16.700  18.239  0.00  0.00    +0.000 A 
ATOM     17  N   UNL     1       0.474  16.136  18.521  0.00  0.00    +0.000 NA
ATOM     18  N   UNL     1       3.963  17.168  18.296  0.00  0.00    +0.000 NA
ENDBRANCH   1  10
BRANCH   4  19
ATOM     19  C   UNL     1       0.919  10.896  18.557  0.00  0.00    +0.000 C 
ATOM     20  C   UNL     1      -0.588  10.566  18.729  0.00  0.00    +0.000 C 
ATOM     21  C   UNL     1      -1.085  10.512  20.185  0.00  0.00    +0.000 C 
ATOM     22  C   UNL     1      -0.446   9.426  21.052  0.00  0.00    +0.000 C 
ATOM     23  O   UNL     1       0.974   9.585  21.113  0.00  0.00    +0.000 OA
ATOM     24  C   UNL     1       1.538   8.927  20.053  0.00  0.00    +0.000 A 
ATOM     25  C   UNL     1       1.836   7.563  20.167  0.00  0.00    +0.000 A 
ATOM     26  F   UNL     1       1.604   6.919  21.320  0.00  0.00    +0.000 F 
ATOM     27  C   UNL     1       2.238   6.831  19.059  0.00  0.00    +0.000 A 
ATOM     28  C   UNL     1       2.426   7.483  17.842  0.00  0.00    +0.000 A 
ATOM     29  C   UNL     1       2.166   8.856  17.733  0.00  0.00    +0.000 A 
ATOM     30  C   UNL     1       1.664   9.592  18.827  0.00  0.00    +0.000 A 
ENDBRANCH   4  19
TORSDOF 2
ENDMDL
