MODEL 1
REMARK VINA RESULT:      -8.9      0.000      0.000
REMARK  Name = 
REMARK  5 active torsions:
REMARK  status: ('A' for Active; 'I' for Inactive)
REMARK    1  A    between atoms: C_1  and  C_2
REMARK    2  A    between atoms: C_7  and  C_8
REMARK    3  A    between atoms: N_10  and  C_11
REMARK    4  A    between atoms: C_15  and  S_16
REMARK    5  A    between atoms: S_16  and  N_19
REMARK                            x       y       z     vdW  Elec       q    Type
REMARK                         _______ _______ _______ _____ _____    ______ ____
ROOT
ATOM      1  C   UNL     1       7.933   8.260  18.082  0.00  0.00    +0.000 C 
ATOM      2  O   UNL     1       8.495   7.378  18.728  0.00  0.00    +0.000 OA
ATOM      3  N   UNL     1       6.883   8.035  17.202  0.00  0.00    +0.000 N 
ATOM      4  H   UNL     1       6.613   8.779  16.575  0.00  0.00    +0.000 HD
ENDROOT
BRANCH   1  11
ATOM      5  C   UNL     1       9.888  16.251  18.471  0.00  0.00    +0.000 C 
ATOM      6  C   UNL     1       9.677  14.800  18.045  0.00  0.00    +0.000 C 
ATOM      7  S   UNL     1      10.215  13.734  19.406  0.00  0.00    +0.000 S 
ATOM      8  C   UNL     1       9.577  12.180  18.830  0.00  0.00    +0.000 A 
ATOM      9  C   UNL     1      10.132  11.027  19.375  0.00  0.00    +0.000 A 
ATOM     10  C   UNL     1       9.592   9.782  19.076  0.00  0.00    +0.000 A 
ATOM     11  C   UNL     1       8.478   9.649  18.227  0.00  0.00    +0.000 A 
ATOM     12  C   UNL     1       7.935  10.807  17.650  0.00  0.00    +0.000 A 
ATOM     13  C   UNL     1       8.483  12.072  17.956  0.00  0.00    +0.000 A 
ATOM     14  N   UNL     1       7.842  13.217  17.448  0.00  0.00    +0.000 N 
ATOM     15  C   UNL     1       8.238  14.522  17.624  0.00  0.00    +0.000 C 
ATOM     16  O   UNL     1       7.455  15.418  17.303  0.00  0.00    +0.000 OA
ATOM     17  H   UNL     1       6.932  13.124  17.013  0.00  0.00    +0.000 HD
ENDBRANCH   1  11
BRANCH   3  18
ATOM     18  C   UNL     1       6.350   6.748  16.916  0.00  0.00    +0.000 A 
ATOM     19  C   UNL     1       6.926   5.858  15.998  0.00  0.00    +0.000 A 
ATOM     20  C   UNL     1       6.305   4.648  15.668  0.00  0.00    +0.000 A 
ATOM     21  C   UNL     1       5.081   4.320  16.236  0.00  0.00    +0.000 A 
ATOM     22  C   UNL     1       4.510   5.190  17.165  0.00  0.00    +0.000 A 
ATOM     23  C   UNL     1       5.158   6.375  17.545  0.00  0.00    +0.000 A 
BRANCH  22  24
ATOM     24  S   UNL     1       2.899   4.816  17.806  0.00  0.00    +0.000 S 
ATOM     25  O   UNL     1       2.204   6.071  17.992  0.00  0.00    +0.000 OA
ATOM     26  O   UNL     1       2.330   3.759  16.991  0.00  0.00    +0.000 OA
BRANCH  24  27
ATOM     27  N   UNL     1       3.231   4.161  19.348  0.00  0.00    +0.000 NA
ATOM     28  C   UNL     1       3.245   2.670  19.485  0.00  0.00    +0.000 C 
ATOM     29  C   UNL     1       1.833   2.092  19.634  0.00  0.00    +0.000 C 
ATOM     30  O   UNL     1       1.123   2.703  20.719  0.00  0.00    +0.000 OA
ATOM     31  C   UNL     1       1.037   4.126  20.551  0.00  0.00    +0.000 C 
ATOM     32  C   UNL     1       2.431   4.757  20.466  0.00  0.00    +0.000 C 
ENDBRANCH  24  27
ENDBRANCH  22  24
ENDBRANCH   3  18
TORSDOF 4
ENDMDL
MODEL 2
REMARK VINA RESULT:      -8.6      5.621      7.795
REMARK  Name = 
REMARK  5 active torsions:
REMARK  status: ('A' for Active; 'I' for Inactive)
REMARK    1  A    between atoms: C_1  and  C_2
REMARK    2  A    between atoms: C_7  and  C_8
REMARK    3  A    between atoms: N_10  and  C_11
REMARK    4  A    between atoms: C_15  and  S_16
REMARK    5  A    between atoms: S_16  and  N_19
REMARK                            x       y       z     vdW  Elec       q    Type
REMARK                         _______ _______ _______ _____ _____    ______ ____
ROOT
ATOM      1  C   UNL     1       1.304   8.397  20.417  0.00  0.00    +0.000 C 
ATOM      2  O   UNL     1       1.634   8.536  19.241  0.00  0.00    +0.000 OA
ATOM      3  N   UNL     1       1.382   7.199  21.115  0.00  0.00    +0.000 N 
ATOM      4  H   UNL     1       0.913   7.130  22.006  0.00  0.00    +0.000 HD
ENDROOT
BRANCH   1  11
ATOM      5  C   UNL     1      -1.661  15.576  23.155  0.00  0.00    +0.000 C 
ATOM      6  C   UNL     1      -0.781  14.381  22.796  0.00  0.00    +0.000 C 
ATOM      7  S   UNL     1      -1.675  12.873  23.250  0.00  0.00    +0.000 S 
ATOM      8  C   UNL     1      -0.641  11.670  22.452  0.00  0.00    +0.000 A 
ATOM      9  C   UNL     1      -0.736  10.356  22.900  0.00  0.00    +0.000 A 
ATOM     10  C   UNL     1      -0.062   9.339  22.235  0.00  0.00    +0.000 A 
ATOM     11  C   UNL     1       0.726   9.601  21.098  0.00  0.00    +0.000 A 
ATOM     12  C   UNL     1       0.850  10.929  20.662  0.00  0.00    +0.000 A 
ATOM     13  C   UNL     1       0.163  11.961  21.337  0.00  0.00    +0.000 A 
ATOM     14  N   UNL     1       0.222  13.262  20.803  0.00  0.00    +0.000 N 
ATOM     15  C   UNL     1      -0.364  14.390  21.329  0.00  0.00    +0.000 C 
ATOM     16  O   UNL     1      -0.404  15.405  20.632  0.00  0.00    +0.000 OA
ATOM     17  H   UNL     1       0.617  13.401  19.881  0.00  0.00    +0.000 HD
ENDBRANCH   1  11
BRANCH   3  18
ATOM     18  C   UNL     1       1.825   5.976  20.541  0.00  0.00    +0.000 A 
ATOM     19  C   UNL     1       1.107   4.774  20.631  0.00  0.00    +0.000 A 
ATOM     20  C   UNL     1       1.635   3.572  20.148  0.00  0.00    +0.000 A 
ATOM     21  C   UNL     1       2.905   3.549  19.585  0.00  0.00    +0.000 A 
ATOM     22  C   UNL     1       3.618   4.743  19.473  0.00  0.00    +0.000 A 
ATOM     23  C   UNL     1       3.068   5.961  19.901  0.00  0.00    +0.000 A 
BRANCH  22  24
ATOM     24  S   UNL     1       5.278   4.691  18.850  0.00  0.00    +0.000 S 
ATOM     25  O   UNL     1       6.085   5.543  19.696  0.00  0.00    +0.000 OA
ATOM     26  O   UNL     1       5.630   3.299  18.638  0.00  0.00    +0.000 OA
BRANCH  24  27
ATOM     27  N   UNL     1       5.148   5.433  17.319  0.00  0.00    +0.000 NA
ATOM     28  C   UNL     1       5.533   4.628  16.117  0.00  0.00    +0.000 C 
ATOM     29  C   UNL     1       7.050   4.616  15.892  0.00  0.00    +0.000 C 
ATOM     30  O   UNL     1       7.582   5.945  15.814  0.00  0.00    +0.000 OA
ATOM     31  C   UNL     1       7.285   6.697  17.000  0.00  0.00    +0.000 C 
ATOM     32  C   UNL     1       5.772   6.792  17.227  0.00  0.00    +0.000 C 
ENDBRANCH  24  27
ENDBRANCH  22  24
ENDBRANCH   3  18
TORSDOF 4
ENDMDL
MODEL 3
REMARK VINA RESULT:      -8.6      1.161      1.449
REMARK  Name = 
REMARK  5 active torsions:
REMARK  status: ('A' for Active; 'I' for Inactive)
REMARK    1  A    between atoms: C_1  and  C_2
REMARK    2  A    between atoms: C_7  and  C_8
REMARK    3  A    between atoms: N_10  and  C_11
REMARK    4  A    between atoms: C_15  and  S_16
REMARK    5  A    between atoms: S_16  and  N_19
REMARK                            x       y       z     vdW  Elec       q    Type
REMARK                         _______ _______ _______ _____ _____    ______ ____
ROOT
ATOM      1  C   UNL     1       7.790   7.928  17.915  0.00  0.00    +0.000 C 
ATOM      2  O   UNL     1       8.331   7.027  18.552  0.00  0.00    +0.000 OA
ATOM      3  N   UNL     1       6.799   7.725  16.963  0.00  0.00    +0.000 N 
ATOM      4  H   UNL     1       6.551   8.493  16.356  0.00  0.00    +0.000 HD
ENDROOT
BRANCH   1  11
ATOM      5  C   UNL     1       9.582  15.926  18.719  0.00  0.00    +0.000 C 
ATOM      6  C   UNL     1       9.445  14.483  18.238  0.00  0.00    +0.000 C 
ATOM      7  S   UNL     1       9.822  13.391  19.632  0.00  0.00    +0.000 S 
ATOM      8  C   UNL     1       9.280  11.845  18.947  0.00  0.00    +0.000 A 
ATOM      9  C   UNL     1       9.777  10.684  19.532  0.00  0.00    +0.000 A 
ATOM     10  C   UNL     1       9.293   9.441  19.141  0.00  0.00    +0.000 A 
ATOM     11  C   UNL     1       8.295   9.318  18.157  0.00  0.00    +0.000 A 
ATOM     12  C   UNL     1       7.814  10.484  17.542  0.00  0.00    +0.000 A 
ATOM     13  C   UNL     1       8.304  11.747  17.942  0.00  0.00    +0.000 A 
ATOM     14  N   UNL     1       7.717  12.897  17.383  0.00  0.00    +0.000 N 
ATOM     15  C   UNL     1       8.072  14.202  17.635  0.00  0.00    +0.000 C 
ATOM     16  O   UNL     1       7.324  15.097  17.239  0.00  0.00    +0.000 OA
ATOM     17  H   UNL     1       6.870  12.805  16.836  0.00  0.00    +0.000 HD
ENDBRANCH   1  11
BRANCH   3  18
ATOM     18  C   UNL     1       6.312   6.444  16.586  0.00  0.00    +0.000 A 
ATOM     19  C   UNL     1       6.319   5.971  15.266  0.00  0.00    +0.000 A 
ATOM     20  C   UNL     1       5.727   4.749  14.927  0.00  0.00    +0.000 A 
ATOM     21  C   UNL     1       5.098   3.989  15.904  0.00  0.00    +0.000 A 
ATOM     22  C   UNL     1       5.103   4.442  17.223  0.00  0.00    +0.000 A 
ATOM     23  C   UNL     1       5.748   5.637  17.579  0.00  0.00    +0.000 A 
BRANCH  22  24
ATOM     24  S   UNL     1       4.208   3.520  18.446  0.00  0.00    +0.000 S 
ATOM     25  O   UNL     1       3.669   2.347  17.794  0.00  0.00    +0.000 OA
ATOM     26  O   UNL     1       5.052   3.402  19.620  0.00  0.00    +0.000 OA
BRANCH  24  27
ATOM     27  N   UNL     1       2.907   4.552  18.843  0.00  0.00    +0.000 NA
ATOM     28  C   UNL     1       2.794   5.019  20.261  0.00  0.00    +0.000 C 
ATOM     29  C   UNL     1       2.131   3.970  21.162  0.00  0.00    +0.000 C 
ATOM     30  O   UNL     1       0.855   3.563  20.650  0.00  0.00    +0.000 OA
ATOM     31  C   UNL     1       0.970   3.040  19.318  0.00  0.00    +0.000 C 
ATOM     32  C   UNL     1       1.567   4.081  18.366  0.00  0.00    +0.000 C 
ENDBRANCH  24  27
ENDBRANCH  22  24
ENDBRANCH   3  18
TORSDOF 4
ENDMDL
MODEL 4
REMARK VINA RESULT:      -8.6      4.608      6.396
REMARK  Name = 
REMARK  5 active torsions:
REMARK  status: ('A' for Active; 'I' for Inactive)
REMARK    1  A    between atoms: C_1  and  C_2
REMARK    2  A    between atoms: C_7  and  C_8
REMARK    3  A    between atoms: N_10  and  C_11
REMARK    4  A    between atoms: C_15  and  S_16
REMARK    5  A    between atoms: S_16  and  N_19
REMARK                            x       y       z     vdW  Elec       q    Type
REMARK                         _______ _______ _______ _____ _____    ______ ____
ROOT
ATOM      1  C   UNL     1       1.530   8.943  18.698  0.00  0.00    +0.000 C 
ATOM      2  O   UNL     1       1.145   8.451  17.639  0.00  0.00    +0.000 OA
ATOM      3  N   UNL     1       1.983   8.206  19.784  0.00  0.00    +0.000 N 
ATOM      4  H   UNL     1       2.095   8.675  20.670  0.00  0.00    +0.000 HD
ENDROOT
BRANCH   1  11
ATOM      5  C   UNL     1       1.842  17.171  18.524  0.00  0.00    +0.000 C 
ATOM      6  C   UNL     1       2.054  15.690  18.830  0.00  0.00    +0.000 C 
ATOM      7  S   UNL     1       0.426  14.912  18.981  0.00  0.00    +0.000 S 
ATOM      8  C   UNL     1       0.918  13.206  18.991  0.00  0.00    +0.000 A 
ATOM      9  C   UNL     1       0.010  12.288  19.511  0.00  0.00    +0.000 A 
ATOM     10  C   UNL     1       0.267  10.925  19.426  0.00  0.00    +0.000 A 
ATOM     11  C   UNL     1       1.436  10.435  18.817  0.00  0.00    +0.000 A 
ATOM     12  C   UNL     1       2.370  11.357  18.320  0.00  0.00    +0.000 A 
ATOM     13  C   UNL     1       2.106  12.742  18.404  0.00  0.00    +0.000 A 
ATOM     14  N   UNL     1       3.012  13.631  17.794  0.00  0.00    +0.000 N 
ATOM     15  C   UNL     1       2.932  15.004  17.788  0.00  0.00    +0.000 C 
ATOM     16  O   UNL     1       3.676  15.628  17.030  0.00  0.00    +0.000 OA
ATOM     17  H   UNL     1       3.734  13.263  17.188  0.00  0.00    +0.000 HD
ENDBRANCH   1  11
BRANCH   3  18
ATOM     18  C   UNL     1       2.025   6.785  19.814  0.00  0.00    +0.000 A 
ATOM     19  C   UNL     1       1.163   6.002  20.596  0.00  0.00    +0.000 A 
ATOM     20  C   UNL     1       1.315   4.613  20.680  0.00  0.00    +0.000 A 
ATOM     21  C   UNL     1       2.350   3.987  19.997  0.00  0.00    +0.000 A 
ATOM     22  C   UNL     1       3.200   4.756  19.202  0.00  0.00    +0.000 A 
ATOM     23  C   UNL     1       3.015   6.140  19.066  0.00  0.00    +0.000 A 
BRANCH  22  24
ATOM     24  S   UNL     1       4.582   3.965  18.419  0.00  0.00    +0.000 S 
ATOM     25  O   UNL     1       5.428   3.435  19.465  0.00  0.00    +0.000 OA
ATOM     26  O   UNL     1       4.067   3.108  17.367  0.00  0.00    +0.000 OA
BRANCH  24  27
ATOM     27  N   UNL     1       5.407   5.261  17.675  0.00  0.00    +0.000 NA
ATOM     28  C   UNL     1       5.451   5.294  16.178  0.00  0.00    +0.000 C 
ATOM     29  C   UNL     1       6.545   4.380  15.613  0.00  0.00    +0.000 C 
ATOM     30  O   UNL     1       7.829   4.684  16.173  0.00  0.00    +0.000 OA
ATOM     31  C   UNL     1       7.813   4.575  17.605  0.00  0.00    +0.000 C 
ATOM     32  C   UNL     1       6.778   5.524  18.219  0.00  0.00    +0.000 C 
ENDBRANCH  24  27
ENDBRANCH  22  24
ENDBRANCH   3  18
TORSDOF 4
ENDMDL
MODEL 5
REMARK VINA RESULT:      -8.5      1.242      1.621
REMARK  Name = 
REMARK  5 active torsions:
REMARK  status: ('A' for Active; 'I' for Inactive)
REMARK    1  A    between atoms: C_1  and  C_2
REMARK    2  A    between atoms: C_7  and  C_8
REMARK    3  A    between atoms: N_10  and  C_11
REMARK    4  A    between atoms: C_15  and  S_16
REMARK    5  A    between atoms: S_16  and  N_19
REMARK                            x       y       z     vdW  Elec       q    Type
REMARK                         _______ _______ _______ _____ _____    ______ ____
ROOT
ATOM      1  C   UNL     1       8.234   8.425  18.252  0.00  0.00    +0.000 C 
ATOM      2  O   UNL     1       8.728   7.632  19.052  0.00  0.00    +0.000 OA
ATOM      3  N   UNL     1       7.333   8.070  17.256  0.00  0.00    +0.000 N 
ATOM      4  H   UNL     1       7.130   8.742  16.531  0.00  0.00    +0.000 HD
ENDROOT
BRANCH   1  11
ATOM      5  C   UNL     1       9.710  16.526  18.375  0.00  0.00    +0.000 C 
ATOM      6  C   UNL     1       9.574  15.054  17.992  0.00  0.00    +0.000 C 
ATOM      7  S   UNL     1      10.224  14.059  19.358  0.00  0.00    +0.000 S 
ATOM      8  C   UNL     1       9.661  12.455  18.843  0.00  0.00    +0.000 A 
ATOM      9  C   UNL     1      10.305  11.351  19.395  0.00  0.00    +0.000 A 
ATOM     10  C   UNL     1       9.831  10.069  19.147  0.00  0.00    +0.000 A 
ATOM     11  C   UNL     1       8.698   9.847  18.344  0.00  0.00    +0.000 A 
ATOM     12  C   UNL     1       8.065  10.955  17.759  0.00  0.00    +0.000 A 
ATOM     13  C   UNL     1       8.545  12.258  18.014  0.00  0.00    +0.000 A 
ATOM     14  N   UNL     1       7.817  13.349  17.503  0.00  0.00    +0.000 N 
ATOM     15  C   UNL     1       8.139  14.680  17.632  0.00  0.00    +0.000 C 
ATOM     16  O   UNL     1       7.292  15.518  17.319  0.00  0.00    +0.000 OA
ATOM     17  H   UNL     1       6.900  13.189  17.105  0.00  0.00    +0.000 HD
ENDBRANCH   1  11
BRANCH   3  18
ATOM     18  C   UNL     1       6.898   6.738  17.019  0.00  0.00    +0.000 A 
ATOM     19  C   UNL     1       7.152   6.041  15.829  0.00  0.00    +0.000 A 
ATOM     20  C   UNL     1       6.609   4.772  15.597  0.00  0.00    +0.000 A 
ATOM     21  C   UNL     1       5.781   4.189  16.547  0.00  0.00    +0.000 A 
ATOM     22  C   UNL     1       5.538   4.866  17.742  0.00  0.00    +0.000 A 
ATOM     23  C   UNL     1       6.130   6.111  18.005  0.00  0.00    +0.000 A 
BRANCH  22  24
ATOM     24  S   UNL     1       4.397   4.164  18.905  0.00  0.00    +0.000 S 
ATOM     25  O   UNL     1       5.032   3.001  19.486  0.00  0.00    +0.000 OA
ATOM     26  O   UNL     1       3.895   5.238  19.741  0.00  0.00    +0.000 OA
BRANCH  24  27
ATOM     27  N   UNL     1       3.110   3.629  17.919  0.00  0.00    +0.000 NA
ATOM     28  C   UNL     1       1.801   4.348  18.028  0.00  0.00    +0.000 C 
ATOM     29  C   UNL     1       0.976   3.865  19.227  0.00  0.00    +0.000 C 
ATOM     30  O   UNL     1       0.783   2.445  19.199  0.00  0.00    +0.000 OA
ATOM     31  C   UNL     1       2.038   1.748  19.176  0.00  0.00    +0.000 C 
ATOM     32  C   UNL     1       2.870   2.150  17.953  0.00  0.00    +0.000 C 
ENDBRANCH  24  27
ENDBRANCH  22  24
ENDBRANCH   3  18
TORSDOF 4
ENDMDL
MODEL 6
REMARK VINA RESULT:      -8.4      1.715      2.055
REMARK  Name = 
REMARK  5 active torsions:
REMARK  status: ('A' for Active; 'I' for Inactive)
REMARK    1  A    between atoms: C_1  and  C_2
REMARK    2  A    between atoms: C_7  and  C_8
REMARK    3  A    between atoms: N_10  and  C_11
REMARK    4  A    between atoms: C_15  and  S_16
REMARK    5  A    between atoms: S_16  and  N_19
REMARK                            x       y       z     vdW  Elec       q    Type
REMARK                         _______ _______ _______ _____ _____    ______ ____
ROOT
ATOM      1  C   UNL     1       7.753   8.645  17.689  0.00  0.00    +0.000 C 
ATOM      2  O   UNL     1       6.748   8.934  17.044  0.00  0.00    +0.000 OA
ATOM      3  N   UNL     1       8.149   7.345  17.978  0.00  0.00    +0.000 N 
ATOM      4  H   UNL     1       8.871   7.205  18.670  0.00  0.00    +0.000 HD
ENDROOT
BRANCH   1  11
ATOM      5  C   UNL     1      11.680  15.561  19.828  0.00  0.00    +0.000 C 
ATOM      6  C   UNL     1      11.273  14.218  19.225  0.00  0.00    +0.000 C 
ATOM      7  S   UNL     1      10.589  13.193  20.552  0.00  0.00    +0.000 S 
ATOM      8  C   UNL     1       9.901  11.877  19.578  0.00  0.00    +0.000 A 
ATOM      9  C   UNL     1       9.649  10.674  20.230  0.00  0.00    +0.000 A 
ATOM     10  C   UNL     1       8.986   9.646  19.569  0.00  0.00    +0.000 A 
ATOM     11  C   UNL     1       8.551   9.789  18.238  0.00  0.00    +0.000 A 
ATOM     12  C   UNL     1       8.832  10.989  17.568  0.00  0.00    +0.000 A 
ATOM     13  C   UNL     1       9.503  12.034  18.241  0.00  0.00    +0.000 A 
ATOM     14  N   UNL     1       9.667  13.261  17.572  0.00  0.00    +0.000 N 
ATOM     15  C   UNL     1      10.306  14.378  18.057  0.00  0.00    +0.000 C 
ATOM     16  O   UNL     1      10.175  15.438  17.442  0.00  0.00    +0.000 OA
ATOM     17  H   UNL     1       9.175  13.420  16.701  0.00  0.00    +0.000 HD
ENDBRANCH   1  11
BRANCH   3  18
ATOM     18  C   UNL     1       7.418   6.189  17.589  0.00  0.00    +0.000 A 
ATOM     19  C   UNL     1       7.509   5.609  16.316  0.00  0.00    +0.000 A 
ATOM     20  C   UNL     1       6.688   4.539  15.943  0.00  0.00    +0.000 A 
ATOM     21  C   UNL     1       5.744   4.046  16.835  0.00  0.00    +0.000 A 
ATOM     22  C   UNL     1       5.661   4.604  18.110  0.00  0.00    +0.000 A 
ATOM     23  C   UNL     1       6.523   5.636  18.510  0.00  0.00    +0.000 A 
BRANCH  22  24
ATOM     24  S   UNL     1       4.384   4.041  19.206  0.00  0.00    +0.000 S 
ATOM     25  O   UNL     1       4.855   2.825  19.830  0.00  0.00    +0.000 OA
ATOM     26  O   UNL     1       3.952   5.173  20.005  0.00  0.00    +0.000 OA
BRANCH  24  27
ATOM     27  N   UNL     1       3.108   3.635  18.148  0.00  0.00    +0.000 NA
ATOM     28  C   UNL     1       1.837   4.420  18.252  0.00  0.00    +0.000 C 
ATOM     29  C   UNL     1       0.942   3.921  19.393  0.00  0.00    +0.000 C 
ATOM     30  O   UNL     1       0.672   2.518  19.278  0.00  0.00    +0.000 OA
ATOM     31  C   UNL     1       1.887   1.753  19.259  0.00  0.00    +0.000 C 
ATOM     32  C   UNL     1       2.785   2.173  18.090  0.00  0.00    +0.000 C 
ENDBRANCH  24  27
ENDBRANCH  22  24
ENDBRANCH   3  18
TORSDOF 4
ENDMDL
MODEL 7
REMARK VINA RESULT:      -8.4      1.563      1.711
REMARK  Name = 
REMARK  5 active torsions:
REMARK  status: ('A' for Active; 'I' for Inactive)
REMARK    1  A    between atoms: C_1  and  C_2
REMARK    2  A    between atoms: C_7  and  C_8
REMARK    3  A    between atoms: N_10  and  C_11
REMARK    4  A    between atoms: C_15  and  S_16
REMARK    5  A    between atoms: S_16  and  N_19
REMARK                            x       y       z     vdW  Elec       q    Type
REMARK                         _______ _______ _______ _____ _____    ______ ____
ROOT
ATOM      1  C   UNL     1       7.763   8.566  17.740  0.00  0.00    +0.000 C 
ATOM      2  O   UNL     1       6.867   8.886  16.962  0.00  0.00    +0.000 OA
ATOM      3  N   UNL     1       7.982   7.271  18.191  0.00  0.00    +0.000 N 
ATOM      4  H   UNL     1       8.610   7.132  18.969  0.00  0.00    +0.000 HD
ENDROOT
BRANCH   1  11
ATOM      5  C   UNL     1      12.138  15.267  19.688  0.00  0.00    +0.000 C 
ATOM      6  C   UNL     1      11.653  13.924  19.147  0.00  0.00    +0.000 C 
ATOM      7  S   UNL     1      10.802  13.054  20.488  0.00  0.00    +0.000 S 
ATOM      8  C   UNL     1      10.063  11.734  19.557  0.00  0.00    +0.000 A 
ATOM      9  C   UNL     1       9.667  10.605  20.267  0.00  0.00    +0.000 A 
ATOM     10  C   UNL     1       8.960   9.592  19.630  0.00  0.00    +0.000 A 
ATOM     11  C   UNL     1       8.622   9.676  18.267  0.00  0.00    +0.000 A 
ATOM     12  C   UNL     1       9.047  10.799  17.540  0.00  0.00    +0.000 A 
ATOM     13  C   UNL     1       9.764  11.829  18.189  0.00  0.00    +0.000 A 
ATOM     14  N   UNL     1      10.074  12.989  17.454  0.00  0.00    +0.000 N 
ATOM     15  C   UNL     1      10.777  14.081  17.908  0.00  0.00    +0.000 C 
ATOM     16  O   UNL     1      10.777  15.102  17.219  0.00  0.00    +0.000 OA
ATOM     17  H   UNL     1       9.653  13.126  16.544  0.00  0.00    +0.000 HD
ENDBRANCH   1  11
BRANCH   3  18
ATOM     18  C   UNL     1       7.172   6.159  17.831  0.00  0.00    +0.000 A 
ATOM     19  C   UNL     1       7.500   5.263  16.804  0.00  0.00    +0.000 A 
ATOM     20  C   UNL     1       6.618   4.249  16.412  0.00  0.00    +0.000 A 
ATOM     21  C   UNL     1       5.380   4.131  17.030  0.00  0.00    +0.000 A 
ATOM     22  C   UNL     1       5.053   5.006  18.066  0.00  0.00    +0.000 A 
ATOM     23  C   UNL     1       5.959   5.985  18.504  0.00  0.00    +0.000 A 
BRANCH  22  24
ATOM     24  S   UNL     1       3.432   4.916  18.779  0.00  0.00    +0.000 S 
ATOM     25  O   UNL     1       3.490   5.563  20.071  0.00  0.00    +0.000 OA
ATOM     26  O   UNL     1       2.478   5.343  17.772  0.00  0.00    +0.000 OA
BRANCH  24  27
ATOM     27  N   UNL     1       3.204   3.244  19.032  0.00  0.00    +0.000 NA
ATOM     28  C   UNL     1       1.898   2.644  18.611  0.00  0.00    +0.000 C 
ATOM     29  C   UNL     1       0.797   2.869  19.654  0.00  0.00    +0.000 C 
ATOM     30  O   UNL     1       1.189   2.392  20.948  0.00  0.00    +0.000 OA
ATOM     31  C   UNL     1       2.400   3.024  21.392  0.00  0.00    +0.000 C 
ATOM     32  C   UNL     1       3.548   2.767  20.411  0.00  0.00    +0.000 C 
ENDBRANCH  24  27
ENDBRANCH  22  24
ENDBRANCH   3  18
TORSDOF 4
ENDMDL
MODEL 8
REMARK VINA RESULT:      -8.2      1.935      2.378
REMARK  Name = 
REMARK  5 active torsions:
REMARK  status: ('A' for Active; 'I' for Inactive)
REMARK    1  A    between atoms: C_1  and  C_2
REMARK    2  A    between atoms: C_7  and  C_8
REMARK    3  A    between atoms: N_10  and  C_11
REMARK    4  A    between atoms: C_15  and  S_16
REMARK    5  A    between atoms: S_16  and  N_19
REMARK                            x       y       z     vdW  Elec       q    Type
REMARK                         _______ _______ _______ _____ _____    ______ ____
ROOT
ATOM      1  C   UNL     1       7.808   7.868  17.946  0.00  0.00    +0.000 C 
ATOM      2  O   UNL     1       8.429   7.033  18.601  0.00  0.00    +0.000 OA
ATOM      3  N   UNL     1       6.819   7.557  17.021  0.00  0.00    +0.000 N 
ATOM      4  H   UNL     1       6.502   8.283  16.395  0.00  0.00    +0.000 HD
ENDROOT
BRANCH   1  11
ATOM      5  C   UNL     1      10.995  15.316  19.425  0.00  0.00    +0.000 C 
ATOM      6  C   UNL     1      10.262  13.979  19.508  0.00  0.00    +0.000 C 
ATOM      7  S   UNL     1       9.348  13.745  17.962  0.00  0.00    +0.000 S 
ATOM      8  C   UNL     1       8.882  12.043  18.153  0.00  0.00    +0.000 A 
ATOM      9  C   UNL     1       7.815  11.588  17.383  0.00  0.00    +0.000 A 
ATOM     10  C   UNL     1       7.482  10.239  17.376  0.00  0.00    +0.000 A 
ATOM     11  C   UNL     1       8.206   9.300  18.135  0.00  0.00    +0.000 A 
ATOM     12  C   UNL     1       9.262   9.759  18.937  0.00  0.00    +0.000 A 
ATOM     13  C   UNL     1       9.601  11.130  18.941  0.00  0.00    +0.000 A 
ATOM     14  N   UNL     1      10.736  11.533  19.670  0.00  0.00    +0.000 N 
ATOM     15  C   UNL     1      11.206  12.818  19.805  0.00  0.00    +0.000 C 
ATOM     16  O   UNL     1      12.328  12.981  20.290  0.00  0.00    +0.000 OA
ATOM     17  H   UNL     1      11.362  10.830  20.040  0.00  0.00    +0.000 HD
ENDBRANCH   1  11
BRANCH   3  18
ATOM     18  C   UNL     1       6.428   6.230  16.694  0.00  0.00    +0.000 A 
ATOM     19  C   UNL     1       6.616   5.657  15.427  0.00  0.00    +0.000 A 
ATOM     20  C   UNL     1       6.115   4.388  15.120  0.00  0.00    +0.000 A 
ATOM     21  C   UNL     1       5.395   3.678  16.073  0.00  0.00    +0.000 A 
ATOM     22  C   UNL     1       5.220   4.231  17.341  0.00  0.00    +0.000 A 
ATOM     23  C   UNL     1       5.774   5.477  17.673  0.00  0.00    +0.000 A 
BRANCH  22  24
ATOM     24  S   UNL     1       4.212   3.367  18.517  0.00  0.00    +0.000 S 
ATOM     25  O   UNL     1       3.668   2.205  17.850  0.00  0.00    +0.000 OA
ATOM     26  O   UNL     1       4.974   3.236  19.745  0.00  0.00    +0.000 OA
BRANCH  24  27
ATOM     27  N   UNL     1       2.932   4.456  18.814  0.00  0.00    +0.000 NA
ATOM     28  C   UNL     1       2.697   4.889  20.228  0.00  0.00    +0.000 C 
ATOM     29  C   UNL     1       1.892   3.854  21.023  0.00  0.00    +0.000 C 
ATOM     30  O   UNL     1       0.657   3.531  20.371  0.00  0.00    +0.000 OA
ATOM     31  C   UNL     1       0.881   3.038  19.041  0.00  0.00    +0.000 C 
ATOM     32  C   UNL     1       1.626   4.071  18.188  0.00  0.00    +0.000 C 
ENDBRANCH  24  27
ENDBRANCH  22  24
ENDBRANCH   3  18
TORSDOF 4
ENDMDL
MODEL 9
REMARK VINA RESULT:      -8.2      1.600      1.885
REMARK  Name = 
REMARK  5 active torsions:
REMARK  status: ('A' for Active; 'I' for Inactive)
REMARK    1  A    between atoms: C_1  and  C_2
REMARK    2  A    between atoms: C_7  and  C_8
REMARK    3  A    between atoms: N_10  and  C_11
REMARK    4  A    between atoms: C_15  and  S_16
REMARK    5  A    between atoms: S_16  and  N_19
REMARK                            x       y       z     vdW  Elec       q    Type
REMARK                         _______ _______ _______ _____ _____    ______ ____
ROOT
ATOM      1  C   UNL     1       7.405   8.275  17.379  0.00  0.00    +0.000 C 
ATOM      2  O   UNL     1       6.276   8.563  16.985  0.00  0.00    +0.000 OA
ATOM      3  N   UNL     1       7.929   6.989  17.377  0.00  0.00    +0.000 N 
ATOM      4  H   UNL     1       8.780   6.816  17.891  0.00  0.00    +0.000 HD
ENDROOT
BRANCH   1  11
ATOM      5  C   UNL     1      11.263  15.130  19.819  0.00  0.00    +0.000 C 
ATOM      6  C   UNL     1      10.831  13.852  19.104  0.00  0.00    +0.000 C 
ATOM      7  S   UNL     1      10.443  12.610  20.363  0.00  0.00    +0.000 S 
ATOM      8  C   UNL     1       9.669  11.385  19.336  0.00  0.00    +0.000 A 
ATOM      9  C   UNL     1       9.598  10.090  19.841  0.00  0.00    +0.000 A 
ATOM     10  C   UNL     1       8.887   9.111  19.156  0.00  0.00    +0.000 A 
ATOM     11  C   UNL     1       8.222   9.395  17.949  0.00  0.00    +0.000 A 
ATOM     12  C   UNL     1       8.318  10.691  17.421  0.00  0.00    +0.000 A 
ATOM     13  C   UNL     1       9.038  11.686  18.119  0.00  0.00    +0.000 A 
ATOM     14  N   UNL     1       9.017  13.001  17.615  0.00  0.00    +0.000 N 
ATOM     15  C   UNL     1       9.669  14.090  18.144  0.00  0.00    +0.000 C 
ATOM     16  O   UNL     1       9.377  15.208  17.718  0.00  0.00    +0.000 OA
ATOM     17  H   UNL     1       8.374  13.235  16.869  0.00  0.00    +0.000 HD
ENDBRANCH   1  11
BRANCH   3  18
ATOM     18  C   UNL     1       7.209   5.841  16.948  0.00  0.00    +0.000 A 
ATOM     19  C   UNL     1       7.222   5.368  15.627  0.00  0.00    +0.000 A 
ATOM     20  C   UNL     1       6.410   4.300  15.228  0.00  0.00    +0.000 A 
ATOM     21  C   UNL     1       5.554   3.701  16.142  0.00  0.00    +0.000 A 
ATOM     22  C   UNL     1       5.549   4.152  17.462  0.00  0.00    +0.000 A 
ATOM     23  C   UNL     1       6.405   5.181  17.882  0.00  0.00    +0.000 A 
BRANCH  22  24
ATOM     24  S   UNL     1       4.379   3.454  18.598  0.00  0.00    +0.000 S 
ATOM     25  O   UNL     1       3.778   2.308  17.951  0.00  0.00    +0.000 OA
ATOM     26  O   UNL     1       5.030   3.328  19.888  0.00  0.00    +0.000 OA
BRANCH  24  27
ATOM     27  N   UNL     1       3.188   4.670  18.734  0.00  0.00    +0.000 NA
ATOM     28  C   UNL     1       3.012   5.329  20.067  0.00  0.00    +0.000 C 
ATOM     29  C   UNL     1       2.146   4.489  21.015  0.00  0.00    +0.000 C 
ATOM     30  O   UNL     1       0.879   4.167  20.428  0.00  0.00    +0.000 OA
ATOM     31  C   UNL     1       1.042   3.463  19.187  0.00  0.00    +0.000 C 
ATOM     32  C   UNL     1       1.846   4.296  18.182  0.00  0.00    +0.000 C 
ENDBRANCH  24  27
ENDBRANCH  22  24
ENDBRANCH   3  18
TORSDOF 4
ENDMDL
