MODEL 1
REMARK VINA RESULT:      -8.2      0.000      0.000
REMARK  Name = 
REMARK  7 active torsions:
REMARK  status: ('A' for Active; 'I' for Inactive)
REMARK    1  A    between atoms: C_1  and  N_2
REMARK    2  A    between atoms: C_6  and  C_7
REMARK    3  A    between atoms: C_7  and  C_8
REMARK    4  A    between atoms: C_8  and  C_9
REMARK    5  A    between atoms: C_13  and  N_14
REMARK    6  A    between atoms: C_19  and  C_20
REMARK    7  A    between atoms: C_23  and  C_24
REMARK                            x       y       z     vdW  Elec       q    Type
REMARK                         _______ _______ _______ _____ _____    ______ ____
ROOT
ATOM      1  C   UNL     1       2.350   5.828  19.038  0.00  0.00    +0.000 A 
ATOM      2  C   UNL     1       2.302   6.590  17.851  0.00  0.00    +0.000 A 
ATOM      3  C   UNL     1       2.219   7.980  17.870  0.00  0.00    +0.000 A 
ATOM      4  C   UNL     1       2.066   8.640  19.080  0.00  0.00    +0.000 A 
ATOM      5  C   UNL     1       1.837   7.887  20.242  0.00  0.00    +0.000 A 
ATOM      6  C   UNL     1       2.104   6.520  20.236  0.00  0.00    +0.000 A 
ENDROOT
BRANCH   5   7
ATOM      7  N   UNL     1       0.806   8.309  21.154  0.00  0.00    +0.000 N 
ATOM      8  C   UNL     1      -0.439   8.574  20.384  0.00  0.00    +0.000 C 
ATOM      9  C   UNL     1      -0.414  10.065  20.234  0.00  0.00    +0.000 A 
ATOM     10  C   UNL     1       0.369  10.585  21.269  0.00  0.00    +0.000 A 
ATOM     11  C   UNL     1       0.749  11.912  21.342  0.00  0.00    +0.000 A 
ATOM     12  C   UNL     1       0.342  12.746  20.300  0.00  0.00    +0.000 A 
ATOM     13  C   UNL     1      -0.410  12.220  19.216  0.00  0.00    +0.000 A 
ATOM     14  C   UNL     1      -0.812  10.869  19.173  0.00  0.00    +0.000 A 
ATOM     15  C   UNL     1       1.076   9.468  21.910  0.00  0.00    +0.000 C 
ATOM     16  O   UNL     1       1.869   9.600  22.829  0.00  0.00    +0.000 OA
BRANCH  14  17
ATOM     17  C   UNL     1      -1.466  10.308  17.935  0.00  0.00    +0.000 C 
ATOM     18  F   UNL     1      -0.638   9.474  17.243  0.00  0.00    +0.000 F 
ATOM     19  F   UNL     1      -2.567   9.565  18.232  0.00  0.00    +0.000 F 
ENDBRANCH  14  17
BRANCH  12  20
ATOM     20  C   UNL     1       0.786  14.110  20.259  0.00  0.00    +0.000 C 
ATOM     21  N   UNL     1       1.152  15.214  20.209  0.00  0.00    +0.000 NA
ENDBRANCH  12  20
ENDBRANCH   5   7
BRANCH   1  22
ATOM     22  C   UNL     1       2.661   4.263  19.046  0.00  0.00    +0.000 C 
ATOM     23  C   UNL     1       2.592   3.582  20.445  0.00  0.00    +0.000 C 
ATOM     24  O   UNL     1       1.573   2.661  20.010  0.00  0.00    +0.000 OA
ATOM     25  C   UNL     1       1.455   3.337  18.742  0.00  0.00    +0.000 C 
BRANCH  22  26
ATOM     26  C   UNL     1       3.962   3.884  18.310  0.00  0.00    +0.000 C 
BRANCH  26  32
ATOM     27  C   UNL     1       5.577   5.888  16.427  0.00  0.00    +0.000 C 
ATOM     28  N   UNL     1       5.882   5.510  17.781  0.00  0.00    +0.000 N 
ATOM     29  C   UNL     1       6.991   5.915  18.465  0.00  0.00    +0.000 A 
ATOM     30  N   UNL     1       6.977   5.398  19.670  0.00  0.00    +0.000 NA
ATOM     31  N   UNL     1       5.854   4.617  19.770  0.00  0.00    +0.000 NA
ATOM     32  C   UNL     1       5.189   4.682  18.630  0.00  0.00    +0.000 A 
ENDBRANCH  26  32
ENDBRANCH  22  26
ENDBRANCH   1  22
TORSDOF 6
ENDMDL
MODEL 2
REMARK VINA RESULT:      -8.1      5.442      8.908
REMARK  Name = 
REMARK  7 active torsions:
REMARK  status: ('A' for Active; 'I' for Inactive)
REMARK    1  A    between atoms: C_1  and  N_2
REMARK    2  A    between atoms: C_6  and  C_7
REMARK    3  A    between atoms: C_7  and  C_8
REMARK    4  A    between atoms: C_8  and  C_9
REMARK    5  A    between atoms: C_13  and  N_14
REMARK    6  A    between atoms: C_19  and  C_20
REMARK    7  A    between atoms: C_23  and  C_24
REMARK                            x       y       z     vdW  Elec       q    Type
REMARK                         _______ _______ _______ _____ _____    ______ ____
ROOT
ATOM      1  C   UNL     1      -3.896  11.233  17.908  0.00  0.00    +0.000 A 
ATOM      2  C   UNL     1      -3.853  10.782  16.572  0.00  0.00    +0.000 A 
ATOM      3  C   UNL     1      -2.789  10.029  16.081  0.00  0.00    +0.000 A 
ATOM      4  C   UNL     1      -1.681   9.805  16.885  0.00  0.00    +0.000 A 
ATOM      5  C   UNL     1      -1.587  10.474  18.115  0.00  0.00    +0.000 A 
ATOM      6  C   UNL     1      -2.722  11.065  18.663  0.00  0.00    +0.000 A 
ENDROOT
BRANCH   5   7
ATOM      7  N   UNL     1      -0.336  11.089  18.479  0.00  0.00    +0.000 N 
ATOM      8  C   UNL     1       0.315  10.267  19.535  0.00  0.00    +0.000 C 
ATOM      9  C   UNL     1      -0.042  11.010  20.786  0.00  0.00    +0.000 A 
ATOM     10  C   UNL     1      -0.306  12.337  20.434  0.00  0.00    +0.000 A 
ATOM     11  C   UNL     1      -0.831  13.266  21.313  0.00  0.00    +0.000 A 
ATOM     12  C   UNL     1      -1.131  12.822  22.601  0.00  0.00    +0.000 A 
ATOM     13  C   UNL     1      -0.915  11.464  22.957  0.00  0.00    +0.000 A 
ATOM     14  C   UNL     1      -0.352  10.537  22.056  0.00  0.00    +0.000 A 
ATOM     15  C   UNL     1      -0.408  12.408  18.970  0.00  0.00    +0.000 C 
ATOM     16  O   UNL     1      -0.669  13.429  18.354  0.00  0.00    +0.000 OA
BRANCH  14  17
ATOM     17  C   UNL     1      -0.289   9.072  22.409  0.00  0.00    +0.000 C 
ATOM     18  F   UNL     1      -0.991   8.296  21.535  0.00  0.00    +0.000 F 
ATOM     19  F   UNL     1       0.986   8.595  22.378  0.00  0.00    +0.000 F 
ENDBRANCH  14  17
BRANCH  12  20
ATOM     20  C   UNL     1      -1.772  13.705  23.533  0.00  0.00    +0.000 C 
ATOM     21  N   UNL     1      -2.304  14.409  24.292  0.00  0.00    +0.000 NA
ENDBRANCH  12  20
ENDBRANCH   5   7
BRANCH   1  22
ATOM     22  C   UNL     1      -5.193  11.906  18.550  0.00  0.00    +0.000 C 
ATOM     23  C   UNL     1      -6.265  12.383  17.526  0.00  0.00    +0.000 C 
ATOM     24  O   UNL     1      -7.279  11.540  18.109  0.00  0.00    +0.000 OA
ATOM     25  C   UNL     1      -6.312  10.926  18.985  0.00  0.00    +0.000 C 
BRANCH  22  26
ATOM     26  C   UNL     1      -4.876  13.014  19.573  0.00  0.00    +0.000 C 
BRANCH  26  32
ATOM     27  C   UNL     1      -7.705  13.921  20.734  0.00  0.00    +0.000 C 
ATOM     28  N   UNL     1      -6.626  13.278  21.438  0.00  0.00    +0.000 N 
ATOM     29  C   UNL     1      -6.626  13.014  22.777  0.00  0.00    +0.000 A 
ATOM     30  N   UNL     1      -5.502  12.426  23.108  0.00  0.00    +0.000 NA
ATOM     31  N   UNL     1      -4.738  12.329  21.973  0.00  0.00    +0.000 NA
ATOM     32  C   UNL     1      -5.414  12.842  20.961  0.00  0.00    +0.000 A 
ENDBRANCH  26  32
ENDBRANCH  22  26
ENDBRANCH   1  22
TORSDOF 6
ENDMDL
MODEL 3
REMARK VINA RESULT:      -7.9      0.875      1.262
REMARK  Name = 
REMARK  7 active torsions:
REMARK  status: ('A' for Active; 'I' for Inactive)
REMARK    1  A    between atoms: C_1  and  N_2
REMARK    2  A    between atoms: C_6  and  C_7
REMARK    3  A    between atoms: C_7  and  C_8
REMARK    4  A    between atoms: C_8  and  C_9
REMARK    5  A    between atoms: C_13  and  N_14
REMARK    6  A    between atoms: C_19  and  C_20
REMARK    7  A    between atoms: C_23  and  C_24
REMARK                            x       y       z     vdW  Elec       q    Type
REMARK                         _______ _______ _______ _____ _____    ______ ____
ROOT
ATOM      1  C   UNL     1       2.105   5.571  19.269  0.00  0.00    +0.000 A 
ATOM      2  C   UNL     1       2.164   6.280  18.051  0.00  0.00    +0.000 A 
ATOM      3  C   UNL     1       2.224   7.672  18.010  0.00  0.00    +0.000 A 
ATOM      4  C   UNL     1       2.111   8.396  19.187  0.00  0.00    +0.000 A 
ATOM      5  C   UNL     1       1.778   7.721  20.372  0.00  0.00    +0.000 A 
ATOM      6  C   UNL     1       1.903   6.336  20.430  0.00  0.00    +0.000 A 
ENDROOT
BRANCH   5   7
ATOM      7  N   UNL     1       0.774   8.286  21.237  0.00  0.00    +0.000 N 
ATOM      8  C   UNL     1      -0.433   8.608  20.428  0.00  0.00    +0.000 C 
ATOM      9  C   UNL     1      -0.276  10.079  20.188  0.00  0.00    +0.000 A 
ATOM     10  C   UNL     1       0.533  10.593  21.205  0.00  0.00    +0.000 A 
ATOM     11  C   UNL     1       1.026  11.885  21.205  0.00  0.00    +0.000 A 
ATOM     12  C   UNL     1       0.707  12.684  20.106  0.00  0.00    +0.000 A 
ATOM     13  C   UNL     1      -0.072  12.159  19.041  0.00  0.00    +0.000 A 
ATOM     14  C   UNL     1      -0.589  10.847  19.072  0.00  0.00    +0.000 A 
ATOM     15  C   UNL     1       1.132   9.462  21.926  0.00  0.00    +0.000 C 
ATOM     16  O   UNL     1       1.920   9.583  22.851  0.00  0.00    +0.000 OA
BRANCH  14  17
ATOM     17  C   UNL     1      -1.270  10.267  17.858  0.00  0.00    +0.000 C 
ATOM     18  F   UNL     1      -0.507   9.325  17.234  0.00  0.00    +0.000 F 
ATOM     19  F   UNL     1      -2.435   9.639  18.179  0.00  0.00    +0.000 F 
ENDBRANCH  14  17
BRANCH  12  20
ATOM     20  C   UNL     1       1.268  14.000  19.991  0.00  0.00    +0.000 C 
ATOM     21  N   UNL     1       1.718  15.068  19.880  0.00  0.00    +0.000 NA
ENDBRANCH  12  20
ENDBRANCH   5   7
BRANCH   1  22
ATOM     22  C   UNL     1       2.253   3.983  19.350  0.00  0.00    +0.000 C 
ATOM     23  C   UNL     1       1.374   3.292  20.434  0.00  0.00    +0.000 C 
ATOM     24  O   UNL     1       0.708   2.473  19.453  0.00  0.00    +0.000 OA
ATOM     25  C   UNL     1       1.358   3.175  18.374  0.00  0.00    +0.000 C 
BRANCH  22  26
ATOM     26  C   UNL     1       3.714   3.499  19.432  0.00  0.00    +0.000 C 
BRANCH  26  32
ATOM     27  C   UNL     1       6.286   5.380  19.305  0.00  0.00    +0.000 C 
ATOM     28  N   UNL     1       5.682   4.636  18.231  0.00  0.00    +0.000 N 
ATOM     29  C   UNL     1       6.096   4.682  16.931  0.00  0.00    +0.000 A 
ATOM     30  N   UNL     1       5.342   3.895  16.203  0.00  0.00    +0.000 NA
ATOM     31  N   UNL     1       4.398   3.345  17.032  0.00  0.00    +0.000 NA
ATOM     32  C   UNL     1       4.601   3.790  18.260  0.00  0.00    +0.000 A 
ENDBRANCH  26  32
ENDBRANCH  22  26
ENDBRANCH   1  22
TORSDOF 6
ENDMDL
MODEL 4
REMARK VINA RESULT:      -7.9      2.539      3.241
REMARK  Name = 
REMARK  7 active torsions:
REMARK  status: ('A' for Active; 'I' for Inactive)
REMARK    1  A    between atoms: C_1  and  N_2
REMARK    2  A    between atoms: C_6  and  C_7
REMARK    3  A    between atoms: C_7  and  C_8
REMARK    4  A    between atoms: C_8  and  C_9
REMARK    5  A    between atoms: C_13  and  N_14
REMARK    6  A    between atoms: C_19  and  C_20
REMARK    7  A    between atoms: C_23  and  C_24
REMARK                            x       y       z     vdW  Elec       q    Type
REMARK                         _______ _______ _______ _____ _____    ______ ____
ROOT
ATOM      1  C   UNL     1       2.703   4.417  19.114  0.00  0.00    +0.000 A 
ATOM      2  C   UNL     1       2.369   4.133  20.455  0.00  0.00    +0.000 A 
ATOM      3  C   UNL     1       1.634   5.023  21.235  0.00  0.00    +0.000 A 
ATOM      4  C   UNL     1       1.312   6.273  20.729  0.00  0.00    +0.000 A 
ATOM      5  C   UNL     1       1.870   6.676  19.505  0.00  0.00    +0.000 A 
ATOM      6  C   UNL     1       2.440   5.723  18.666  0.00  0.00    +0.000 A 
ENDROOT
BRANCH   5   7
ATOM      7  N   UNL     1       2.418   8.003  19.392  0.00  0.00    +0.000 N 
ATOM      8  C   UNL     1       2.075   8.771  20.620  0.00  0.00    +0.000 C 
ATOM      9  C   UNL     1       0.890   9.574  20.176  0.00  0.00    +0.000 A 
ATOM     10  C   UNL     1       0.955   9.698  18.785  0.00  0.00    +0.000 A 
ATOM     11  C   UNL     1      -0.066  10.231  18.021  0.00  0.00    +0.000 A 
ATOM     12  C   UNL     1      -1.220  10.631  18.696  0.00  0.00    +0.000 A 
ATOM     13  C   UNL     1      -1.320  10.464  20.103  0.00  0.00    +0.000 A 
ATOM     14  C   UNL     1      -0.256   9.943  20.869  0.00  0.00    +0.000 A 
ATOM     15  C   UNL     1       1.980   8.768  18.292  0.00  0.00    +0.000 C 
ATOM     16  O   UNL     1       2.251   8.614  17.112  0.00  0.00    +0.000 OA
BRANCH  14  17
ATOM     17  C   UNL     1      -0.454   9.627  22.331  0.00  0.00    +0.000 C 
ATOM     18  F   UNL     1      -1.361  10.455  22.923  0.00  0.00    +0.000 F 
ATOM     19  F   UNL     1      -0.934   8.367  22.518  0.00  0.00    +0.000 F 
ENDBRANCH  14  17
BRANCH  12  20
ATOM     20  C   UNL     1      -2.357  11.098  17.956  0.00  0.00    +0.000 C 
ATOM     21  N   UNL     1      -3.286  11.461  17.355  0.00  0.00    +0.000 NA
ENDBRANCH  12  20
ENDBRANCH   5   7
BRANCH   1  22
ATOM     22  C   UNL     1       3.352   3.332  18.140  0.00  0.00    +0.000 C 
ATOM     23  C   UNL     1       4.107   2.171  18.852  0.00  0.00    +0.000 C 
ATOM     24  O   UNL     1       3.261   1.173  18.249  0.00  0.00    +0.000 OA
ATOM     25  C   UNL     1       2.408   2.189  17.684  0.00  0.00    +0.000 C 
BRANCH  22  26
ATOM     26  C   UNL     1       4.211   3.942  17.015  0.00  0.00    +0.000 C 
BRANCH  26  32
ATOM     27  C   UNL     1       6.692   4.280  15.039  0.00  0.00    +0.000 C 
ATOM     28  N   UNL     1       6.684   4.396  16.474  0.00  0.00    +0.000 N 
ATOM     29  C   UNL     1       7.794   4.607  17.238  0.00  0.00    +0.000 A 
ATOM     30  N   UNL     1       7.452   4.663  18.503  0.00  0.00    +0.000 NA
ATOM     31  N   UNL     1       6.098   4.455  18.573  0.00  0.00    +0.000 NA
ATOM     32  C   UNL     1       5.629   4.294  17.348  0.00  0.00    +0.000 A 
ENDBRANCH  26  32
ENDBRANCH  22  26
ENDBRANCH   1  22
TORSDOF 6
ENDMDL
MODEL 5
REMARK VINA RESULT:      -7.8      2.954      8.296
REMARK  Name = 
REMARK  7 active torsions:
REMARK  status: ('A' for Active; 'I' for Inactive)
REMARK    1  A    between atoms: C_1  and  N_2
REMARK    2  A    between atoms: C_6  and  C_7
REMARK    3  A    between atoms: C_7  and  C_8
REMARK    4  A    between atoms: C_8  and  C_9
REMARK    5  A    between atoms: C_13  and  N_14
REMARK    6  A    between atoms: C_19  and  C_20
REMARK    7  A    between atoms: C_23  and  C_24
REMARK                            x       y       z     vdW  Elec       q    Type
REMARK                         _______ _______ _______ _____ _____    ______ ____
ROOT
ATOM      1  C   UNL     1       1.703   8.539  19.739  0.00  0.00    +0.000 A 
ATOM      2  C   UNL     1       2.280   9.152  18.606  0.00  0.00    +0.000 A 
ATOM      3  C   UNL     1       2.729   8.411  17.515  0.00  0.00    +0.000 A 
ATOM      4  C   UNL     1       2.717   7.026  17.578  0.00  0.00    +0.000 A 
ATOM      5  C   UNL     1       2.405   6.402  18.796  0.00  0.00    +0.000 A 
ATOM      6  C   UNL     1       1.789   7.138  19.804  0.00  0.00    +0.000 A 
ENDROOT
BRANCH   5   7
ATOM      7  N   UNL     1       3.221   5.303  19.245  0.00  0.00    +0.000 N 
ATOM      8  C   UNL     1       4.608   5.793  19.466  0.00  0.00    +0.000 C 
ATOM      9  C   UNL     1       5.303   5.370  18.207  0.00  0.00    +0.000 A 
ATOM     10  C   UNL     1       4.590   4.295  17.668  0.00  0.00    +0.000 A 
ATOM     11  C   UNL     1       4.849   3.762  16.419  0.00  0.00    +0.000 A 
ATOM     12  C   UNL     1       5.858   4.367  15.668  0.00  0.00    +0.000 A 
ATOM     13  C   UNL     1       6.556   5.492  16.183  0.00  0.00    +0.000 A 
ATOM     14  C   UNL     1       6.297   6.005  17.472  0.00  0.00    +0.000 A 
ATOM     15  C   UNL     1       3.309   4.195  18.379  0.00  0.00    +0.000 C 
ATOM     16  O   UNL     1       2.444   3.375  18.115  0.00  0.00    +0.000 OA
BRANCH  14  17
ATOM     17  C   UNL     1       6.936   7.294  17.921  0.00  0.00    +0.000 C 
ATOM     18  F   UNL     1       8.126   7.091  18.556  0.00  0.00    +0.000 F 
ATOM     19  F   UNL     1       7.218   8.115  16.872  0.00  0.00    +0.000 F 
ENDBRANCH  14  17
BRANCH  12  20
ATOM     20  C   UNL     1       6.111   3.932  14.324  0.00  0.00    +0.000 C 
ATOM     21  N   UNL     1       6.332   3.572  13.240  0.00  0.00    +0.000 NA
ENDBRANCH  12  20
ENDBRANCH   5   7
BRANCH   1  22
ATOM     22  C   UNL     1       0.989   9.371  20.899  0.00  0.00    +0.000 C 
ATOM     23  C   UNL     1      -0.346   8.764  21.422  0.00  0.00    +0.000 C 
ATOM     24  O   UNL     1       0.159   8.669  22.769  0.00  0.00    +0.000 OA
ATOM     25  C   UNL     1       1.476   9.069  22.340  0.00  0.00    +0.000 C 
BRANCH  22  26
ATOM     26  C   UNL     1       0.825  10.870  20.578  0.00  0.00    +0.000 C 
BRANCH  26  32
ATOM     27  C   UNL     1      -1.084  10.455  18.056  0.00  0.00    +0.000 C 
ATOM     28  N   UNL     1      -1.351  11.212  19.251  0.00  0.00    +0.000 N 
ATOM     29  C   UNL     1      -2.478  11.952  19.461  0.00  0.00    +0.000 A 
ATOM     30  N   UNL     1      -2.417  12.520  20.641  0.00  0.00    +0.000 NA
ATOM     31  N   UNL     1      -1.216  12.170  21.204  0.00  0.00    +0.000 NA
ATOM     32  C   UNL     1      -0.568  11.379  20.368  0.00  0.00    +0.000 A 
ENDBRANCH  26  32
ENDBRANCH  22  26
ENDBRANCH   1  22
TORSDOF 6
ENDMDL
MODEL 6
REMARK VINA RESULT:      -7.7      3.000      8.355
REMARK  Name = 
REMARK  7 active torsions:
REMARK  status: ('A' for Active; 'I' for Inactive)
REMARK    1  A    between atoms: C_1  and  N_2
REMARK    2  A    between atoms: C_6  and  C_7
REMARK    3  A    between atoms: C_7  and  C_8
REMARK    4  A    between atoms: C_8  and  C_9
REMARK    5  A    between atoms: C_13  and  N_14
REMARK    6  A    between atoms: C_19  and  C_20
REMARK    7  A    between atoms: C_23  and  C_24
REMARK                            x       y       z     vdW  Elec       q    Type
REMARK                         _______ _______ _______ _____ _____    ______ ____
ROOT
ATOM      1  C   UNL     1       1.716   8.504  19.718  0.00  0.00    +0.000 A 
ATOM      2  C   UNL     1       2.254   9.090  18.552  0.00  0.00    +0.000 A 
ATOM      3  C   UNL     1       2.668   8.324  17.465  0.00  0.00    +0.000 A 
ATOM      4  C   UNL     1       2.662   6.941  17.561  0.00  0.00    +0.000 A 
ATOM      5  C   UNL     1       2.392   6.346  18.803  0.00  0.00    +0.000 A 
ATOM      6  C   UNL     1       1.808   7.105  19.814  0.00  0.00    +0.000 A 
ENDROOT
BRANCH   5   7
ATOM      7  N   UNL     1       3.225   5.260  19.252  0.00  0.00    +0.000 N 
ATOM      8  C   UNL     1       4.606   5.771  19.470  0.00  0.00    +0.000 C 
ATOM      9  C   UNL     1       5.305   5.357  18.210  0.00  0.00    +0.000 A 
ATOM     10  C   UNL     1       4.607   4.272  17.672  0.00  0.00    +0.000 A 
ATOM     11  C   UNL     1       4.871   3.742  16.423  0.00  0.00    +0.000 A 
ATOM     12  C   UNL     1       5.870   4.362  15.670  0.00  0.00    +0.000 A 
ATOM     13  C   UNL     1       6.551   5.498  16.184  0.00  0.00    +0.000 A 
ATOM     14  C   UNL     1       6.287   6.006  17.472  0.00  0.00    +0.000 A 
ATOM     15  C   UNL     1       3.328   4.153  18.386  0.00  0.00    +0.000 C 
ATOM     16  O   UNL     1       2.476   3.320  18.123  0.00  0.00    +0.000 OA
BRANCH  14  17
ATOM     17  C   UNL     1       6.908   7.306  17.920  0.00  0.00    +0.000 C 
ATOM     18  F   UNL     1       8.062   7.116  18.621  0.00  0.00    +0.000 F 
ATOM     19  F   UNL     1       7.247   8.098  16.866  0.00  0.00    +0.000 F 
ENDBRANCH  14  17
BRANCH  12  20
ATOM     20  C   UNL     1       6.127   3.930  14.326  0.00  0.00    +0.000 C 
ATOM     21  N   UNL     1       6.328   3.594  13.230  0.00  0.00    +0.000 NA
ENDBRANCH  12  20
ENDBRANCH   5   7
BRANCH   1  22
ATOM     22  C   UNL     1       1.039   9.363  20.880  0.00  0.00    +0.000 C 
ATOM     23  C   UNL     1      -0.335   8.829  21.382  0.00  0.00    +0.000 C 
ATOM     24  O   UNL     1       0.148   8.688  22.732  0.00  0.00    +0.000 OA
ATOM     25  C   UNL     1       1.491   9.015  22.322  0.00  0.00    +0.000 C 
BRANCH  22  26
ATOM     26  C   UNL     1       0.968  10.872  20.577  0.00  0.00    +0.000 C 
BRANCH  26  32
ATOM     27  C   UNL     1      -1.359  12.386  22.147  0.00  0.00    +0.000 C 
ATOM     28  N   UNL     1      -1.326  12.021  20.755  0.00  0.00    +0.000 N 
ATOM     29  C   UNL     1      -2.355  12.214  19.880  0.00  0.00    +0.000 A 
ATOM     30  N   UNL     1      -2.012  11.774  18.694  0.00  0.00    +0.000 NA
ATOM     31  N   UNL     1      -0.745  11.257  18.797  0.00  0.00    +0.000 NA
ATOM     32  C   UNL     1      -0.326  11.405  20.041  0.00  0.00    +0.000 A 
ENDBRANCH  26  32
ENDBRANCH  22  26
ENDBRANCH   1  22
TORSDOF 6
ENDMDL
MODEL 7
REMARK VINA RESULT:      -7.7      2.223      3.042
REMARK  Name = 
REMARK  7 active torsions:
REMARK  status: ('A' for Active; 'I' for Inactive)
REMARK    1  A    between atoms: C_1  and  N_2
REMARK    2  A    between atoms: C_6  and  C_7
REMARK    3  A    between atoms: C_7  and  C_8
REMARK    4  A    between atoms: C_8  and  C_9
REMARK    5  A    between atoms: C_13  and  N_14
REMARK    6  A    between atoms: C_19  and  C_20
REMARK    7  A    between atoms: C_23  and  C_24
REMARK                            x       y       z     vdW  Elec       q    Type
REMARK                         _______ _______ _______ _____ _____    ______ ____
ROOT
ATOM      1  C   UNL     1       2.398   7.558  18.652  0.00  0.00    +0.000 A 
ATOM      2  C   UNL     1       2.279   8.526  17.633  0.00  0.00    +0.000 A 
ATOM      3  C   UNL     1       1.871   9.832  17.900  0.00  0.00    +0.000 A 
ATOM      4  C   UNL     1       1.462  10.171  19.181  0.00  0.00    +0.000 A 
ATOM      5  C   UNL     1       1.314   9.157  20.139  0.00  0.00    +0.000 A 
ATOM      6  C   UNL     1       1.892   7.911  19.914  0.00  0.00    +0.000 A 
ENDROOT
BRANCH   5   7
ATOM      7  N   UNL     1       0.135   9.148  20.968  0.00  0.00    +0.000 N 
ATOM      8  C   UNL     1      -1.039   9.532  20.139  0.00  0.00    +0.000 C 
ATOM      9  C   UNL     1      -1.210  10.983  20.475  0.00  0.00    +0.000 A 
ATOM     10  C   UNL     1      -0.632  11.201  21.729  0.00  0.00    +0.000 A 
ATOM     11  C   UNL     1      -0.456  12.458  22.276  0.00  0.00    +0.000 A 
ATOM     12  C   UNL     1      -0.857  13.548  21.503  0.00  0.00    +0.000 A 
ATOM     13  C   UNL     1      -1.398  13.344  20.205  0.00  0.00    +0.000 A 
ATOM     14  C   UNL     1      -1.596  12.052  19.675  0.00  0.00    +0.000 A 
ATOM     15  C   UNL     1       0.149  10.009  22.084  0.00  0.00    +0.000 C 
ATOM     16  O   UNL     1       0.805   9.903  23.108  0.00  0.00    +0.000 OA
BRANCH  14  17
ATOM     17  C   UNL     1      -2.017  11.875  18.237  0.00  0.00    +0.000 C 
ATOM     18  F   UNL     1      -1.201  11.018  17.559  0.00  0.00    +0.000 F 
ATOM     19  F   UNL     1      -3.267  11.346  18.135  0.00  0.00    +0.000 F 
ENDBRANCH  14  17
BRANCH  12  20
ATOM     20  C   UNL     1      -0.611  14.884  21.965  0.00  0.00    +0.000 C 
ATOM     21  N   UNL     1      -0.404  15.961  22.354  0.00  0.00    +0.000 NA
ENDBRANCH  12  20
ENDBRANCH   5   7
BRANCH   1  22
ATOM     22  C   UNL     1       3.065   6.128  18.407  0.00  0.00    +0.000 C 
ATOM     23  C   UNL     1       4.205   6.103  17.346  0.00  0.00    +0.000 C 
ATOM     24  O   UNL     1       5.160   5.600  18.301  0.00  0.00    +0.000 OA
ATOM     25  C   UNL     1       4.212   5.747  19.378  0.00  0.00    +0.000 C 
BRANCH  22  26
ATOM     26  C   UNL     1       2.044   5.003  18.148  0.00  0.00    +0.000 C 
BRANCH  26  32
ATOM     27  C   UNL     1       3.187   2.033  18.359  0.00  0.00    +0.000 C 
ATOM     28  N   UNL     1       2.315   2.711  19.282  0.00  0.00    +0.000 N 
ATOM     29  C   UNL     1       1.769   2.138  20.393  0.00  0.00    +0.000 A 
ATOM     30  N   UNL     1       1.024   3.016  21.019  0.00  0.00    +0.000 NA
ATOM     31  N   UNL     1       1.056   4.178  20.291  0.00  0.00    +0.000 NA
ATOM     32  C   UNL     1       1.836   3.998  19.240  0.00  0.00    +0.000 A 
ENDBRANCH  26  32
ENDBRANCH  22  26
ENDBRANCH   1  22
TORSDOF 6
ENDMDL
MODEL 8
REMARK VINA RESULT:      -7.6      2.207      3.066
REMARK  Name = 
REMARK  7 active torsions:
REMARK  status: ('A' for Active; 'I' for Inactive)
REMARK    1  A    between atoms: C_1  and  N_2
REMARK    2  A    between atoms: C_6  and  C_7
REMARK    3  A    between atoms: C_7  and  C_8
REMARK    4  A    between atoms: C_8  and  C_9
REMARK    5  A    between atoms: C_13  and  N_14
REMARK    6  A    between atoms: C_19  and  C_20
REMARK    7  A    between atoms: C_23  and  C_24
REMARK                            x       y       z     vdW  Elec       q    Type
REMARK                         _______ _______ _______ _____ _____    ______ ____
ROOT
ATOM      1  C   UNL     1       2.299   7.689  18.696  0.00  0.00    +0.000 A 
ATOM      2  C   UNL     1       2.200   8.694  17.711  0.00  0.00    +0.000 A 
ATOM      3  C   UNL     1       1.798   9.992  18.020  0.00  0.00    +0.000 A 
ATOM      4  C   UNL     1       1.373  10.288  19.306  0.00  0.00    +0.000 A 
ATOM      5  C   UNL     1       1.205   9.242  20.225  0.00  0.00    +0.000 A 
ATOM      6  C   UNL     1       1.778   8.001  19.963  0.00  0.00    +0.000 A 
ENDROOT
BRANCH   5   7
ATOM      7  N   UNL     1       0.015   9.212  21.037  0.00  0.00    +0.000 N 
ATOM      8  C   UNL     1      -1.138   9.675  20.218  0.00  0.00    +0.000 C 
ATOM      9  C   UNL     1      -1.278  11.106  20.641  0.00  0.00    +0.000 A 
ATOM     10  C   UNL     1      -0.713  11.232  21.913  0.00  0.00    +0.000 A 
ATOM     11  C   UNL     1      -0.515  12.449  22.539  0.00  0.00    +0.000 A 
ATOM     12  C   UNL     1      -0.878  13.594  21.828  0.00  0.00    +0.000 A 
ATOM     13  C   UNL     1      -1.406  13.483  20.514  0.00  0.00    +0.000 A 
ATOM     14  C   UNL     1      -1.628  12.231  19.903  0.00  0.00    +0.000 A 
ATOM     15  C   UNL     1       0.034  10.002  22.204  0.00  0.00    +0.000 C 
ATOM     16  O   UNL     1       0.673   9.818  23.228  0.00  0.00    +0.000 OA
BRANCH  14  17
ATOM     17  C   UNL     1      -2.033  12.153  18.453  0.00  0.00    +0.000 C 
ATOM     18  F   UNL     1      -1.033  11.671  17.659  0.00  0.00    +0.000 F 
ATOM     19  F   UNL     1      -3.086  11.311  18.263  0.00  0.00    +0.000 F 
ENDBRANCH  14  17
BRANCH  12  20
ATOM     20  C   UNL     1      -0.607  14.893  22.375  0.00  0.00    +0.000 C 
ATOM     21  N   UNL     1      -0.399  15.944  22.829  0.00  0.00    +0.000 NA
ENDBRANCH  12  20
ENDBRANCH   5   7
BRANCH   1  22
ATOM     22  C   UNL     1       2.960   6.264  18.410  0.00  0.00    +0.000 C 
ATOM     23  C   UNL     1       4.280   6.302  17.585  0.00  0.00    +0.000 C 
ATOM     24  O   UNL     1       5.021   5.646  18.633  0.00  0.00    +0.000 OA
ATOM     25  C   UNL     1       3.889   5.719  19.524  0.00  0.00    +0.000 C 
BRANCH  22  26
ATOM     26  C   UNL     1       1.976   5.229  17.830  0.00  0.00    +0.000 C 
BRANCH  26  32
ATOM     27  C   UNL     1       0.929   3.539  20.324  0.00  0.00    +0.000 C 
ATOM     28  N   UNL     1       1.790   3.098  19.257  0.00  0.00    +0.000 N 
ATOM     29  C   UNL     1       2.365   1.863  19.189  0.00  0.00    +0.000 A 
ATOM     30  N   UNL     1       3.090   1.776  18.100  0.00  0.00    +0.000 NA
ATOM     31  N   UNL     1       3.013   2.985  17.456  0.00  0.00    +0.000 NA
ATOM     32  C   UNL     1       2.227   3.787  18.152  0.00  0.00    +0.000 A 
ENDBRANCH  26  32
ENDBRANCH  22  26
ENDBRANCH   1  22
TORSDOF 6
ENDMDL
MODEL 9
REMARK VINA RESULT:      -7.5      2.917      8.359
REMARK  Name = 
REMARK  7 active torsions:
REMARK  status: ('A' for Active; 'I' for Inactive)
REMARK    1  A    between atoms: C_1  and  N_2
REMARK    2  A    between atoms: C_6  and  C_7
REMARK    3  A    between atoms: C_7  and  C_8
REMARK    4  A    between atoms: C_8  and  C_9
REMARK    5  A    between atoms: C_13  and  N_14
REMARK    6  A    between atoms: C_19  and  C_20
REMARK    7  A    between atoms: C_23  and  C_24
REMARK                            x       y       z     vdW  Elec       q    Type
REMARK                         _______ _______ _______ _____ _____    ______ ____
ROOT
ATOM      1  C   UNL     1       1.594   8.494  19.631  0.00  0.00    +0.000 A 
ATOM      2  C   UNL     1       2.272   9.180  18.601  0.00  0.00    +0.000 A 
ATOM      3  C   UNL     1       2.844   8.511  17.521  0.00  0.00    +0.000 A 
ATOM      4  C   UNL     1       2.853   7.125  17.503  0.00  0.00    +0.000 A 
ATOM      5  C   UNL     1       2.429   6.426  18.644  0.00  0.00    +0.000 A 
ATOM      6  C   UNL     1       1.700   7.093  19.624  0.00  0.00    +0.000 A 
ENDROOT
BRANCH   5   7
ATOM      7  N   UNL     1       3.216   5.313  19.111  0.00  0.00    +0.000 N 
ATOM      8  C   UNL     1       4.603   5.782  19.375  0.00  0.00    +0.000 C 
ATOM      9  C   UNL     1       5.329   5.354  18.136  0.00  0.00    +0.000 A 
ATOM     10  C   UNL     1       4.617   4.293  17.570  0.00  0.00    +0.000 A 
ATOM     11  C   UNL     1       4.905   3.762  16.326  0.00  0.00    +0.000 A 
ATOM     12  C   UNL     1       5.944   4.356  15.609  0.00  0.00    +0.000 A 
ATOM     13  C   UNL     1       6.642   5.468  16.150  0.00  0.00    +0.000 A 
ATOM     14  C   UNL     1       6.353   5.978  17.433  0.00  0.00    +0.000 A 
ATOM     15  C   UNL     1       3.313   4.208  18.242  0.00  0.00    +0.000 C 
ATOM     16  O   UNL     1       2.445   3.402  17.948  0.00  0.00    +0.000 OA
BRANCH  14  17
ATOM     17  C   UNL     1       6.997   7.256  17.908  0.00  0.00    +0.000 C 
ATOM     18  F   UNL     1       8.165   7.032  18.575  0.00  0.00    +0.000 F 
ATOM     19  F   UNL     1       7.320   8.079  16.872  0.00  0.00    +0.000 F 
ENDBRANCH  14  17
BRANCH  12  20
ATOM     20  C   UNL     1       6.230   3.924  14.271  0.00  0.00    +0.000 C 
ATOM     21  N   UNL     1       6.445   3.571  13.182  0.00  0.00    +0.000 NA
ENDBRANCH  12  20
ENDBRANCH   5   7
BRANCH   1  22
ATOM     22  C   UNL     1       0.749   9.247  20.756  0.00  0.00    +0.000 C 
ATOM     23  C   UNL     1      -0.202   8.336  21.588  0.00  0.00    +0.000 C 
ATOM     24  O   UNL     1       0.441   8.698  22.826  0.00  0.00    +0.000 OA
ATOM     25  C   UNL     1       1.463   9.431  22.120  0.00  0.00    +0.000 C 
BRANCH  22  26
ATOM     26  C   UNL     1       0.009  10.498  20.245  0.00  0.00    +0.000 C 
BRANCH  26  32
ATOM     27  C   UNL     1      -1.694  11.733  22.642  0.00  0.00    +0.000 C 
ATOM     28  N   UNL     1      -0.543  12.302  21.993  0.00  0.00    +0.000 N 
ATOM     29  C   UNL     1      -0.030  13.535  22.270  0.00  0.00    +0.000 A 
ATOM     30  N   UNL     1       1.014  13.758  21.509  0.00  0.00    +0.000 NA
ATOM     31  N   UNL     1       1.172  12.664  20.697  0.00  0.00    +0.000 NA
ATOM     32  C   UNL     1       0.234  11.780  20.986  0.00  0.00    +0.000 A 
ENDBRANCH  26  32
ENDBRANCH  22  26
ENDBRANCH   1  22
TORSDOF 6
ENDMDL
