MODEL 1
REMARK VINA RESULT:      -8.0      0.000      0.000
REMARK  Name = 
REMARK  9 active torsions:
REMARK  status: ('A' for Active; 'I' for Inactive)
REMARK    1  A    between atoms: C_1  and  N_2
REMARK    2  A    between atoms: C_6  and  C_7
REMARK    3  A    between atoms: C_7  and  N_8
REMARK    4  A    between atoms: N_8  and  C_9
REMARK    5  A    between atoms: N_8  and  C_28
REMARK    6  A    between atoms: C_13  and  N_14
REMARK    7  A    between atoms: C_15  and  C_17
REMARK    8  A    between atoms: C_19  and  N_20
REMARK    9  A    between atoms: C_22  and  C_23
REMARK                            x       y       z     vdW  Elec       q    Type
REMARK                         _______ _______ _______ _____ _____    ______ ____
ROOT
ATOM      1  C   UNL     1      -0.101   9.977  19.827  0.00  0.00    +0.000 A 
ATOM      2  C   UNL     1      -0.483  10.168  21.179  0.00  0.00    +0.000 A 
ATOM      3  C   UNL     1       0.182   9.501  22.206  0.00  0.00    +0.000 A 
ATOM      4  C   UNL     1       1.184   8.597  21.912  0.00  0.00    +0.000 A 
ATOM      5  C   UNL     1       1.502   8.274  20.583  0.00  0.00    +0.000 A 
ATOM      6  C   UNL     1       0.845   8.976  19.568  0.00  0.00    +0.000 A 
ENDROOT
BRANCH   5   7
ATOM      7  N   UNL     1       2.463   7.310  20.217  0.00  0.00    +0.000 N 
ATOM      8  C   UNL     1       2.269   5.934  20.229  0.00  0.00    +0.000 C 
ATOM      9  O   UNL     1       1.247   5.346  20.530  0.00  0.00    +0.000 OA
ATOM     10  H   UNL     1       3.356   7.644  19.858  0.00  0.00    +0.000 HD
BRANCH   8  11
ATOM     11  C   UNL     1       3.432   5.107  19.778  0.00  0.00    +0.000 A 
ATOM     12  C   UNL     1       3.441   3.752  20.032  0.00  0.00    +0.000 A 
ATOM     13  C   UNL     1       4.497   3.078  19.459  0.00  0.00    +0.000 A 
ATOM     14  N   UNL     1       5.419   3.680  18.709  0.00  0.00    +0.000 NA
ATOM     15  C   UNL     1       5.323   5.010  18.493  0.00  0.00    +0.000 A 
ATOM     16  N   UNL     1       4.365   5.767  19.062  0.00  0.00    +0.000 NA
BRANCH  13  17
ATOM     17  N   UNL     1       4.565   1.690  19.533  0.00  0.00    +0.000 N 
ATOM     18  H   UNL     1       4.761   1.327  20.454  0.00  0.00    +0.000 HD
ATOM     19  H   UNL     1       5.224   1.365  18.827  0.00  0.00    +0.000 HD
ENDBRANCH  13  17
BRANCH  15  20
ATOM     20  C   UNL     1       6.291   5.662  17.533  0.00  0.00    +0.000 C 
ATOM     21  C   UNL     1       7.443   6.494  18.062  0.00  0.00    +0.000 C 
ATOM     22  C   UNL     1       6.312   7.163  17.342  0.00  0.00    +0.000 C 
ENDBRANCH  15  20
ENDBRANCH   8  11
ENDBRANCH   5   7
BRANCH   1  23
ATOM     23  N   UNL     1      -0.487  10.886  18.819  0.00  0.00    +0.000 N 
BRANCH  23  24
ATOM     24  C   UNL     1      -0.359  12.329  19.122  0.00  0.00    +0.000 C 
ATOM     25  C   UNL     1      -0.276  13.553  18.262  0.00  0.00    +0.000 C 
ATOM     26  C   UNL     1       0.990  12.894  18.673  0.00  0.00    +0.000 C 
ENDBRANCH  23  24
BRANCH  23  27
ATOM     27  C   UNL     1      -1.305  10.419  17.683  0.00  0.00    +0.000 C 
BRANCH  27  33
ATOM     28  C   UNL     1      -3.296  10.437  14.991  0.00  0.00    +0.000 C 
ATOM     29  N   UNL     1      -3.509  10.937  16.320  0.00  0.00    +0.000 N 
ATOM     30  C   UNL     1      -4.632  11.643  16.664  0.00  0.00    +0.000 A 
ATOM     31  N   UNL     1      -4.686  11.771  17.965  0.00  0.00    +0.000 NA
ATOM     32  N   UNL     1      -3.522  11.255  18.470  0.00  0.00    +0.000 NA
ATOM     33  C   UNL     1      -2.748  10.839  17.468  0.00  0.00    +0.000 A 
ENDBRANCH  27  33
ENDBRANCH  23  27
ENDBRANCH   1  23
TORSDOF 8
ENDMDL
MODEL 2
REMARK VINA RESULT:      -7.8      1.828      3.747
REMARK  Name = 
REMARK  9 active torsions:
REMARK  status: ('A' for Active; 'I' for Inactive)
REMARK    1  A    between atoms: C_1  and  N_2
REMARK    2  A    between atoms: C_6  and  C_7
REMARK    3  A    between atoms: C_7  and  N_8
REMARK    4  A    between atoms: N_8  and  C_9
REMARK    5  A    between atoms: N_8  and  C_28
REMARK    6  A    between atoms: C_13  and  N_14
REMARK    7  A    between atoms: C_15  and  C_17
REMARK    8  A    between atoms: C_19  and  N_20
REMARK    9  A    between atoms: C_22  and  C_23
REMARK                            x       y       z     vdW  Elec       q    Type
REMARK                         _______ _______ _______ _____ _____    ______ ____
ROOT
ATOM      1  C   UNL     1       0.257  10.112  19.944  0.00  0.00    +0.000 A 
ATOM      2  C   UNL     1      -0.377  10.117  21.213  0.00  0.00    +0.000 A 
ATOM      3  C   UNL     1      -0.014   9.196  22.192  0.00  0.00    +0.000 A 
ATOM      4  C   UNL     1       0.929   8.224  21.916  0.00  0.00    +0.000 A 
ATOM      5  C   UNL     1       1.482   8.095  20.633  0.00  0.00    +0.000 A 
ATOM      6  C   UNL     1       1.128   9.047  19.672  0.00  0.00    +0.000 A 
ENDROOT
BRANCH   5   7
ATOM      7  N   UNL     1       2.394   7.083  20.268  0.00  0.00    +0.000 N 
ATOM      8  C   UNL     1       2.149   5.717  20.333  0.00  0.00    +0.000 C 
ATOM      9  O   UNL     1       1.117   5.179  20.687  0.00  0.00    +0.000 OA
ATOM     10  H   UNL     1       3.285   7.370  19.869  0.00  0.00    +0.000 HD
BRANCH   8  11
ATOM     11  C   UNL     1       3.264   4.831  19.871  0.00  0.00    +0.000 A 
ATOM     12  C   UNL     1       2.998   3.519  19.547  0.00  0.00    +0.000 A 
ATOM     13  C   UNL     1       4.073   2.841  19.015  0.00  0.00    +0.000 A 
ATOM     14  N   UNL     1       5.262   3.409  18.816  0.00  0.00    +0.000 NA
ATOM     15  C   UNL     1       5.430   4.709  19.144  0.00  0.00    +0.000 A 
ATOM     16  N   UNL     1       4.460   5.438  19.729  0.00  0.00    +0.000 NA
BRANCH  13  17
ATOM     17  N   UNL     1       3.915   1.545  18.531  0.00  0.00    +0.000 N 
ATOM     18  H   UNL     1       2.956   1.254  18.417  0.00  0.00    +0.000 HD
ATOM     19  H   UNL     1       4.457   0.916  19.121  0.00  0.00    +0.000 HD
ENDBRANCH  13  17
BRANCH  15  20
ATOM     20  C   UNL     1       6.735   5.384  18.791  0.00  0.00    +0.000 C 
ATOM     21  C   UNL     1       6.913   6.036  17.434  0.00  0.00    +0.000 C 
ATOM     22  C   UNL     1       7.672   4.786  17.763  0.00  0.00    +0.000 C 
ENDBRANCH  15  20
ENDBRANCH   8  11
ENDBRANCH   5   7
BRANCH   1  23
ATOM     23  N   UNL     1       0.187  11.227  19.082  0.00  0.00    +0.000 N 
BRANCH  23  24
ATOM     24  C   UNL     1      -1.061  11.408  18.307  0.00  0.00    +0.000 C 
ATOM     25  C   UNL     1      -2.397  10.732  18.345  0.00  0.00    +0.000 C 
ATOM     26  C   UNL     1      -1.365  10.200  17.419  0.00  0.00    +0.000 C 
ENDBRANCH  23  24
BRANCH  23  27
ATOM     27  C   UNL     1       1.420  11.949  18.714  0.00  0.00    +0.000 C 
BRANCH  27  33
ATOM     28  C   UNL     1       3.341  14.628  18.129  0.00  0.00    +0.000 C 
ATOM     29  N   UNL     1       2.980  13.982  19.359  0.00  0.00    +0.000 N 
ATOM     30  C   UNL     1       3.506  14.363  20.566  0.00  0.00    +0.000 A 
ATOM     31  N   UNL     1       2.843  13.784  21.534  0.00  0.00    +0.000 NA
ATOM     32  N   UNL     1       1.956  12.917  20.952  0.00  0.00    +0.000 NA
ATOM     33  C   UNL     1       2.103  12.951  19.629  0.00  0.00    +0.000 A 
ENDBRANCH  27  33
ENDBRANCH  23  27
ENDBRANCH   1  23
TORSDOF 8
ENDMDL
MODEL 3
REMARK VINA RESULT:      -7.7      2.900      9.273
REMARK  Name = 
REMARK  9 active torsions:
REMARK  status: ('A' for Active; 'I' for Inactive)
REMARK    1  A    between atoms: C_1  and  N_2
REMARK    2  A    between atoms: C_6  and  C_7
REMARK    3  A    between atoms: C_7  and  N_8
REMARK    4  A    between atoms: N_8  and  C_9
REMARK    5  A    between atoms: N_8  and  C_28
REMARK    6  A    between atoms: C_13  and  N_14
REMARK    7  A    between atoms: C_15  and  C_17
REMARK    8  A    between atoms: C_19  and  N_20
REMARK    9  A    between atoms: C_22  and  C_23
REMARK                            x       y       z     vdW  Elec       q    Type
REMARK                         _______ _______ _______ _____ _____    ______ ____
ROOT
ATOM      1  C   UNL     1       4.992   4.880  17.402  0.00  0.00    +0.000 A 
ATOM      2  C   UNL     1       4.374   3.610  17.273  0.00  0.00    +0.000 A 
ATOM      3  C   UNL     1       3.003   3.465  17.471  0.00  0.00    +0.000 A 
ATOM      4  C   UNL     1       2.237   4.549  17.855  0.00  0.00    +0.000 A 
ATOM      5  C   UNL     1       2.828   5.793  18.127  0.00  0.00    +0.000 A 
ATOM      6  C   UNL     1       4.200   5.927  17.894  0.00  0.00    +0.000 A 
ENDROOT
BRANCH   5   7
ATOM      7  N   UNL     1       2.115   6.917  18.590  0.00  0.00    +0.000 N 
ATOM      8  C   UNL     1       2.178   8.192  18.043  0.00  0.00    +0.000 C 
ATOM      9  O   UNL     1       2.830   8.537  17.075  0.00  0.00    +0.000 OA
ATOM     10  H   UNL     1       1.453   6.778  19.352  0.00  0.00    +0.000 HD
BRANCH   8  11
ATOM     11  C   UNL     1       1.311   9.226  18.693  0.00  0.00    +0.000 A 
ATOM     12  C   UNL     1       0.453   9.977  17.918  0.00  0.00    +0.000 A 
ATOM     13  C   UNL     1      -0.381  10.802  18.640  0.00  0.00    +0.000 A 
ATOM     14  N   UNL     1      -0.372  10.856  19.971  0.00  0.00    +0.000 NA
ATOM     15  C   UNL     1       0.488  10.068  20.654  0.00  0.00    +0.000 A 
ATOM     16  N   UNL     1       1.388   9.277  20.038  0.00  0.00    +0.000 NA
BRANCH  13  17
ATOM     17  N   UNL     1      -1.381  11.526  17.996  0.00  0.00    +0.000 N 
ATOM     18  H   UNL     1      -1.498  12.470  18.333  0.00  0.00    +0.000 HD
ATOM     19  H   UNL     1      -2.240  10.980  18.026  0.00  0.00    +0.000 HD
ENDBRANCH  13  17
BRANCH  15  20
ATOM     20  C   UNL     1       0.400  10.034  22.162  0.00  0.00    +0.000 C 
ATOM     21  C   UNL     1      -0.572   9.093  22.846  0.00  0.00    +0.000 C 
ATOM     22  C   UNL     1      -0.815  10.572  22.887  0.00  0.00    +0.000 C 
ENDBRANCH  15  20
ENDBRANCH   8  11
ENDBRANCH   5   7
BRANCH   1  23
ATOM     23  N   UNL     1       6.271   5.133  16.862  0.00  0.00    +0.000 N 
BRANCH  23  24
ATOM     24  C   UNL     1       7.409   5.178  17.807  0.00  0.00    +0.000 C 
ATOM     25  C   UNL     1       7.530   5.573  19.247  0.00  0.00    +0.000 C 
ATOM     26  C   UNL     1       7.763   6.611  18.211  0.00  0.00    +0.000 C 
ENDBRANCH  23  24
BRANCH  23  27
ATOM     27  C   UNL     1       6.396   5.677  15.496  0.00  0.00    +0.000 C 
BRANCH  27  33
ATOM     28  C   UNL     1       8.511   5.790  12.902  0.00  0.00    +0.000 C 
ATOM     29  N   UNL     1       7.381   4.941  13.157  0.00  0.00    +0.000 N 
ATOM     30  C   UNL     1       6.920   4.042  12.231  0.00  0.00    +0.000 A 
ATOM     31  N   UNL     1       6.048   3.244  12.794  0.00  0.00    +0.000 NA
ATOM     32  N   UNL     1       5.842   3.706  14.067  0.00  0.00    +0.000 NA
ATOM     33  C   UNL     1       6.569   4.804  14.265  0.00  0.00    +0.000 A 
ENDBRANCH  27  33
ENDBRANCH  23  27
ENDBRANCH   1  23
TORSDOF 8
ENDMDL
MODEL 4
REMARK VINA RESULT:      -7.6      3.094      8.974
REMARK  Name = 
REMARK  9 active torsions:
REMARK  status: ('A' for Active; 'I' for Inactive)
REMARK    1  A    between atoms: C_1  and  N_2
REMARK    2  A    between atoms: C_6  and  C_7
REMARK    3  A    between atoms: C_7  and  N_8
REMARK    4  A    between atoms: N_8  and  C_9
REMARK    5  A    between atoms: N_8  and  C_28
REMARK    6  A    between atoms: C_13  and  N_14
REMARK    7  A    between atoms: C_15  and  C_17
REMARK    8  A    between atoms: C_19  and  N_20
REMARK    9  A    between atoms: C_22  and  C_23
REMARK                            x       y       z     vdW  Elec       q    Type
REMARK                         _______ _______ _______ _____ _____    ______ ____
ROOT
ATOM      1  C   UNL     1       4.361   4.033  17.363  0.00  0.00    +0.000 A 
ATOM      2  C   UNL     1       3.573   2.857  17.279  0.00  0.00    +0.000 A 
ATOM      3  C   UNL     1       2.245   2.859  17.700  0.00  0.00    +0.000 A 
ATOM      4  C   UNL     1       1.698   3.996  18.264  0.00  0.00    +0.000 A 
ATOM      5  C   UNL     1       2.479   5.139  18.493  0.00  0.00    +0.000 A 
ATOM      6  C   UNL     1       3.800   5.128  18.035  0.00  0.00    +0.000 A 
ENDROOT
BRANCH   5   7
ATOM      7  N   UNL     1       1.999   6.305  19.126  0.00  0.00    +0.000 N 
ATOM      8  C   UNL     1       2.159   7.602  18.655  0.00  0.00    +0.000 C 
ATOM      9  O   UNL     1       2.709   7.938  17.623  0.00  0.00    +0.000 OA
ATOM     10  H   UNL     1       1.439   6.189  19.969  0.00  0.00    +0.000 HD
BRANCH   8  11
ATOM     11  C   UNL     1       1.544   8.681  19.491  0.00  0.00    +0.000 A 
ATOM     12  C   UNL     1       1.266   8.435  20.818  0.00  0.00    +0.000 A 
ATOM     13  C   UNL     1       0.823   9.538  21.514  0.00  0.00    +0.000 A 
ATOM     14  N   UNL     1       0.691  10.742  20.957  0.00  0.00    +0.000 NA
ATOM     15  C   UNL     1       1.007  10.899  19.653  0.00  0.00    +0.000 A 
ATOM     16  N   UNL     1       1.386   9.868  18.872  0.00  0.00    +0.000 NA
BRANCH  13  17
ATOM     17  N   UNL     1       0.619   9.465  22.890  0.00  0.00    +0.000 N 
ATOM     18  H   UNL     1      -0.225   8.985  23.164  0.00  0.00    +0.000 HD
ATOM     19  H   UNL     1       0.687  10.406  23.272  0.00  0.00    +0.000 HD
ENDBRANCH  13  17
BRANCH  15  20
ATOM     20  C   UNL     1       0.986  12.290  19.063  0.00  0.00    +0.000 C 
ATOM     21  C   UNL     1       2.286  13.015  18.777  0.00  0.00    +0.000 C 
ATOM     22  C   UNL     1       1.396  13.493  19.884  0.00  0.00    +0.000 C 
ENDBRANCH  15  20
ENDBRANCH   8  11
ENDBRANCH   5   7
BRANCH   1  23
ATOM     23  N   UNL     1       5.556   4.172  16.626  0.00  0.00    +0.000 N 
BRANCH  23  24
ATOM     24  C   UNL     1       5.534   3.739  15.211  0.00  0.00    +0.000 C 
ATOM     25  C   UNL     1       6.477   3.939  14.064  0.00  0.00    +0.000 C 
ATOM     26  C   UNL     1       5.377   4.919  14.251  0.00  0.00    +0.000 C 
ENDBRANCH  23  24
BRANCH  23  27
ATOM     27  C   UNL     1       6.832   4.392  17.333  0.00  0.00    +0.000 C 
BRANCH  27  33
ATOM     28  C   UNL     1       8.295   5.822  19.984  0.00  0.00    +0.000 C 
ATOM     29  N   UNL     1       7.926   6.366  18.708  0.00  0.00    +0.000 N 
ATOM     30  C   UNL     1       8.052   7.700  18.419  0.00  0.00    +0.000 A 
ATOM     31  N   UNL     1       7.874   7.887  17.136  0.00  0.00    +0.000 NA
ATOM     32  N   UNL     1       7.503   6.682  16.600  0.00  0.00    +0.000 NA
ATOM     33  C   UNL     1       7.428   5.770  17.567  0.00  0.00    +0.000 A 
ENDBRANCH  27  33
ENDBRANCH  23  27
ENDBRANCH   1  23
TORSDOF 8
ENDMDL
MODEL 5
REMARK VINA RESULT:      -7.5      3.131      8.885
REMARK  Name = 
REMARK  9 active torsions:
REMARK  status: ('A' for Active; 'I' for Inactive)
REMARK    1  A    between atoms: C_1  and  N_2
REMARK    2  A    between atoms: C_6  and  C_7
REMARK    3  A    between atoms: C_7  and  N_8
REMARK    4  A    between atoms: N_8  and  C_9
REMARK    5  A    between atoms: N_8  and  C_28
REMARK    6  A    between atoms: C_13  and  N_14
REMARK    7  A    between atoms: C_15  and  C_17
REMARK    8  A    between atoms: C_19  and  N_20
REMARK    9  A    between atoms: C_22  and  C_23
REMARK                            x       y       z     vdW  Elec       q    Type
REMARK                         _______ _______ _______ _____ _____    ______ ____
ROOT
ATOM      1  C   UNL     1       4.845   4.528  18.573  0.00  0.00    +0.000 A 
ATOM      2  C   UNL     1       4.411   3.215  18.890  0.00  0.00    +0.000 A 
ATOM      3  C   UNL     1       3.236   3.009  19.608  0.00  0.00    +0.000 A 
ATOM      4  C   UNL     1       2.509   4.088  20.074  0.00  0.00    +0.000 A 
ATOM      5  C   UNL     1       2.971   5.402  19.902  0.00  0.00    +0.000 A 
ATOM      6  C   UNL     1       4.136   5.589  19.153  0.00  0.00    +0.000 A 
ENDROOT
BRANCH   5   7
ATOM      7  N   UNL     1       2.313   6.540  20.413  0.00  0.00    +0.000 N 
ATOM      8  C   UNL     1       1.988   7.677  19.685  0.00  0.00    +0.000 C 
ATOM      9  O   UNL     1       2.194   7.866  18.501  0.00  0.00    +0.000 OA
ATOM     10  H   UNL     1       1.995   6.508  21.380  0.00  0.00    +0.000 HD
BRANCH   8  11
ATOM     11  C   UNL     1       1.270   8.752  20.440  0.00  0.00    +0.000 A 
ATOM     12  C   UNL     1       0.724   8.467  21.672  0.00  0.00    +0.000 A 
ATOM     13  C   UNL     1       0.202   9.563  22.325  0.00  0.00    +0.000 A 
ATOM     14  N   UNL     1       0.239  10.794  21.816  0.00  0.00    +0.000 NA
ATOM     15  C   UNL     1       0.813  10.988  20.608  0.00  0.00    +0.000 A 
ATOM     16  N   UNL     1       1.292   9.972  19.865  0.00  0.00    +0.000 NA
BRANCH  13  17
ATOM     17  N   UNL     1      -0.272   9.443  23.628  0.00  0.00    +0.000 N 
ATOM     18  H   UNL     1      -1.137   9.931  23.806  0.00  0.00    +0.000 HD
ATOM     19  H   UNL     1       0.477   9.710  24.265  0.00  0.00    +0.000 HD
ENDBRANCH  13  17
BRANCH  15  20
ATOM     20  C   UNL     1       0.973  12.401  20.099  0.00  0.00    +0.000 C 
ATOM     21  C   UNL     1       2.017  13.316  20.707  0.00  0.00    +0.000 C 
ATOM     22  C   UNL     1       0.562  13.588  20.944  0.00  0.00    +0.000 C 
ENDBRANCH  15  20
ENDBRANCH   8  11
ENDBRANCH   5   7
BRANCH   1  23
ATOM     23  N   UNL     1       5.798   4.762  17.559  0.00  0.00    +0.000 N 
BRANCH  23  24
ATOM     24  C   UNL     1       7.187   5.043  17.987  0.00  0.00    +0.000 C 
ATOM     25  C   UNL     1       7.782   5.558  19.262  0.00  0.00    +0.000 C 
ATOM     26  C   UNL     1       7.430   6.538  18.203  0.00  0.00    +0.000 C 
ENDBRANCH  23  24
BRANCH  23  27
ATOM     27  C   UNL     1       5.350   5.067  16.187  0.00  0.00    +0.000 C 
BRANCH  27  33
ATOM     28  C   UNL     1       5.107   3.670  13.154  0.00  0.00    +0.000 C 
ATOM     29  N   UNL     1       6.195   4.363  13.784  0.00  0.00    +0.000 N 
ATOM     30  C   UNL     1       7.430   4.469  13.200  0.00  0.00    +0.000 A 
ATOM     31  N   UNL     1       8.153   5.337  13.861  0.00  0.00    +0.000 NA
ATOM     32  N   UNL     1       7.429   5.709  14.963  0.00  0.00    +0.000 NA
ATOM     33  C   UNL     1       6.276   5.042  14.984  0.00  0.00    +0.000 A 
ENDBRANCH  27  33
ENDBRANCH  23  27
ENDBRANCH   1  23
TORSDOF 8
ENDMDL
MODEL 6
REMARK VINA RESULT:      -7.5      1.554      3.370
REMARK  Name = 
REMARK  9 active torsions:
REMARK  status: ('A' for Active; 'I' for Inactive)
REMARK    1  A    between atoms: C_1  and  N_2
REMARK    2  A    between atoms: C_6  and  C_7
REMARK    3  A    between atoms: C_7  and  N_8
REMARK    4  A    between atoms: N_8  and  C_9
REMARK    5  A    between atoms: N_8  and  C_28
REMARK    6  A    between atoms: C_13  and  N_14
REMARK    7  A    between atoms: C_15  and  C_17
REMARK    8  A    between atoms: C_19  and  N_20
REMARK    9  A    between atoms: C_22  and  C_23
REMARK                            x       y       z     vdW  Elec       q    Type
REMARK                         _______ _______ _______ _____ _____    ______ ____
ROOT
ATOM      1  C   UNL     1      -0.356  10.133  20.315  0.00  0.00    +0.000 A 
ATOM      2  C   UNL     1      -0.575  10.259  21.710  0.00  0.00    +0.000 A 
ATOM      3  C   UNL     1       0.218   9.561  22.619  0.00  0.00    +0.000 A 
ATOM      4  C   UNL     1       1.189   8.689  22.167  0.00  0.00    +0.000 A 
ATOM      5  C   UNL     1       1.349   8.430  20.797  0.00  0.00    +0.000 A 
ATOM      6  C   UNL     1       0.565   9.162  19.900  0.00  0.00    +0.000 A 
ENDROOT
BRANCH   5   7
ATOM      7  N   UNL     1       2.272   7.500  20.275  0.00  0.00    +0.000 N 
ATOM      8  C   UNL     1       2.116   6.119  20.283  0.00  0.00    +0.000 C 
ATOM      9  O   UNL     1       1.163   5.497  20.713  0.00  0.00    +0.000 OA
ATOM     10  H   UNL     1       3.095   7.865  19.801  0.00  0.00    +0.000 HD
BRANCH   8  11
ATOM     11  C   UNL     1       3.223   5.334  19.651  0.00  0.00    +0.000 A 
ATOM     12  C   UNL     1       3.351   3.991  19.937  0.00  0.00    +0.000 A 
ATOM     13  C   UNL     1       4.322   3.349  19.201  0.00  0.00    +0.000 A 
ATOM     14  N   UNL     1       5.062   3.968  18.281  0.00  0.00    +0.000 NA
ATOM     15  C   UNL     1       4.856   5.283  18.050  0.00  0.00    +0.000 A 
ATOM     16  N   UNL     1       3.976   6.013  18.762  0.00  0.00    +0.000 NA
BRANCH  13  17
ATOM     17  N   UNL     1       4.478   1.969  19.298  0.00  0.00    +0.000 N 
ATOM     18  H   UNL     1       5.409   1.637  19.094  0.00  0.00    +0.000 HD
ATOM     19  H   UNL     1       3.761   1.527  18.726  0.00  0.00    +0.000 HD
ENDBRANCH  13  17
BRANCH  15  20
ATOM     20  C   UNL     1       5.601   5.946  16.915  0.00  0.00    +0.000 C 
ATOM     21  C   UNL     1       6.975   5.448  16.513  0.00  0.00    +0.000 C 
ATOM     22  C   UNL     1       6.834   6.786  17.174  0.00  0.00    +0.000 C 
ENDBRANCH  15  20
ENDBRANCH   8  11
ENDBRANCH   5   7
BRANCH   1  23
ATOM     23  N   UNL     1      -0.872  11.078  19.402  0.00  0.00    +0.000 N 
BRANCH  23  24
ATOM     24  C   UNL     1      -1.196  10.598  18.040  0.00  0.00    +0.000 C 
ATOM     25  C   UNL     1      -2.163  11.062  16.994  0.00  0.00    +0.000 C 
ATOM     26  C   UNL     1      -2.611  10.023  17.955  0.00  0.00    +0.000 C 
ENDBRANCH  23  24
BRANCH  23  27
ATOM     27  C   UNL     1      -0.746  12.519  19.689  0.00  0.00    +0.000 C 
BRANCH  27  33
ATOM     28  C   UNL     1       2.336  12.887  18.433  0.00  0.00    +0.000 C 
ATOM     29  N   UNL     1       1.809  13.191  19.733  0.00  0.00    +0.000 N 
ATOM     30  C   UNL     1       2.606  13.626  20.760  0.00  0.00    +0.000 A 
ATOM     31  N   UNL     1       1.856  14.050  21.745  0.00  0.00    +0.000 NA
ATOM     32  N   UNL     1       0.556  13.773  21.410  0.00  0.00    +0.000 NA
ATOM     33  C   UNL     1       0.523  13.152  20.232  0.00  0.00    +0.000 A 
ENDBRANCH  27  33
ENDBRANCH  23  27
ENDBRANCH   1  23
TORSDOF 8
ENDMDL
MODEL 7
REMARK VINA RESULT:      -7.5      2.180      3.406
REMARK  Name = 
REMARK  9 active torsions:
REMARK  status: ('A' for Active; 'I' for Inactive)
REMARK    1  A    between atoms: C_1  and  N_2
REMARK    2  A    between atoms: C_6  and  C_7
REMARK    3  A    between atoms: C_7  and  N_8
REMARK    4  A    between atoms: N_8  and  C_9
REMARK    5  A    between atoms: N_8  and  C_28
REMARK    6  A    between atoms: C_13  and  N_14
REMARK    7  A    between atoms: C_15  and  C_17
REMARK    8  A    between atoms: C_19  and  N_20
REMARK    9  A    between atoms: C_22  and  C_23
REMARK                            x       y       z     vdW  Elec       q    Type
REMARK                         _______ _______ _______ _____ _____    ______ ____
ROOT
ATOM      1  C   UNL     1      -1.622  11.438  18.866  0.00  0.00    +0.000 A 
ATOM      2  C   UNL     1      -1.132  12.589  19.535  0.00  0.00    +0.000 A 
ATOM      3  C   UNL     1       0.147  12.599  20.086  0.00  0.00    +0.000 A 
ATOM      4  C   UNL     1       0.932  11.463  20.040  0.00  0.00    +0.000 A 
ATOM      5  C   UNL     1       0.437  10.261  19.510  0.00  0.00    +0.000 A 
ATOM      6  C   UNL     1      -0.837  10.279  18.935  0.00  0.00    +0.000 A 
ENDROOT
BRANCH   5   7
ATOM      7  N   UNL     1       1.161   9.051  19.497  0.00  0.00    +0.000 N 
ATOM      8  C   UNL     1       1.950   8.595  18.449  0.00  0.00    +0.000 C 
ATOM      9  O   UNL     1       2.162   9.168  17.396  0.00  0.00    +0.000 OA
ATOM     10  H   UNL     1       1.156   8.487  20.345  0.00  0.00    +0.000 HD
BRANCH   8  11
ATOM     11  C   UNL     1       2.641   7.286  18.673  0.00  0.00    +0.000 A 
ATOM     12  C   UNL     1       2.320   6.530  19.779  0.00  0.00    +0.000 A 
ATOM     13  C   UNL     1       2.925   5.293  19.810  0.00  0.00    +0.000 A 
ATOM     14  N   UNL     1       3.736   4.858  18.846  0.00  0.00    +0.000 NA
ATOM     15  C   UNL     1       3.981   5.658  17.785  0.00  0.00    +0.000 A 
ATOM     16  N   UNL     1       3.489   6.909  17.694  0.00  0.00    +0.000 NA
BRANCH  13  17
ATOM     17  N   UNL     1       2.597   4.377  20.806  0.00  0.00    +0.000 N 
ATOM     18  H   UNL     1       2.399   3.446  20.471  0.00  0.00    +0.000 HD
ATOM     19  H   UNL     1       1.842   4.770  21.365  0.00  0.00    +0.000 HD
ENDBRANCH  13  17
BRANCH  15  20
ATOM     20  C   UNL     1       4.790   5.109  16.633  0.00  0.00    +0.000 C 
ATOM     21  C   UNL     1       6.275   5.399  16.541  0.00  0.00    +0.000 C 
ATOM     22  C   UNL     1       5.334   6.021  15.554  0.00  0.00    +0.000 C 
ENDBRANCH  15  20
ENDBRANCH   8  11
ENDBRANCH   5   7
BRANCH   1  23
ATOM     23  N   UNL     1      -2.731  11.510  17.996  0.00  0.00    +0.000 N 
BRANCH  23  24
ATOM     24  C   UNL     1      -2.514  11.118  16.586  0.00  0.00    +0.000 C 
ATOM     25  C   UNL     1      -3.444  10.853  15.442  0.00  0.00    +0.000 C 
ATOM     26  C   UNL     1      -3.033   9.709  16.295  0.00  0.00    +0.000 C 
ENDBRANCH  23  24
BRANCH  23  27
ATOM     27  C   UNL     1      -3.928  12.276  18.396  0.00  0.00    +0.000 C 
BRANCH  27  33
ATOM     28  C   UNL     1      -5.832  12.611  21.130  0.00  0.00    +0.000 C 
ATOM     29  N   UNL     1      -5.930  11.702  20.022  0.00  0.00    +0.000 N 
ATOM     30  C   UNL     1      -6.853  10.690  19.987  0.00  0.00    +0.000 A 
ATOM     31  N   UNL     1      -6.886  10.170  18.787  0.00  0.00    +0.000 NA
ATOM     32  N   UNL     1      -5.885  10.763  18.063  0.00  0.00    +0.000 NA
ATOM     33  C   UNL     1      -5.226  11.623  18.837  0.00  0.00    +0.000 A 
ENDBRANCH  27  33
ENDBRANCH  23  27
ENDBRANCH   1  23
TORSDOF 8
ENDMDL
MODEL 8
REMARK VINA RESULT:      -7.5      1.970      3.840
REMARK  Name = 
REMARK  9 active torsions:
REMARK  status: ('A' for Active; 'I' for Inactive)
REMARK    1  A    between atoms: C_1  and  N_2
REMARK    2  A    between atoms: C_6  and  C_7
REMARK    3  A    between atoms: C_7  and  N_8
REMARK    4  A    between atoms: N_8  and  C_9
REMARK    5  A    between atoms: N_8  and  C_28
REMARK    6  A    between atoms: C_13  and  N_14
REMARK    7  A    between atoms: C_15  and  C_17
REMARK    8  A    between atoms: C_19  and  N_20
REMARK    9  A    between atoms: C_22  and  C_23
REMARK                            x       y       z     vdW  Elec       q    Type
REMARK                         _______ _______ _______ _____ _____    ______ ____
ROOT
ATOM      1  C   UNL     1       0.256  10.390  20.031  0.00  0.00    +0.000 A 
ATOM      2  C   UNL     1      -0.326  10.304  21.321  0.00  0.00    +0.000 A 
ATOM      3  C   UNL     1       0.061   9.303  22.209  0.00  0.00    +0.000 A 
ATOM      4  C   UNL     1       0.975   8.344  21.819  0.00  0.00    +0.000 A 
ATOM      5  C   UNL     1       1.474   8.310  20.508  0.00  0.00    +0.000 A 
ATOM      6  C   UNL     1       1.098   9.340  19.641  0.00  0.00    +0.000 A 
ENDROOT
BRANCH   5   7
ATOM      7  N   UNL     1       2.354   7.318  20.028  0.00  0.00    +0.000 N 
ATOM      8  C   UNL     1       2.156   5.947  20.133  0.00  0.00    +0.000 C 
ATOM      9  O   UNL     1       1.196   5.386  20.627  0.00  0.00    +0.000 OA
ATOM     10  H   UNL     1       3.175   7.624  19.509  0.00  0.00    +0.000 HD
BRANCH   8  11
ATOM     11  C   UNL     1       3.221   5.085  19.528  0.00  0.00    +0.000 A 
ATOM     12  C   UNL     1       3.586   3.915  20.159  0.00  0.00    +0.000 A 
ATOM     13  C   UNL     1       4.479   3.146  19.445  0.00  0.00    +0.000 A 
ATOM     14  N   UNL     1       4.937   3.494  18.244  0.00  0.00    +0.000 NA
ATOM     15  C   UNL     1       4.510   4.650  17.689  0.00  0.00    +0.000 A 
ATOM     16  N   UNL     1       3.689   5.501  18.334  0.00  0.00    +0.000 NA
BRANCH  13  17
ATOM     17  N   UNL     1       4.841   1.883  19.906  0.00  0.00    +0.000 N 
ATOM     18  H   UNL     1       5.832   1.757  20.050  0.00  0.00    +0.000 HD
ATOM     19  H   UNL     1       4.436   1.188  19.281  0.00  0.00    +0.000 HD
ENDBRANCH  13  17
BRANCH  15  20
ATOM     20  C   UNL     1       4.926   4.973  16.273  0.00  0.00    +0.000 C 
ATOM     21  C   UNL     1       6.338   5.441  15.982  0.00  0.00    +0.000 C 
ATOM     22  C   UNL     1       5.194   6.399  15.842  0.00  0.00    +0.000 C 
ENDBRANCH  15  20
ENDBRANCH   8  11
ENDBRANCH   5   7
BRANCH   1  23
ATOM     23  N   UNL     1       0.170  11.571  19.263  0.00  0.00    +0.000 N 
BRANCH  23  24
ATOM     24  C   UNL     1      -1.141  11.891  18.655  0.00  0.00    +0.000 C 
ATOM     25  C   UNL     1      -2.489  11.242  18.728  0.00  0.00    +0.000 C 
ATOM     26  C   UNL     1      -1.572  10.839  17.632  0.00  0.00    +0.000 C 
ENDBRANCH  23  24
BRANCH  23  27
ATOM     27  C   UNL     1       1.403  12.238  18.802  0.00  0.00    +0.000 C 
BRANCH  27  33
ATOM     28  C   UNL     1       3.339  14.881  18.109  0.00  0.00    +0.000 C 
ATOM     29  N   UNL     1       3.092  14.196  19.347  0.00  0.00    +0.000 N 
ATOM     30  C   UNL     1       3.760  14.510  20.502  0.00  0.00    +0.000 A 
ATOM     31  N   UNL     1       3.187  13.912  21.514  0.00  0.00    +0.000 NA
ATOM     32  N   UNL     1       2.212  13.097  21.002  0.00  0.00    +0.000 NA
ATOM     33  C   UNL     1       2.215  13.181  19.673  0.00  0.00    +0.000 A 
ENDBRANCH  27  33
ENDBRANCH  23  27
ENDBRANCH   1  23
TORSDOF 8
ENDMDL
MODEL 9
REMARK VINA RESULT:      -7.5      1.790      2.982
REMARK  Name = 
REMARK  9 active torsions:
REMARK  status: ('A' for Active; 'I' for Inactive)
REMARK    1  A    between atoms: C_1  and  N_2
REMARK    2  A    between atoms: C_6  and  C_7
REMARK    3  A    between atoms: C_7  and  N_8
REMARK    4  A    between atoms: N_8  and  C_9
REMARK    5  A    between atoms: N_8  and  C_28
REMARK    6  A    between atoms: C_13  and  N_14
REMARK    7  A    between atoms: C_15  and  C_17
REMARK    8  A    between atoms: C_19  and  N_20
REMARK    9  A    between atoms: C_22  and  C_23
REMARK                            x       y       z     vdW  Elec       q    Type
REMARK                         _______ _______ _______ _____ _____    ______ ____
ROOT
ATOM      1  C   UNL     1      -0.605  10.771  20.341  0.00  0.00    +0.000 A 
ATOM      2  C   UNL     1      -0.657  10.776  21.758  0.00  0.00    +0.000 A 
ATOM      3  C   UNL     1       0.158   9.925  22.502  0.00  0.00    +0.000 A 
ATOM      4  C   UNL     1       0.985   9.021  21.862  0.00  0.00    +0.000 A 
ATOM      5  C   UNL     1       0.968   8.887  20.465  0.00  0.00    +0.000 A 
ATOM      6  C   UNL     1       0.167   9.770  19.735  0.00  0.00    +0.000 A 
ENDROOT
BRANCH   5   7
ATOM      7  N   UNL     1       1.734   7.937  19.758  0.00  0.00    +0.000 N 
ATOM      8  C   UNL     1       2.324   8.141  18.517  0.00  0.00    +0.000 C 
ATOM      9  O   UNL     1       2.297   9.164  17.858  0.00  0.00    +0.000 OA
ATOM     10  H   UNL     1       1.923   7.047  20.215  0.00  0.00    +0.000 HD
BRANCH   8  11
ATOM     11  C   UNL     1       3.110   6.990  17.970  0.00  0.00    +0.000 A 
ATOM     12  C   UNL     1       4.226   7.235  17.201  0.00  0.00    +0.000 A 
ATOM     13  C   UNL     1       4.937   6.104  16.863  0.00  0.00    +0.000 A 
ATOM     14  N   UNL     1       4.586   4.882  17.261  0.00  0.00    +0.000 NA
ATOM     15  C   UNL     1       3.487   4.734  18.033  0.00  0.00    +0.000 A 
ATOM     16  N   UNL     1       2.690   5.769  18.361  0.00  0.00    +0.000 NA
BRANCH  13  17
ATOM     17  N   UNL     1       6.152   6.214  16.191  0.00  0.00    +0.000 N 
ATOM     18  H   UNL     1       6.482   5.354  15.778  0.00  0.00    +0.000 HD
ATOM     19  H   UNL     1       6.828   6.640  16.822  0.00  0.00    +0.000 HD
ENDBRANCH  13  17
BRANCH  15  20
ATOM     20  C   UNL     1       3.171   3.366  18.592  0.00  0.00    +0.000 C 
ATOM     21  C   UNL     1       2.023   2.558  18.022  0.00  0.00    +0.000 C 
ATOM     22  C   UNL     1       1.918   3.125  19.406  0.00  0.00    +0.000 C 
ENDBRANCH  15  20
ENDBRANCH   8  11
ENDBRANCH   5   7
BRANCH   1  23
ATOM     23  N   UNL     1      -1.123  11.843  19.583  0.00  0.00    +0.000 N 
BRANCH  23  24
ATOM     24  C   UNL     1      -0.404  13.135  19.655  0.00  0.00    +0.000 C 
ATOM     25  C   UNL     1      -0.332  14.319  18.741  0.00  0.00    +0.000 C 
ATOM     26  C   UNL     1       0.684  13.247  18.585  0.00  0.00    +0.000 C 
ENDBRANCH  23  24
BRANCH  23  27
ATOM     27  C   UNL     1      -2.497  11.768  19.050  0.00  0.00    +0.000 C 
BRANCH  27  33
ATOM     28  C   UNL     1      -5.208  12.106  17.114  0.00  0.00    +0.000 C 
ATOM     29  N   UNL     1      -3.986  11.382  16.902  0.00  0.00    +0.000 N 
ATOM     30  C   UNL     1      -3.795  10.578  15.809  0.00  0.00    +0.000 A 
ATOM     31  N   UNL     1      -2.535  10.232  15.736  0.00  0.00    +0.000 NA
ATOM     32  N   UNL     1      -1.920  10.711  16.863  0.00  0.00    +0.000 NA
ATOM     33  C   UNL     1      -2.817  11.323  17.634  0.00  0.00    +0.000 A 
ENDBRANCH  27  33
ENDBRANCH  23  27
ENDBRANCH   1  23
TORSDOF 8
ENDMDL
