MODEL 1
REMARK VINA RESULT:      -8.6      0.000      0.000
REMARK  Name = 
REMARK  9 active torsions:
REMARK  status: ('A' for Active; 'I' for Inactive)
REMARK    1  A    between atoms: C_1  and  C_2
REMARK    2  A    between atoms: C_4  and  S_5
REMARK    3  A    between atoms: S_5  and  C_6
REMARK    4  A    between atoms: C_6  and  C_7
REMARK    5  A    between atoms: N_9  and  C_10
REMARK    6  A    between atoms: C_14  and  C_15
REMARK    7  A    between atoms: N_17  and  C_18
REMARK    8  A    between atoms: C_23  and  C_24
REMARK    9  A    between atoms: C_24  and  C_25
REMARK                            x       y       z     vdW  Elec       q    Type
REMARK                         _______ _______ _______ _____ _____    ______ ____
ROOT
ATOM      1  C   UNL     1       2.932   3.588  18.317  0.00  0.00    +0.000 C 
ATOM      2  O   UNL     1       3.135   2.458  17.875  0.00  0.00    +0.000 OA
ATOM      3  N   UNL     1       3.829   4.650  18.240  0.00  0.00    +0.000 N 
ATOM      4  H   UNL     1       3.574   5.475  18.774  0.00  0.00    +0.000 HD
ENDROOT
BRANCH   3   5
ATOM      5  C   UNL     1       5.129   4.629  17.683  0.00  0.00    +0.000 A 
ATOM      6  C   UNL     1       6.282   4.671  18.467  0.00  0.00    +0.000 A 
ATOM      7  C   UNL     1       7.548   4.696  17.882  0.00  0.00    +0.000 A 
ATOM      8  C   UNL     1       7.683   4.671  16.495  0.00  0.00    +0.000 A 
ATOM      9  C   UNL     1       6.543   4.602  15.688  0.00  0.00    +0.000 A 
ATOM     10  C   UNL     1       5.268   4.562  16.287  0.00  0.00    +0.000 A 
BRANCH   9  11
ATOM     11  C   UNL     1       6.653   4.516  14.200  0.00  0.00    +0.000 C 
ATOM     12  O   UNL     1       7.394   5.290  13.603  0.00  0.00    +0.000 OA
ATOM     13  N   UNL     1       5.899   3.534  13.572  0.00  0.00    +0.000 N 
ATOM     14  H   UNL     1       5.444   2.820  14.127  0.00  0.00    +0.000 HD
BRANCH  13  15
ATOM     15  C   UNL     1       5.878   3.391  12.148  0.00  0.00    +0.000 C 
ATOM     16  C   UNL     1       4.576   3.108  11.445  0.00  0.00    +0.000 C 
ATOM     17  C   UNL     1       5.642   2.055  11.491  0.00  0.00    +0.000 C 
ENDBRANCH  13  15
ENDBRANCH   9  11
ENDBRANCH   3   5
BRANCH   1  18
ATOM     18  C   UNL     1       1.586   3.904  18.981  0.00  0.00    +0.000 C 
BRANCH  18  19
ATOM     19  S   UNL     1       1.825   4.684  20.593  0.00  0.00    +0.000 S 
BRANCH  19  23
ATOM     20  C   UNL     1       1.020   9.576  21.747  0.00  0.00    +0.000 C 
ATOM     21  C   UNL     1       1.391   8.467  20.845  0.00  0.00    +0.000 A 
ATOM     22  N   UNL     1       1.405   7.174  21.288  0.00  0.00    +0.000 N 
ATOM     23  C   UNL     1       1.764   6.366  20.257  0.00  0.00    +0.000 A 
ATOM     24  N   UNL     1       1.992   7.042  19.166  0.00  0.00    +0.000 NA
ATOM     25  C   UNL     1       1.781   8.385  19.515  0.00  0.00    +0.000 A 
ATOM     26  H   UNL     1       1.175   6.849  22.220  0.00  0.00    +0.000 HD
BRANCH  25  27
ATOM     27  C   UNL     1       1.930   9.473  18.495  0.00  0.00    +0.000 C 
BRANCH  27  28
ATOM     28  C   UNL     1       0.592  10.167  18.352  0.00  0.00    +0.000 A 
ATOM     29  C   UNL     1      -0.516   9.500  17.805  0.00  0.00    +0.000 A 
ATOM     30  C   UNL     1      -1.746  10.146  17.663  0.00  0.00    +0.000 A 
ATOM     31  C   UNL     1      -1.899  11.459  18.100  0.00  0.00    +0.000 A 
ATOM     32  C   UNL     1      -0.826  12.120  18.697  0.00  0.00    +0.000 A 
ATOM     33  C   UNL     1       0.411  11.479  18.824  0.00  0.00    +0.000 A 
ENDBRANCH  27  28
ENDBRANCH  25  27
ENDBRANCH  19  23
ENDBRANCH  18  19
ENDBRANCH   1  18
TORSDOF 8
ENDMDL
MODEL 2
REMARK VINA RESULT:      -8.5      2.629      9.282
REMARK  Name = 
REMARK  9 active torsions:
REMARK  status: ('A' for Active; 'I' for Inactive)
REMARK    1  A    between atoms: C_1  and  C_2
REMARK    2  A    between atoms: C_4  and  S_5
REMARK    3  A    between atoms: S_5  and  C_6
REMARK    4  A    between atoms: C_6  and  C_7
REMARK    5  A    between atoms: N_9  and  C_10
REMARK    6  A    between atoms: C_14  and  C_15
REMARK    7  A    between atoms: N_17  and  C_18
REMARK    8  A    between atoms: C_23  and  C_24
REMARK    9  A    between atoms: C_24  and  C_25
REMARK                            x       y       z     vdW  Elec       q    Type
REMARK                         _______ _______ _______ _____ _____    ______ ____
ROOT
ATOM      1  C   UNL     1       2.081   4.590  19.998  0.00  0.00    +0.000 C 
ATOM      2  O   UNL     1       1.105   4.450  19.263  0.00  0.00    +0.000 OA
ATOM      3  N   UNL     1       2.549   5.810  20.482  0.00  0.00    +0.000 N 
ATOM      4  H   UNL     1       3.445   5.774  20.959  0.00  0.00    +0.000 HD
ENDROOT
BRANCH   3   5
ATOM      5  C   UNL     1       2.027   7.095  20.203  0.00  0.00    +0.000 A 
ATOM      6  C   UNL     1       2.078   7.666  18.932  0.00  0.00    +0.000 A 
ATOM      7  C   UNL     1       1.595   8.954  18.703  0.00  0.00    +0.000 A 
ATOM      8  C   UNL     1       1.044   9.695  19.747  0.00  0.00    +0.000 A 
ATOM      9  C   UNL     1       0.956   9.134  21.025  0.00  0.00    +0.000 A 
ATOM     10  C   UNL     1       1.433   7.826  21.245  0.00  0.00    +0.000 A 
BRANCH   9  11
ATOM     11  C   UNL     1       0.319   9.878  22.154  0.00  0.00    +0.000 C 
ATOM     12  O   UNL     1       0.770   9.758  23.288  0.00  0.00    +0.000 OA
ATOM     13  N   UNL     1      -0.764  10.687  21.838  0.00  0.00    +0.000 N 
ATOM     14  H   UNL     1      -0.980  10.879  20.868  0.00  0.00    +0.000 HD
BRANCH  13  15
ATOM     15  C   UNL     1      -1.491  11.403  22.841  0.00  0.00    +0.000 C 
ATOM     16  C   UNL     1      -2.533  12.411  22.433  0.00  0.00    +0.000 C 
ATOM     17  C   UNL     1      -1.264  12.873  23.085  0.00  0.00    +0.000 C 
ENDBRANCH  13  15
ENDBRANCH   9  11
ENDBRANCH   3   5
BRANCH   1  18
ATOM     18  C   UNL     1       2.851   3.351  20.469  0.00  0.00    +0.000 C 
BRANCH  18  19
ATOM     19  S   UNL     1       3.389   2.349  19.065  0.00  0.00    +0.000 S 
BRANCH  19  23
ATOM     20  C   UNL     1       7.681   4.825  17.901  0.00  0.00    +0.000 C 
ATOM     21  C   UNL     1       6.266   4.454  17.702  0.00  0.00    +0.000 A 
ATOM     22  N   UNL     1       5.648   3.563  18.535  0.00  0.00    +0.000 N 
ATOM     23  C   UNL     1       4.359   3.418  18.136  0.00  0.00    +0.000 A 
ATOM     24  N   UNL     1       4.087   4.150  17.092  0.00  0.00    +0.000 NA
ATOM     25  C   UNL     1       5.288   4.806  16.781  0.00  0.00    +0.000 A 
ATOM     26  H   UNL     1       6.060   3.090  19.331  0.00  0.00    +0.000 HD
BRANCH  25  27
ATOM     27  C   UNL     1       5.360   5.768  15.634  0.00  0.00    +0.000 C 
BRANCH  27  28
ATOM     28  C   UNL     1       5.903   5.024  14.432  0.00  0.00    +0.000 A 
ATOM     29  C   UNL     1       5.114   4.091  13.740  0.00  0.00    +0.000 A 
ATOM     30  C   UNL     1       5.621   3.397  12.639  0.00  0.00    +0.000 A 
ATOM     31  C   UNL     1       6.915   3.651  12.190  0.00  0.00    +0.000 A 
ATOM     32  C   UNL     1       7.694   4.613  12.830  0.00  0.00    +0.000 A 
ATOM     33  C   UNL     1       7.192   5.297  13.943  0.00  0.00    +0.000 A 
ENDBRANCH  27  28
ENDBRANCH  25  27
ENDBRANCH  19  23
ENDBRANCH  18  19
ENDBRANCH   1  18
TORSDOF 8
ENDMDL
MODEL 3
REMARK VINA RESULT:      -8.2      2.504      8.883
REMARK  Name = 
REMARK  9 active torsions:
REMARK  status: ('A' for Active; 'I' for Inactive)
REMARK    1  A    between atoms: C_1  and  C_2
REMARK    2  A    between atoms: C_4  and  S_5
REMARK    3  A    between atoms: S_5  and  C_6
REMARK    4  A    between atoms: C_6  and  C_7
REMARK    5  A    between atoms: N_9  and  C_10
REMARK    6  A    between atoms: C_14  and  C_15
REMARK    7  A    between atoms: N_17  and  C_18
REMARK    8  A    between atoms: C_23  and  C_24
REMARK    9  A    between atoms: C_24  and  C_25
REMARK                            x       y       z     vdW  Elec       q    Type
REMARK                         _______ _______ _______ _____ _____    ______ ____
ROOT
ATOM      1  C   UNL     1       2.097   4.602  20.043  0.00  0.00    +0.000 C 
ATOM      2  O   UNL     1       1.077   4.388  19.389  0.00  0.00    +0.000 OA
ATOM      3  N   UNL     1       2.686   5.851  20.219  0.00  0.00    +0.000 N 
ATOM      4  H   UNL     1       3.598   5.843  20.665  0.00  0.00    +0.000 HD
ENDROOT
BRANCH   3   5
ATOM      5  C   UNL     1       2.259   7.081  19.667  0.00  0.00    +0.000 A 
ATOM      6  C   UNL     1       2.499   7.432  18.339  0.00  0.00    +0.000 A 
ATOM      7  C   UNL     1       2.104   8.674  17.841  0.00  0.00    +0.000 A 
ATOM      8  C   UNL     1       1.451   9.587  18.665  0.00  0.00    +0.000 A 
ATOM      9  C   UNL     1       1.174   9.249  19.994  0.00  0.00    +0.000 A 
ATOM     10  C   UNL     1       1.563   7.987  20.486  0.00  0.00    +0.000 A 
BRANCH   9  11
ATOM     11  C   UNL     1       0.425  10.182  20.889  0.00  0.00    +0.000 C 
ATOM     12  O   UNL     1      -0.088   9.752  21.917  0.00  0.00    +0.000 OA
ATOM     13  N   UNL     1       0.364  11.512  20.498  0.00  0.00    +0.000 N 
ATOM     14  H   UNL     1       0.947  11.838  19.737  0.00  0.00    +0.000 HD
BRANCH  13  15
ATOM     15  C   UNL     1      -0.372  12.488  21.243  0.00  0.00    +0.000 C 
ATOM     16  C   UNL     1      -0.719  13.808  20.607  0.00  0.00    +0.000 C 
ATOM     17  C   UNL     1       0.272  13.760  21.732  0.00  0.00    +0.000 C 
ENDBRANCH  13  15
ENDBRANCH   9  11
ENDBRANCH   3   5
BRANCH   1  18
ATOM     18  C   UNL     1       2.784   3.436  20.764  0.00  0.00    +0.000 C 
BRANCH  18  19
ATOM     19  S   UNL     1       3.646   2.366  19.592  0.00  0.00    +0.000 S 
BRANCH  19  23
ATOM     20  C   UNL     1       7.730   4.953  17.998  0.00  0.00    +0.000 C 
ATOM     21  C   UNL     1       6.312   4.543  17.944  0.00  0.00    +0.000 A 
ATOM     22  N   UNL     1       5.807   3.638  18.835  0.00  0.00    +0.000 N 
ATOM     23  C   UNL     1       4.488   3.458  18.569  0.00  0.00    +0.000 A 
ATOM     24  N   UNL     1       4.092   4.180  17.558  0.00  0.00    +0.000 NA
ATOM     25  C   UNL     1       5.237   4.867  17.128  0.00  0.00    +0.000 A 
ATOM     26  H   UNL     1       6.310   3.179  19.585  0.00  0.00    +0.000 HD
BRANCH  25  27
ATOM     27  C   UNL     1       5.166   5.828  15.979  0.00  0.00    +0.000 C 
BRANCH  27  28
ATOM     28  C   UNL     1       5.792   5.161  14.772  0.00  0.00    +0.000 A 
ATOM     29  C   UNL     1       7.095   5.484  14.359  0.00  0.00    +0.000 A 
ATOM     30  C   UNL     1       7.665   4.877  13.238  0.00  0.00    +0.000 A 
ATOM     31  C   UNL     1       6.955   3.908  12.533  0.00  0.00    +0.000 A 
ATOM     32  C   UNL     1       5.683   3.533  12.961  0.00  0.00    +0.000 A 
ATOM     33  C   UNL     1       5.104   4.154  14.073  0.00  0.00    +0.000 A 
ENDBRANCH  27  28
ENDBRANCH  25  27
ENDBRANCH  19  23
ENDBRANCH  18  19
ENDBRANCH   1  18
TORSDOF 8
ENDMDL
MODEL 4
REMARK VINA RESULT:      -7.8      2.898      8.920
REMARK  Name = 
REMARK  9 active torsions:
REMARK  status: ('A' for Active; 'I' for Inactive)
REMARK    1  A    between atoms: C_1  and  C_2
REMARK    2  A    between atoms: C_4  and  S_5
REMARK    3  A    between atoms: S_5  and  C_6
REMARK    4  A    between atoms: C_6  and  C_7
REMARK    5  A    between atoms: N_9  and  C_10
REMARK    6  A    between atoms: C_14  and  C_15
REMARK    7  A    between atoms: N_17  and  C_18
REMARK    8  A    between atoms: C_23  and  C_24
REMARK    9  A    between atoms: C_24  and  C_25
REMARK                            x       y       z     vdW  Elec       q    Type
REMARK                         _______ _______ _______ _____ _____    ______ ____
ROOT
ATOM      1  C   UNL     1       2.092   4.731  20.166  0.00  0.00    +0.000 C 
ATOM      2  O   UNL     1       0.909   4.527  19.896  0.00  0.00    +0.000 OA
ATOM      3  N   UNL     1       2.694   5.985  20.226  0.00  0.00    +0.000 N 
ATOM      4  H   UNL     1       3.705   5.979  20.321  0.00  0.00    +0.000 HD
ENDROOT
BRANCH   3   5
ATOM      5  C   UNL     1       2.087   7.236  19.963  0.00  0.00    +0.000 A 
ATOM      6  C   UNL     1       2.191   7.875  18.728  0.00  0.00    +0.000 A 
ATOM      7  C   UNL     1       1.618   9.130  18.518  0.00  0.00    +0.000 A 
ATOM      8  C   UNL     1       0.922   9.766  19.543  0.00  0.00    +0.000 A 
ATOM      9  C   UNL     1       0.780   9.134  20.783  0.00  0.00    +0.000 A 
ATOM     10  C   UNL     1       1.349   7.860  20.983  0.00  0.00    +0.000 A 
BRANCH   9  11
ATOM     11  C   UNL     1      -0.008   9.761  21.885  0.00  0.00    +0.000 C 
ATOM     12  O   UNL     1      -0.503   9.052  22.755  0.00  0.00    +0.000 OA
ATOM     13  N   UNL     1      -0.126  11.145  21.862  0.00  0.00    +0.000 N 
ATOM     14  H   UNL     1       0.443  11.685  21.223  0.00  0.00    +0.000 HD
BRANCH  13  15
ATOM     15  C   UNL     1      -0.903  11.854  22.832  0.00  0.00    +0.000 C 
ATOM     16  C   UNL     1      -2.396  11.965  22.658  0.00  0.00    +0.000 C 
ATOM     17  C   UNL     1      -1.536  13.186  22.517  0.00  0.00    +0.000 C 
ENDBRANCH  13  15
ENDBRANCH   9  11
ENDBRANCH   3   5
BRANCH   1  18
ATOM     18  C   UNL     1       3.001   3.542  20.501  0.00  0.00    +0.000 C 
BRANCH  18  19
ATOM     19  S   UNL     1       3.296   2.518  19.042  0.00  0.00    +0.000 S 
BRANCH  19  23
ATOM     20  C   UNL     1       6.040   3.654  14.908  0.00  0.00    +0.000 C 
ATOM     21  C   UNL     1       5.258   3.985  16.116  0.00  0.00    +0.000 A 
ATOM     22  N   UNL     1       4.700   3.003  16.885  0.00  0.00    +0.000 N 
ATOM     23  C   UNL     1       4.057   3.583  17.931  0.00  0.00    +0.000 A 
ATOM     24  N   UNL     1       4.150   4.883  17.899  0.00  0.00    +0.000 NA
ATOM     25  C   UNL     1       4.893   5.169  16.744  0.00  0.00    +0.000 A 
ATOM     26  H   UNL     1       4.756   2.003  16.728  0.00  0.00    +0.000 HD
BRANCH  25  27
ATOM     27  C   UNL     1       5.229   6.584  16.381  0.00  0.00    +0.000 C 
BRANCH  27  28
ATOM     28  C   UNL     1       6.411   7.016  17.223  0.00  0.00    +0.000 A 
ATOM     29  C   UNL     1       6.911   8.327  17.153  0.00  0.00    +0.000 A 
ATOM     30  C   UNL     1       8.009   8.719  17.921  0.00  0.00    +0.000 A 
ATOM     31  C   UNL     1       8.602   7.818  18.802  0.00  0.00    +0.000 A 
ATOM     32  C   UNL     1       8.085   6.530  18.927  0.00  0.00    +0.000 A 
ATOM     33  C   UNL     1       6.996   6.131  18.144  0.00  0.00    +0.000 A 
ENDBRANCH  27  28
ENDBRANCH  25  27
ENDBRANCH  19  23
ENDBRANCH  18  19
ENDBRANCH   1  18
TORSDOF 8
ENDMDL
MODEL 5
REMARK VINA RESULT:      -7.7      4.337      9.355
REMARK  Name = 
REMARK  9 active torsions:
REMARK  status: ('A' for Active; 'I' for Inactive)
REMARK    1  A    between atoms: C_1  and  C_2
REMARK    2  A    between atoms: C_4  and  S_5
REMARK    3  A    between atoms: S_5  and  C_6
REMARK    4  A    between atoms: C_6  and  C_7
REMARK    5  A    between atoms: N_9  and  C_10
REMARK    6  A    between atoms: C_14  and  C_15
REMARK    7  A    between atoms: N_17  and  C_18
REMARK    8  A    between atoms: C_23  and  C_24
REMARK    9  A    between atoms: C_24  and  C_25
REMARK                            x       y       z     vdW  Elec       q    Type
REMARK                         _______ _______ _______ _____ _____    ______ ____
ROOT
ATOM      1  C   UNL     1       0.063  10.273  18.752  0.00  0.00    +0.000 C 
ATOM      2  O   UNL     1       0.003  11.468  19.041  0.00  0.00    +0.000 OA
ATOM      3  N   UNL     1      -0.832   9.606  17.920  0.00  0.00    +0.000 N 
ATOM      4  H   UNL     1      -0.732   8.596  17.893  0.00  0.00    +0.000 HD
ENDROOT
BRANCH   3   5
ATOM      5  C   UNL     1      -1.976  10.149  17.289  0.00  0.00    +0.000 A 
ATOM      6  C   UNL     1      -2.869  10.992  17.950  0.00  0.00    +0.000 A 
ATOM      7  C   UNL     1      -4.012  11.472  17.309  0.00  0.00    +0.000 A 
ATOM      8  C   UNL     1      -4.278  11.121  15.987  0.00  0.00    +0.000 A 
ATOM      9  C   UNL     1      -3.383  10.299  15.294  0.00  0.00    +0.000 A 
ATOM     10  C   UNL     1      -2.223   9.830  15.943  0.00  0.00    +0.000 A 
BRANCH   9  11
ATOM     11  C   UNL     1      -3.607   9.950  13.859  0.00  0.00    +0.000 C 
ATOM     12  O   UNL     1      -2.644   9.746  13.128  0.00  0.00    +0.000 OA
ATOM     13  N   UNL     1      -4.926   9.864  13.434  0.00  0.00    +0.000 N 
ATOM     14  H   UNL     1      -5.674   9.872  14.116  0.00  0.00    +0.000 HD
BRANCH  13  15
ATOM     15  C   UNL     1      -5.266   9.592  12.070  0.00  0.00    +0.000 C 
ATOM     16  C   UNL     1      -6.536  10.158  11.489  0.00  0.00    +0.000 C 
ATOM     17  C   UNL     1      -6.410   8.680  11.707  0.00  0.00    +0.000 C 
ENDBRANCH  13  15
ENDBRANCH   9  11
ENDBRANCH   3   5
BRANCH   1  18
ATOM     18  C   UNL     1       1.217   9.425  19.301  0.00  0.00    +0.000 C 
BRANCH  18  19
ATOM     19  S   UNL     1       2.226   8.757  17.960  0.00  0.00    +0.000 S 
BRANCH  19  23
ATOM     20  C   UNL     1       2.057   4.635  20.942  0.00  0.00    +0.000 C 
ATOM     21  C   UNL     1       2.656   5.504  19.909  0.00  0.00    +0.000 A 
ATOM     22  N   UNL     1       2.040   6.661  19.519  0.00  0.00    +0.000 N 
ATOM     23  C   UNL     1       2.809   7.265  18.577  0.00  0.00    +0.000 A 
ATOM     24  N   UNL     1       3.888   6.580  18.316  0.00  0.00    +0.000 NA
ATOM     25  C   UNL     1       3.808   5.444  19.136  0.00  0.00    +0.000 A 
ATOM     26  H   UNL     1       1.165   7.032  19.871  0.00  0.00    +0.000 HD
BRANCH  25  27
ATOM     27  C   UNL     1       4.900   4.417  19.129  0.00  0.00    +0.000 C 
BRANCH  27  28
ATOM     28  C   UNL     1       5.510   4.392  17.744  0.00  0.00    +0.000 A 
ATOM     29  C   UNL     1       4.734   4.085  16.615  0.00  0.00    +0.000 A 
ATOM     30  C   UNL     1       5.302   4.051  15.339  0.00  0.00    +0.000 A 
ATOM     31  C   UNL     1       6.649   4.360  15.167  0.00  0.00    +0.000 A 
ATOM     32  C   UNL     1       7.422   4.722  16.268  0.00  0.00    +0.000 A 
ATOM     33  C   UNL     1       6.858   4.739  17.548  0.00  0.00    +0.000 A 
ENDBRANCH  27  28
ENDBRANCH  25  27
ENDBRANCH  19  23
ENDBRANCH  18  19
ENDBRANCH   1  18
TORSDOF 8
ENDMDL
MODEL 6
REMARK VINA RESULT:      -7.5      6.719      8.683
REMARK  Name = 
REMARK  9 active torsions:
REMARK  status: ('A' for Active; 'I' for Inactive)
REMARK    1  A    between atoms: C_1  and  C_2
REMARK    2  A    between atoms: C_4  and  S_5
REMARK    3  A    between atoms: S_5  and  C_6
REMARK    4  A    between atoms: C_6  and  C_7
REMARK    5  A    between atoms: N_9  and  C_10
REMARK    6  A    between atoms: C_14  and  C_15
REMARK    7  A    between atoms: N_17  and  C_18
REMARK    8  A    between atoms: C_23  and  C_24
REMARK    9  A    between atoms: C_24  and  C_25
REMARK                            x       y       z     vdW  Elec       q    Type
REMARK                         _______ _______ _______ _____ _____    ______ ____
ROOT
ATOM      1  C   UNL     1       7.727   7.898  17.761  0.00  0.00    +0.000 C 
ATOM      2  O   UNL     1       8.319   7.190  18.574  0.00  0.00    +0.000 OA
ATOM      3  N   UNL     1       6.739   7.455  16.884  0.00  0.00    +0.000 N 
ATOM      4  H   UNL     1       6.449   8.126  16.181  0.00  0.00    +0.000 HD
ENDROOT
BRANCH   3   5
ATOM      5  C   UNL     1       6.261   6.132  16.738  0.00  0.00    +0.000 A 
ATOM      6  C   UNL     1       6.404   5.408  15.554  0.00  0.00    +0.000 A 
ATOM      7  C   UNL     1       5.878   4.122  15.431  0.00  0.00    +0.000 A 
ATOM      8  C   UNL     1       5.203   3.532  16.497  0.00  0.00    +0.000 A 
ATOM      9  C   UNL     1       5.070   4.226  17.704  0.00  0.00    +0.000 A 
ATOM     10  C   UNL     1       5.616   5.519  17.827  0.00  0.00    +0.000 A 
BRANCH   9  11
ATOM     11  C   UNL     1       4.402   3.601  18.885  0.00  0.00    +0.000 C 
ATOM     12  O   UNL     1       5.070   2.953  19.685  0.00  0.00    +0.000 OA
ATOM     13  N   UNL     1       3.036   3.809  19.015  0.00  0.00    +0.000 N 
ATOM     14  H   UNL     1       2.574   4.490  18.425  0.00  0.00    +0.000 HD
BRANCH  13  15
ATOM     15  C   UNL     1       2.277   3.215  20.073  0.00  0.00    +0.000 C 
ATOM     16  C   UNL     1       0.931   3.784  20.438  0.00  0.00    +0.000 C 
ATOM     17  C   UNL     1       2.079   3.914  21.394  0.00  0.00    +0.000 C 
ENDBRANCH  13  15
ENDBRANCH   9  11
ENDBRANCH   3   5
BRANCH   1  18
ATOM     18  C   UNL     1       8.046   9.396  17.698  0.00  0.00    +0.000 C 
BRANCH  18  19
ATOM     19  S   UNL     1       9.102   9.894  19.076  0.00  0.00    +0.000 S 
BRANCH  19  23
ATOM     20  C   UNL     1      11.897  13.356  16.604  0.00  0.00    +0.000 C 
ATOM     21  C   UNL     1      10.853  12.924  17.555  0.00  0.00    +0.000 A 
ATOM     22  N   UNL     1      10.576  11.599  17.742  0.00  0.00    +0.000 N 
ATOM     23  C   UNL     1       9.594  11.488  18.673  0.00  0.00    +0.000 A 
ATOM     24  N   UNL     1       9.203  12.653  19.109  0.00  0.00    +0.000 NA
ATOM     25  C   UNL     1       9.975  13.587  18.402  0.00  0.00    +0.000 A 
ATOM     26  H   UNL     1      11.024  10.814  17.283  0.00  0.00    +0.000 HD
BRANCH  25  27
ATOM     27  C   UNL     1       9.819  15.057  18.655  0.00  0.00    +0.000 C 
BRANCH  27  28
ATOM     28  C   UNL     1       9.492  15.248  20.121  0.00  0.00    +0.000 A 
ATOM     29  C   UNL     1      10.497  15.198  21.100  0.00  0.00    +0.000 A 
ATOM     30  C   UNL     1      10.191  15.362  22.453  0.00  0.00    +0.000 A 
ATOM     31  C   UNL     1       8.879  15.616  22.845  0.00  0.00    +0.000 A 
ATOM     32  C   UNL     1       7.877  15.725  21.883  0.00  0.00    +0.000 A 
ATOM     33  C   UNL     1       8.180  15.543  20.530  0.00  0.00    +0.000 A 
ENDBRANCH  27  28
ENDBRANCH  25  27
ENDBRANCH  19  23
ENDBRANCH  18  19
ENDBRANCH   1  18
TORSDOF 8
ENDMDL
MODEL 7
REMARK VINA RESULT:      -7.5      3.122      8.820
REMARK  Name = 
REMARK  9 active torsions:
REMARK  status: ('A' for Active; 'I' for Inactive)
REMARK    1  A    between atoms: C_1  and  C_2
REMARK    2  A    between atoms: C_4  and  S_5
REMARK    3  A    between atoms: S_5  and  C_6
REMARK    4  A    between atoms: C_6  and  C_7
REMARK    5  A    between atoms: N_9  and  C_10
REMARK    6  A    between atoms: C_14  and  C_15
REMARK    7  A    between atoms: N_17  and  C_18
REMARK    8  A    between atoms: C_23  and  C_24
REMARK    9  A    between atoms: C_24  and  C_25
REMARK                            x       y       z     vdW  Elec       q    Type
REMARK                         _______ _______ _______ _____ _____    ______ ____
ROOT
ATOM      1  C   UNL     1       1.676   8.303  19.889  0.00  0.00    +0.000 C 
ATOM      2  O   UNL     1       1.891   8.284  18.678  0.00  0.00    +0.000 OA
ATOM      3  N   UNL     1       0.986   9.308  20.562  0.00  0.00    +0.000 N 
ATOM      4  H   UNL     1       1.014   9.253  21.575  0.00  0.00    +0.000 HD
ENDROOT
BRANCH   3   5
ATOM      5  C   UNL     1       0.440  10.489  20.005  0.00  0.00    +0.000 A 
ATOM      6  C   UNL     1       0.965  11.754  20.266  0.00  0.00    +0.000 A 
ATOM      7  C   UNL     1       0.373  12.901  19.736  0.00  0.00    +0.000 A 
ATOM      8  C   UNL     1      -0.755  12.800  18.925  0.00  0.00    +0.000 A 
ATOM      9  C   UNL     1      -1.284  11.541  18.626  0.00  0.00    +0.000 A 
ATOM     10  C   UNL     1      -0.672  10.385  19.153  0.00  0.00    +0.000 A 
BRANCH   9  11
ATOM     11  C   UNL     1      -2.458  11.392  17.714  0.00  0.00    +0.000 C 
ATOM     12  O   UNL     1      -3.592  11.395  18.182  0.00  0.00    +0.000 OA
ATOM     13  N   UNL     1      -2.186  11.267  16.358  0.00  0.00    +0.000 N 
ATOM     14  H   UNL     1      -1.250  11.444  16.016  0.00  0.00    +0.000 HD
BRANCH  13  15
ATOM     15  C   UNL     1      -3.223  11.062  15.393  0.00  0.00    +0.000 C 
ATOM     16  C   UNL     1      -3.911   9.724  15.308  0.00  0.00    +0.000 C 
ATOM     17  C   UNL     1      -3.020  10.177  14.190  0.00  0.00    +0.000 C 
ENDBRANCH  13  15
ENDBRANCH   9  11
ENDBRANCH   3   5
BRANCH   1  18
ATOM     18  C   UNL     1       2.158   7.135  20.757  0.00  0.00    +0.000 C 
BRANCH  18  19
ATOM     19  S   UNL     1       1.334   5.597  20.289  0.00  0.00    +0.000 S 
BRANCH  19  23
ATOM     20  C   UNL     1       3.566   1.626  18.017  0.00  0.00    +0.000 C 
ATOM     21  C   UNL     1       3.347   3.065  18.263  0.00  0.00    +0.000 A 
ATOM     22  N   UNL     1       2.409   3.491  19.162  0.00  0.00    +0.000 N 
ATOM     23  C   UNL     1       2.430   4.848  19.200  0.00  0.00    +0.000 A 
ATOM     24  N   UNL     1       3.316   5.345  18.383  0.00  0.00    +0.000 NA
ATOM     25  C   UNL     1       3.903   4.233  17.759  0.00  0.00    +0.000 A 
ATOM     26  H   UNL     1       1.800   2.909  19.726  0.00  0.00    +0.000 HD
BRANCH  25  27
ATOM     27  C   UNL     1       5.000   4.411  16.753  0.00  0.00    +0.000 C 
BRANCH  27  28
ATOM     28  C   UNL     1       6.058   5.305  17.366  0.00  0.00    +0.000 A 
ATOM     29  C   UNL     1       6.303   6.591  16.859  0.00  0.00    +0.000 A 
ATOM     30  C   UNL     1       7.287   7.409  17.420  0.00  0.00    +0.000 A 
ATOM     31  C   UNL     1       8.017   6.967  18.520  0.00  0.00    +0.000 A 
ATOM     32  C   UNL     1       7.749   5.716  19.072  0.00  0.00    +0.000 A 
ATOM     33  C   UNL     1       6.776   4.890  18.501  0.00  0.00    +0.000 A 
ENDBRANCH  27  28
ENDBRANCH  25  27
ENDBRANCH  19  23
ENDBRANCH  18  19
ENDBRANCH   1  18
TORSDOF 8
ENDMDL
MODEL 8
REMARK VINA RESULT:      -7.5      6.796      8.747
REMARK  Name = 
REMARK  9 active torsions:
REMARK  status: ('A' for Active; 'I' for Inactive)
REMARK    1  A    between atoms: C_1  and  C_2
REMARK    2  A    between atoms: C_4  and  S_5
REMARK    3  A    between atoms: S_5  and  C_6
REMARK    4  A    between atoms: C_6  and  C_7
REMARK    5  A    between atoms: N_9  and  C_10
REMARK    6  A    between atoms: C_14  and  C_15
REMARK    7  A    between atoms: N_17  and  C_18
REMARK    8  A    between atoms: C_23  and  C_24
REMARK    9  A    between atoms: C_24  and  C_25
REMARK                            x       y       z     vdW  Elec       q    Type
REMARK                         _______ _______ _______ _____ _____    ______ ____
ROOT
ATOM      1  C   UNL     1       7.778   7.965  17.876  0.00  0.00    +0.000 C 
ATOM      2  O   UNL     1       8.270   7.157  18.662  0.00  0.00    +0.000 OA
ATOM      3  N   UNL     1       6.729   7.693  17.001  0.00  0.00    +0.000 N 
ATOM      4  H   UNL     1       6.531   8.418  16.320  0.00  0.00    +0.000 HD
ENDROOT
BRANCH   3   5
ATOM      5  C   UNL     1       6.065   6.456  16.826  0.00  0.00    +0.000 A 
ATOM      6  C   UNL     1       6.542   5.463  15.971  0.00  0.00    +0.000 A 
ATOM      7  C   UNL     1       5.836   4.274  15.787  0.00  0.00    +0.000 A 
ATOM      8  C   UNL     1       4.639   4.054  16.464  0.00  0.00    +0.000 A 
ATOM      9  C   UNL     1       4.153   5.023  17.348  0.00  0.00    +0.000 A 
ATOM     10  C   UNL     1       4.879   6.216  17.541  0.00  0.00    +0.000 A 
BRANCH   9  11
ATOM     11  C   UNL     1       2.903   4.796  18.134  0.00  0.00    +0.000 C 
ATOM     12  O   UNL     1       1.825   5.159  17.675  0.00  0.00    +0.000 OA
ATOM     13  N   UNL     1       3.041   4.163  19.362  0.00  0.00    +0.000 N 
ATOM     14  H   UNL     1       3.925   3.735  19.608  0.00  0.00    +0.000 HD
BRANCH  13  15
ATOM     15  C   UNL     1       1.925   3.941  20.230  0.00  0.00    +0.000 C 
ATOM     16  C   UNL     1       2.159   3.514  21.655  0.00  0.00    +0.000 C 
ATOM     17  C   UNL     1       1.537   2.557  20.682  0.00  0.00    +0.000 C 
ENDBRANCH  13  15
ENDBRANCH   9  11
ENDBRANCH   3   5
BRANCH   1  18
ATOM     18  C   UNL     1       8.307   9.404  17.850  0.00  0.00    +0.000 C 
BRANCH  18  19
ATOM     19  S   UNL     1       9.182   9.802  19.379  0.00  0.00    +0.000 S 
BRANCH  19  23
ATOM     20  C   UNL     1      11.398  13.344  16.470  0.00  0.00    +0.000 C 
ATOM     21  C   UNL     1      10.845  12.818  17.735  0.00  0.00    +0.000 A 
ATOM     22  N   UNL     1      10.299  11.567  17.798  0.00  0.00    +0.000 N 
ATOM     23  C   UNL     1       9.887  11.337  19.071  0.00  0.00    +0.000 A 
ATOM     24  N   UNL     1      10.121  12.356  19.850  0.00  0.00    +0.000 NA
ATOM     25  C   UNL     1      10.714  13.322  19.022  0.00  0.00    +0.000 A 
ATOM     26  H   UNL     1      10.218  10.901  17.038  0.00  0.00    +0.000 HD
BRANCH  25  27
ATOM     27  C   UNL     1      11.151  14.644  19.579  0.00  0.00    +0.000 C 
BRANCH  27  28
ATOM     28  C   UNL     1      10.081  15.124  20.537  0.00  0.00    +0.000 A 
ATOM     29  C   UNL     1      10.307  15.148  21.923  0.00  0.00    +0.000 A 
ATOM     30  C   UNL     1       9.315  15.580  22.805  0.00  0.00    +0.000 A 
ATOM     31  C   UNL     1       8.093  16.032  22.314  0.00  0.00    +0.000 A 
ATOM     32  C   UNL     1       7.870  16.069  20.938  0.00  0.00    +0.000 A 
ATOM     33  C   UNL     1       8.857  15.620  20.055  0.00  0.00    +0.000 A 
ENDBRANCH  27  28
ENDBRANCH  25  27
ENDBRANCH  19  23
ENDBRANCH  18  19
ENDBRANCH   1  18
TORSDOF 8
ENDMDL
MODEL 9
REMARK VINA RESULT:      -7.4      5.988      9.240
REMARK  Name = 
REMARK  9 active torsions:
REMARK  status: ('A' for Active; 'I' for Inactive)
REMARK    1  A    between atoms: C_1  and  C_2
REMARK    2  A    between atoms: C_4  and  S_5
REMARK    3  A    between atoms: S_5  and  C_6
REMARK    4  A    between atoms: C_6  and  C_7
REMARK    5  A    between atoms: N_9  and  C_10
REMARK    6  A    between atoms: C_14  and  C_15
REMARK    7  A    between atoms: N_17  and  C_18
REMARK    8  A    between atoms: C_23  and  C_24
REMARK    9  A    between atoms: C_24  and  C_25
REMARK                            x       y       z     vdW  Elec       q    Type
REMARK                         _______ _______ _______ _____ _____    ______ ____
ROOT
ATOM      1  C   UNL     1       8.279   8.336  18.124  0.00  0.00    +0.000 C 
ATOM      2  O   UNL     1       8.678   7.634  19.052  0.00  0.00    +0.000 OA
ATOM      3  N   UNL     1       8.559   9.692  17.968  0.00  0.00    +0.000 N 
ATOM      4  H   UNL     1       8.043  10.161  17.231  0.00  0.00    +0.000 HD
ENDROOT
BRANCH   3   5
ATOM      5  C   UNL     1       9.309  10.513  18.842  0.00  0.00    +0.000 A 
ATOM      6  C   UNL     1      10.595  10.959  18.535  0.00  0.00    +0.000 A 
ATOM      7  C   UNL     1      11.323  11.729  19.441  0.00  0.00    +0.000 A 
ATOM      8  C   UNL     1      10.773  12.075  20.674  0.00  0.00    +0.000 A 
ATOM      9  C   UNL     1       9.476  11.663  20.995  0.00  0.00    +0.000 A 
ATOM     10  C   UNL     1       8.739  10.897  20.068  0.00  0.00    +0.000 A 
BRANCH   9  11
ATOM     11  C   UNL     1       8.833  12.063  22.283  0.00  0.00    +0.000 C 
ATOM     12  O   UNL     1       8.269  11.215  22.967  0.00  0.00    +0.000 OA
ATOM     13  N   UNL     1       8.927  13.401  22.640  0.00  0.00    +0.000 N 
ATOM     14  H   UNL     1       9.547  14.015  22.127  0.00  0.00    +0.000 HD
BRANCH  13  15
ATOM     15  C   UNL     1       8.303  13.915  23.821  0.00  0.00    +0.000 C 
ATOM     16  C   UNL     1       7.659  15.277  23.795  0.00  0.00    +0.000 C 
ATOM     17  C   UNL     1       8.905  15.057  24.601  0.00  0.00    +0.000 C 
ENDBRANCH  13  15
ENDBRANCH   9  11
ENDBRANCH   3   5
BRANCH   1  18
ATOM     18  C   UNL     1       7.434   7.702  17.013  0.00  0.00    +0.000 C 
BRANCH  18  19
ATOM     19  S   UNL     1       7.012   5.992  17.415  0.00  0.00    +0.000 S 
BRANCH  19  23
ATOM     20  C   UNL     1       2.448   8.201  17.868  0.00  0.00    +0.000 C 
ATOM     21  C   UNL     1       3.358   7.045  17.739  0.00  0.00    +0.000 A 
ATOM     22  N   UNL     1       4.709   7.221  17.629  0.00  0.00    +0.000 N 
ATOM     23  C   UNL     1       5.299   6.002  17.541  0.00  0.00    +0.000 A 
ATOM     24  N   UNL     1       4.427   5.034  17.581  0.00  0.00    +0.000 NA
ATOM     25  C   UNL     1       3.180   5.669  17.688  0.00  0.00    +0.000 A 
ATOM     26  H   UNL     1       5.208   8.103  17.626  0.00  0.00    +0.000 HD
BRANCH  25  27
ATOM     27  C   UNL     1       1.918   4.865  17.783  0.00  0.00    +0.000 C 
BRANCH  27  28
ATOM     28  C   UNL     1       1.895   4.189  19.138  0.00  0.00    +0.000 A 
ATOM     29  C   UNL     1       2.280   4.878  20.299  0.00  0.00    +0.000 A 
ATOM     30  C   UNL     1       2.269   4.248  21.545  0.00  0.00    +0.000 A 
ATOM     31  C   UNL     1       1.837   2.928  21.656  0.00  0.00    +0.000 A 
ATOM     32  C   UNL     1       1.398   2.246  20.523  0.00  0.00    +0.000 A 
ATOM     33  C   UNL     1       1.425   2.871  19.272  0.00  0.00    +0.000 A 
ENDBRANCH  27  28
ENDBRANCH  25  27
ENDBRANCH  19  23
ENDBRANCH  18  19
ENDBRANCH   1  18
TORSDOF 8
ENDMDL
