MODEL 1
REMARK VINA RESULT:      -9.3      0.000      0.000
REMARK  Name = 
REMARK  5 active torsions:
REMARK  status: ('A' for Active; 'I' for Inactive)
REMARK    1  A    between atoms: C_2  and  C_12
REMARK    2  A    between atoms: N_3  and  C_4
REMARK    3  A    between atoms: C_4  and  C_5
REMARK    4  A    between atoms: C_5  and  C_6
REMARK    5  A    between atoms: C_14  and  C_15
REMARK                            x       y       z     vdW  Elec       q    Type
REMARK                         _______ _______ _______ _____ _____    ______ ____
ROOT
ATOM      1  C   UNL     1       6.200   5.307  17.717  0.00  0.00    +0.000 A 
ATOM      2  C   UNL     1       5.154   4.826  18.517  0.00  0.00    +0.000 A 
ATOM      3  C   UNL     1       4.084   4.162  17.937  0.00  0.00    +0.000 A 
ATOM      4  N   UNL     1       4.114   3.824  16.631  0.00  0.00    +0.000 NA
ATOM      5  C   UNL     1       5.165   4.175  15.871  0.00  0.00    +0.000 A 
ATOM      6  C   UNL     1       5.218   3.663  14.580  0.00  0.00    +0.000 A 
ATOM      7  C   UNL     1       6.260   3.972  13.706  0.00  0.00    +0.000 A 
ATOM      8  C   UNL     1       7.227   4.883  14.097  0.00  0.00    +0.000 A 
ATOM      9  C   UNL     1       7.193   5.409  15.388  0.00  0.00    +0.000 A 
ATOM     10  C   UNL     1       6.213   4.997  16.331  0.00  0.00    +0.000 A 
ENDROOT
BRANCH   3  11
ATOM     11  C   UNL     1       2.836   3.834  18.671  0.00  0.00    +0.000 A 
ATOM     12  C   UNL     1       1.990   2.777  18.303  0.00  0.00    +0.000 A 
ATOM     13  C   UNL     1       0.883   2.476  19.085  0.00  0.00    +0.000 A 
ATOM     14  N   UNL     1       0.545   3.150  20.199  0.00  0.00    +0.000 NA
ATOM     15  C   UNL     1       1.346   4.177  20.543  0.00  0.00    +0.000 A 
ATOM     16  C   UNL     1       2.476   4.548  19.826  0.00  0.00    +0.000 A 
ENDBRANCH   3  11
BRANCH   1  18
ATOM     17  O   UNL     1       7.991   5.527  19.284  0.00  0.00    +0.000 OA
ATOM     18  C   UNL     1       7.322   6.045  18.399  0.00  0.00    +0.000 C 
ATOM     19  N   UNL     1       7.548   7.350  17.979  0.00  0.00    +0.000 N 
ATOM     20  H   UNL     1       7.152   7.657  17.102  0.00  0.00    +0.000 HD
BRANCH  19  21
ATOM     21  C   UNL     1       8.616   8.163  18.530  0.00  0.00    +0.000 C 
BRANCH  21  22
ATOM     22  C   UNL     1       8.420   9.670  18.289  0.00  0.00    +0.000 C 
BRANCH  22  23
ATOM     23  C   UNL     1       9.498  10.621  18.769  0.00  0.00    +0.000 A 
ATOM     24  C   UNL     1      10.365  11.291  17.897  0.00  0.00    +0.000 A 
ATOM     25  C   UNL     1      11.288  12.223  18.383  0.00  0.00    +0.000 A 
ATOM     26  C   UNL     1      11.360  12.502  19.744  0.00  0.00    +0.000 A 
ATOM     27  C   UNL     1      10.494  11.860  20.625  0.00  0.00    +0.000 A 
ATOM     28  C   UNL     1       9.572  10.926  20.141  0.00  0.00    +0.000 A 
ENDBRANCH  22  23
ENDBRANCH  21  22
ENDBRANCH  19  21
ENDBRANCH   1  18
TORSDOF 5
ENDMDL
MODEL 2
REMARK VINA RESULT:      -9.0      0.404      1.295
REMARK  Name = 
REMARK  5 active torsions:
REMARK  status: ('A' for Active; 'I' for Inactive)
REMARK    1  A    between atoms: C_2  and  C_12
REMARK    2  A    between atoms: N_3  and  C_4
REMARK    3  A    between atoms: C_4  and  C_5
REMARK    4  A    between atoms: C_5  and  C_6
REMARK    5  A    between atoms: C_14  and  C_15
REMARK                            x       y       z     vdW  Elec       q    Type
REMARK                         _______ _______ _______ _____ _____    ______ ____
ROOT
ATOM      1  C   UNL     1       6.268   5.394  17.724  0.00  0.00    +0.000 A 
ATOM      2  C   UNL     1       5.255   4.887  18.549  0.00  0.00    +0.000 A 
ATOM      3  C   UNL     1       4.200   4.177  17.998  0.00  0.00    +0.000 A 
ATOM      4  N   UNL     1       4.219   3.820  16.698  0.00  0.00    +0.000 NA
ATOM      5  C   UNL     1       5.243   4.197  15.913  0.00  0.00    +0.000 A 
ATOM      6  C   UNL     1       5.292   3.668  14.629  0.00  0.00    +0.000 A 
ATOM      7  C   UNL     1       6.306   4.002  13.732  0.00  0.00    +0.000 A 
ATOM      8  C   UNL     1       7.246   4.953  14.092  0.00  0.00    +0.000 A 
ATOM      9  C   UNL     1       7.216   5.497  15.376  0.00  0.00    +0.000 A 
ATOM     10  C   UNL     1       6.268   5.064  16.343  0.00  0.00    +0.000 A 
ENDROOT
BRANCH   3  11
ATOM     11  C   UNL     1       2.978   3.815  18.759  0.00  0.00    +0.000 A 
ATOM     12  C   UNL     1       2.574   4.490  19.921  0.00  0.00    +0.000 A 
ATOM     13  C   UNL     1       1.376   4.151  20.534  0.00  0.00    +0.000 A 
ATOM     14  N   UNL     1       0.551   3.186  20.089  0.00  0.00    +0.000 NA
ATOM     15  C   UNL     1       0.946   2.525  18.984  0.00  0.00    +0.000 A 
ATOM     16  C   UNL     1       2.124   2.796  18.302  0.00  0.00    +0.000 A 
ENDBRANCH   3  11
BRANCH   1  18
ATOM     17  O   UNL     1       8.119   5.682  19.208  0.00  0.00    +0.000 OA
ATOM     18  C   UNL     1       7.374   6.182  18.375  0.00  0.00    +0.000 C 
ATOM     19  N   UNL     1       7.495   7.512  17.989  0.00  0.00    +0.000 N 
ATOM     20  H   UNL     1       7.035   7.819  17.143  0.00  0.00    +0.000 HD
BRANCH  19  21
ATOM     21  C   UNL     1       8.536   8.375  18.514  0.00  0.00    +0.000 C 
BRANCH  21  22
ATOM     22  C   UNL     1       8.507   9.794  17.918  0.00  0.00    +0.000 C 
BRANCH  22  23
ATOM     23  C   UNL     1       9.254  10.894  18.645  0.00  0.00    +0.000 A 
ATOM     24  C   UNL     1       9.760  10.742  19.942  0.00  0.00    +0.000 A 
ATOM     25  C   UNL     1      10.516  11.757  20.538  0.00  0.00    +0.000 A 
ATOM     26  C   UNL     1      10.779  12.937  19.852  0.00  0.00    +0.000 A 
ATOM     27  C   UNL     1      10.301  13.100  18.555  0.00  0.00    +0.000 A 
ATOM     28  C   UNL     1       9.542  12.088  17.957  0.00  0.00    +0.000 A 
ENDBRANCH  22  23
ENDBRANCH  21  22
ENDBRANCH  19  21
ENDBRANCH   1  18
TORSDOF 5
ENDMDL
MODEL 3
REMARK VINA RESULT:      -8.8      4.252      7.697
REMARK  Name = 
REMARK  5 active torsions:
REMARK  status: ('A' for Active; 'I' for Inactive)
REMARK    1  A    between atoms: C_2  and  C_12
REMARK    2  A    between atoms: N_3  and  C_4
REMARK    3  A    between atoms: C_4  and  C_5
REMARK    4  A    between atoms: C_5  and  C_6
REMARK    5  A    between atoms: C_14  and  C_15
REMARK                            x       y       z     vdW  Elec       q    Type
REMARK                         _______ _______ _______ _____ _____    ______ ____
ROOT
ATOM      1  C   UNL     1       2.801   6.124  18.583  0.00  0.00    +0.000 A 
ATOM      2  C   UNL     1       3.738   6.161  17.542  0.00  0.00    +0.000 A 
ATOM      3  C   UNL     1       4.231   4.980  17.008  0.00  0.00    +0.000 A 
ATOM      4  N   UNL     1       3.696   3.793  17.362  0.00  0.00    +0.000 NA
ATOM      5  C   UNL     1       2.712   3.746  18.276  0.00  0.00    +0.000 A 
ATOM      6  C   UNL     1       2.091   2.520  18.482  0.00  0.00    +0.000 A 
ATOM      7  C   UNL     1       1.067   2.360  19.414  0.00  0.00    +0.000 A 
ATOM      8  C   UNL     1       0.711   3.426  20.223  0.00  0.00    +0.000 A 
ATOM      9  C   UNL     1       1.321   4.666  20.033  0.00  0.00    +0.000 A 
ATOM     10  C   UNL     1       2.270   4.874  18.996  0.00  0.00    +0.000 A 
ENDROOT
BRANCH   3  11
ATOM     11  C   UNL     1       5.387   4.927  16.079  0.00  0.00    +0.000 A 
ATOM     12  C   UNL     1       5.323   4.322  14.814  0.00  0.00    +0.000 A 
ATOM     13  C   UNL     1       6.419   4.384  13.965  0.00  0.00    +0.000 A 
ATOM     14  N   UNL     1       7.578   4.991  14.276  0.00  0.00    +0.000 NA
ATOM     15  C   UNL     1       7.647   5.556  15.497  0.00  0.00    +0.000 A 
ATOM     16  C   UNL     1       6.603   5.550  16.411  0.00  0.00    +0.000 A 
ENDBRANCH   3  11
BRANCH   1  18
ATOM     17  O   UNL     1       2.279   7.650  20.348  0.00  0.00    +0.000 OA
ATOM     18  C   UNL     1       2.323   7.439  19.143  0.00  0.00    +0.000 C 
ATOM     19  N   UNL     1       1.923   8.395  18.217  0.00  0.00    +0.000 N 
ATOM     20  H   UNL     1       2.196   8.284  17.250  0.00  0.00    +0.000 HD
BRANCH  19  21
ATOM     21  C   UNL     1       1.472   9.714  18.618  0.00  0.00    +0.000 C 
BRANCH  21  22
ATOM     22  C   UNL     1      -0.019   9.758  18.997  0.00  0.00    +0.000 C 
BRANCH  22  23
ATOM     23  C   UNL     1      -0.385   9.996  20.448  0.00  0.00    +0.000 A 
ATOM     24  C   UNL     1      -0.260   9.011  21.436  0.00  0.00    +0.000 A 
ATOM     25  C   UNL     1      -0.531   9.305  22.776  0.00  0.00    +0.000 A 
ATOM     26  C   UNL     1      -0.930  10.583  23.153  0.00  0.00    +0.000 A 
ATOM     27  C   UNL     1      -1.042  11.580  22.189  0.00  0.00    +0.000 A 
ATOM     28  C   UNL     1      -0.774  11.288  20.847  0.00  0.00    +0.000 A 
ENDBRANCH  22  23
ENDBRANCH  21  22
ENDBRANCH  19  21
ENDBRANCH   1  18
TORSDOF 5
ENDMDL
MODEL 4
REMARK VINA RESULT:      -8.8      4.488      7.433
REMARK  Name = 
REMARK  5 active torsions:
REMARK  status: ('A' for Active; 'I' for Inactive)
REMARK    1  A    between atoms: C_2  and  C_12
REMARK    2  A    between atoms: N_3  and  C_4
REMARK    3  A    between atoms: C_4  and  C_5
REMARK    4  A    between atoms: C_5  and  C_6
REMARK    5  A    between atoms: C_14  and  C_15
REMARK                            x       y       z     vdW  Elec       q    Type
REMARK                         _______ _______ _______ _____ _____    ______ ____
ROOT
ATOM      1  C   UNL     1       4.451   4.964  17.640  0.00  0.00    +0.000 A 
ATOM      2  C   UNL     1       4.076   6.272  17.974  0.00  0.00    +0.000 A 
ATOM      3  C   UNL     1       2.843   6.514  18.559  0.00  0.00    +0.000 A 
ATOM      4  N   UNL     1       2.065   5.489  18.965  0.00  0.00    +0.000 NA
ATOM      5  C   UNL     1       2.462   4.222  18.758  0.00  0.00    +0.000 A 
ATOM      6  C   UNL     1       1.703   3.213  19.339  0.00  0.00    +0.000 A 
ATOM      7  C   UNL     1       2.022   1.865  19.178  0.00  0.00    +0.000 A 
ATOM      8  C   UNL     1       3.071   1.509  18.348  0.00  0.00    +0.000 A 
ATOM      9  C   UNL     1       3.846   2.505  17.755  0.00  0.00    +0.000 A 
ATOM     10  C   UNL     1       3.613   3.883  18.020  0.00  0.00    +0.000 A 
ENDROOT
BRANCH   3  11
ATOM     11  C   UNL     1       2.274   7.875  18.725  0.00  0.00    +0.000 A 
ATOM     12  C   UNL     1       2.291   8.839  17.705  0.00  0.00    +0.000 A 
ATOM     13  C   UNL     1       1.666  10.062  17.903  0.00  0.00    +0.000 A 
ATOM     14  N   UNL     1       1.034  10.408  19.039  0.00  0.00    +0.000 NA
ATOM     15  C   UNL     1       1.032   9.490  20.025  0.00  0.00    +0.000 A 
ATOM     16  C   UNL     1       1.626   8.240  19.917  0.00  0.00    +0.000 A 
ENDBRANCH   3  11
BRANCH   1  18
ATOM     17  O   UNL     1       6.802   4.535  17.631  0.00  0.00    +0.000 OA
ATOM     18  C   UNL     1       5.791   4.765  16.981  0.00  0.00    +0.000 C 
ATOM     19  N   UNL     1       5.820   4.871  15.595  0.00  0.00    +0.000 N 
ATOM     20  H   UNL     1       4.950   4.818  15.083  0.00  0.00    +0.000 HD
BRANCH  19  21
ATOM     21  C   UNL     1       7.038   4.671  14.832  0.00  0.00    +0.000 C 
BRANCH  21  22
ATOM     22  C   UNL     1       6.862   4.935  13.326  0.00  0.00    +0.000 C 
BRANCH  22  23
ATOM     23  C   UNL     1       6.530   3.762  12.425  0.00  0.00    +0.000 A 
ATOM     24  C   UNL     1       7.509   2.926  11.873  0.00  0.00    +0.000 A 
ATOM     25  C   UNL     1       7.149   1.807  11.116  0.00  0.00    +0.000 A 
ATOM     26  C   UNL     1       5.809   1.503  10.898  0.00  0.00    +0.000 A 
ATOM     27  C   UNL     1       4.822   2.311  11.453  0.00  0.00    +0.000 A 
ATOM     28  C   UNL     1       5.179   3.433  12.209  0.00  0.00    +0.000 A 
ENDBRANCH  22  23
ENDBRANCH  21  22
ENDBRANCH  19  21
ENDBRANCH   1  18
TORSDOF 5
ENDMDL
MODEL 5
REMARK VINA RESULT:      -8.7      1.539      4.805
REMARK  Name = 
REMARK  5 active torsions:
REMARK  status: ('A' for Active; 'I' for Inactive)
REMARK    1  A    between atoms: C_2  and  C_12
REMARK    2  A    between atoms: N_3  and  C_4
REMARK    3  A    between atoms: C_4  and  C_5
REMARK    4  A    between atoms: C_5  and  C_6
REMARK    5  A    between atoms: C_14  and  C_15
REMARK                            x       y       z     vdW  Elec       q    Type
REMARK                         _______ _______ _______ _____ _____    ______ ____
ROOT
ATOM      1  C   UNL     1       6.398   5.688  17.560  0.00  0.00    +0.000 A 
ATOM      2  C   UNL     1       6.674   5.528  16.195  0.00  0.00    +0.000 A 
ATOM      3  C   UNL     1       5.801   4.814  15.389  0.00  0.00    +0.000 A 
ATOM      4  N   UNL     1       4.603   4.413  15.863  0.00  0.00    +0.000 NA
ATOM      5  C   UNL     1       4.270   4.660  17.141  0.00  0.00    +0.000 A 
ATOM      6  C   UNL     1       2.968   4.370  17.529  0.00  0.00    +0.000 A 
ATOM      7  C   UNL     1       2.522   4.579  18.833  0.00  0.00    +0.000 A 
ATOM      8  C   UNL     1       3.420   5.007  19.797  0.00  0.00    +0.000 A 
ATOM      9  C   UNL     1       4.732   5.305  19.430  0.00  0.00    +0.000 A 
ATOM     10  C   UNL     1       5.160   5.223  18.077  0.00  0.00    +0.000 A 
ENDROOT
BRANCH   3  11
ATOM     11  C   UNL     1       6.130   4.399  14.002  0.00  0.00    +0.000 A 
ATOM     12  C   UNL     1       7.288   4.823  13.332  0.00  0.00    +0.000 A 
ATOM     13  C   UNL     1       7.572   4.328  12.067  0.00  0.00    +0.000 A 
ATOM     14  N   UNL     1       6.792   3.451  11.410  0.00  0.00    +0.000 NA
ATOM     15  C   UNL     1       5.671   3.057  12.044  0.00  0.00    +0.000 A 
ATOM     16  C   UNL     1       5.306   3.494  13.311  0.00  0.00    +0.000 A 
ENDBRANCH   3  11
BRANCH   1  18
ATOM     17  O   UNL     1       7.879   5.976  19.414  0.00  0.00    +0.000 OA
ATOM     18  C   UNL     1       7.397   6.448  18.392  0.00  0.00    +0.000 C 
ATOM     19  N   UNL     1       7.732   7.720  17.945  0.00  0.00    +0.000 N 
ATOM     20  H   UNL     1       7.512   7.978  16.993  0.00  0.00    +0.000 HD
BRANCH  19  21
ATOM     21  C   UNL     1       8.705   8.548  18.633  0.00  0.00    +0.000 C 
BRANCH  21  22
ATOM     22  C   UNL     1       8.647  10.028  18.217  0.00  0.00    +0.000 C 
BRANCH  22  23
ATOM     23  C   UNL     1       9.734  10.959  18.717  0.00  0.00    +0.000 A 
ATOM     24  C   UNL     1       9.911  11.263  20.073  0.00  0.00    +0.000 A 
ATOM     25  C   UNL     1      10.981  12.060  20.493  0.00  0.00    +0.000 A 
ATOM     26  C   UNL     1      11.890  12.566  19.569  0.00  0.00    +0.000 A 
ATOM     27  C   UNL     1      11.741  12.261  18.220  0.00  0.00    +0.000 A 
ATOM     28  C   UNL     1      10.671  11.465  17.797  0.00  0.00    +0.000 A 
ENDBRANCH  22  23
ENDBRANCH  21  22
ENDBRANCH  19  21
ENDBRANCH   1  18
TORSDOF 5
ENDMDL
MODEL 6
REMARK VINA RESULT:      -8.7      1.533      4.659
REMARK  Name = 
REMARK  5 active torsions:
REMARK  status: ('A' for Active; 'I' for Inactive)
REMARK    1  A    between atoms: C_2  and  C_12
REMARK    2  A    between atoms: N_3  and  C_4
REMARK    3  A    between atoms: C_4  and  C_5
REMARK    4  A    between atoms: C_5  and  C_6
REMARK    5  A    between atoms: C_14  and  C_15
REMARK                            x       y       z     vdW  Elec       q    Type
REMARK                         _______ _______ _______ _____ _____    ______ ____
ROOT
ATOM      1  C   UNL     1       6.409   5.659  17.586  0.00  0.00    +0.000 A 
ATOM      2  C   UNL     1       6.690   5.466  16.227  0.00  0.00    +0.000 A 
ATOM      3  C   UNL     1       5.803   4.761  15.428  0.00  0.00    +0.000 A 
ATOM      4  N   UNL     1       4.592   4.402  15.901  0.00  0.00    +0.000 NA
ATOM      5  C   UNL     1       4.257   4.683  17.171  0.00  0.00    +0.000 A 
ATOM      6  C   UNL     1       2.944   4.436  17.555  0.00  0.00    +0.000 A 
ATOM      7  C   UNL     1       2.495   4.683  18.852  0.00  0.00    +0.000 A 
ATOM      8  C   UNL     1       3.398   5.104  19.814  0.00  0.00    +0.000 A 
ATOM      9  C   UNL     1       4.720   5.358  19.451  0.00  0.00    +0.000 A 
ATOM     10  C   UNL     1       5.156   5.239  18.103  0.00  0.00    +0.000 A 
ENDROOT
BRANCH   3  11
ATOM     11  C   UNL     1       6.130   4.310  14.052  0.00  0.00    +0.000 A 
ATOM     12  C   UNL     1       5.307   3.441  13.318  0.00  0.00    +0.000 A 
ATOM     13  C   UNL     1       5.634   3.127  12.006  0.00  0.00    +0.000 A 
ATOM     14  N   UNL     1       6.719   3.602  11.368  0.00  0.00    +0.000 NA
ATOM     15  C   UNL     1       7.519   4.421  12.077  0.00  0.00    +0.000 A 
ATOM     16  C   UNL     1       7.272   4.794  13.391  0.00  0.00    +0.000 A 
ENDBRANCH   3  11
BRANCH   1  18
ATOM     17  O   UNL     1       7.948   5.908  19.398  0.00  0.00    +0.000 OA
ATOM     18  C   UNL     1       7.423   6.408  18.411  0.00  0.00    +0.000 C 
ATOM     19  N   UNL     1       7.720   7.702  18.000  0.00  0.00    +0.000 N 
ATOM     20  H   UNL     1       7.461   7.989  17.066  0.00  0.00    +0.000 HD
BRANCH  19  21
ATOM     21  C   UNL     1       8.701   8.522  18.685  0.00  0.00    +0.000 C 
BRANCH  21  22
ATOM     22  C   UNL     1       8.671   9.998  18.249  0.00  0.00    +0.000 C 
BRANCH  22  23
ATOM     23  C   UNL     1       9.797  10.905  18.703  0.00  0.00    +0.000 A 
ATOM     24  C   UNL     1      10.665  11.546  17.810  0.00  0.00    +0.000 A 
ATOM     25  C   UNL     1      11.636  12.439  18.274  0.00  0.00    +0.000 A 
ATOM     26  C   UNL     1      11.755  12.709  19.634  0.00  0.00    +0.000 A 
ATOM     27  C   UNL     1      10.890  12.096  20.535  0.00  0.00    +0.000 A 
ATOM     28  C   UNL     1       9.920  11.199  20.074  0.00  0.00    +0.000 A 
ENDBRANCH  22  23
ENDBRANCH  21  22
ENDBRANCH  19  21
ENDBRANCH   1  18
TORSDOF 5
ENDMDL
MODEL 7
REMARK VINA RESULT:      -8.7      4.710      8.340
REMARK  Name = 
REMARK  5 active torsions:
REMARK  status: ('A' for Active; 'I' for Inactive)
REMARK    1  A    between atoms: C_2  and  C_12
REMARK    2  A    between atoms: N_3  and  C_4
REMARK    3  A    between atoms: C_4  and  C_5
REMARK    4  A    between atoms: C_5  and  C_6
REMARK    5  A    between atoms: C_14  and  C_15
REMARK                            x       y       z     vdW  Elec       q    Type
REMARK                         _______ _______ _______ _____ _____    ______ ____
ROOT
ATOM      1  C   UNL     1       2.670   6.407  18.796  0.00  0.00    +0.000 A 
ATOM      2  C   UNL     1       3.588   6.462  17.738  0.00  0.00    +0.000 A 
ATOM      3  C   UNL     1       4.141   5.294  17.237  0.00  0.00    +0.000 A 
ATOM      4  N   UNL     1       3.682   4.091  17.640  0.00  0.00    +0.000 NA
ATOM      5  C   UNL     1       2.717   4.018  18.572  0.00  0.00    +0.000 A 
ATOM      6  C   UNL     1       2.172   2.766  18.830  0.00  0.00    +0.000 A 
ATOM      7  C   UNL     1       1.173   2.579  19.784  0.00  0.00    +0.000 A 
ATOM      8  C   UNL     1       0.766   3.651  20.562  0.00  0.00    +0.000 A 
ATOM      9  C   UNL     1       1.300   4.916  20.320  0.00  0.00    +0.000 A 
ATOM     10  C   UNL     1       2.220   5.143  19.260  0.00  0.00    +0.000 A 
ENDROOT
BRANCH   3  11
ATOM     11  C   UNL     1       5.285   5.276  16.291  0.00  0.00    +0.000 A 
ATOM     12  C   UNL     1       6.479   5.975  16.525  0.00  0.00    +0.000 A 
ATOM     13  C   UNL     1       7.538   5.845  15.636  0.00  0.00    +0.000 A 
ATOM     14  N   UNL     1       7.500   5.084  14.528  0.00  0.00    +0.000 NA
ATOM     15  C   UNL     1       6.347   4.428  14.293  0.00  0.00    +0.000 A 
ATOM     16  C   UNL     1       5.238   4.492  15.126  0.00  0.00    +0.000 A 
ENDBRANCH   3  11
BRANCH   1  18
ATOM     17  O   UNL     1       2.029   7.936  20.518  0.00  0.00    +0.000 OA
ATOM     18  C   UNL     1       2.124   7.710  19.318  0.00  0.00    +0.000 C 
ATOM     19  N   UNL     1       1.721   8.637  18.365  0.00  0.00    +0.000 N 
ATOM     20  H   UNL     1       2.031   8.523  17.409  0.00  0.00    +0.000 HD
BRANCH  19  21
ATOM     21  C   UNL     1       1.206   9.944  18.729  0.00  0.00    +0.000 C 
BRANCH  21  22
ATOM     22  C   UNL     1      -0.237   9.903  19.262  0.00  0.00    +0.000 C 
BRANCH  22  23
ATOM     23  C   UNL     1      -1.357  10.335  18.336  0.00  0.00    +0.000 A 
ATOM     24  C   UNL     1      -1.584   9.743  17.087  0.00  0.00    +0.000 A 
ATOM     25  C   UNL     1      -2.681  10.120  16.306  0.00  0.00    +0.000 A 
ATOM     26  C   UNL     1      -3.569  11.090  16.758  0.00  0.00    +0.000 A 
ATOM     27  C   UNL     1      -3.372  11.677  18.004  0.00  0.00    +0.000 A 
ATOM     28  C   UNL     1      -2.273  11.304  18.786  0.00  0.00    +0.000 A 
ENDBRANCH  22  23
ENDBRANCH  21  22
ENDBRANCH  19  21
ENDBRANCH   1  18
TORSDOF 5
ENDMDL
MODEL 8
REMARK VINA RESULT:      -8.7      4.380      7.955
REMARK  Name = 
REMARK  5 active torsions:
REMARK  status: ('A' for Active; 'I' for Inactive)
REMARK    1  A    between atoms: C_2  and  C_12
REMARK    2  A    between atoms: N_3  and  C_4
REMARK    3  A    between atoms: C_4  and  C_5
REMARK    4  A    between atoms: C_5  and  C_6
REMARK    5  A    between atoms: C_14  and  C_15
REMARK                            x       y       z     vdW  Elec       q    Type
REMARK                         _______ _______ _______ _____ _____    ______ ____
ROOT
ATOM      1  C   UNL     1       2.670   6.156  18.867  0.00  0.00    +0.000 A 
ATOM      2  C   UNL     1       3.611   6.286  17.835  0.00  0.00    +0.000 A 
ATOM      3  C   UNL     1       4.118   5.156  17.212  0.00  0.00    +0.000 A 
ATOM      4  N   UNL     1       3.595   3.939  17.468  0.00  0.00    +0.000 NA
ATOM      5  C   UNL     1       2.609   3.809  18.372  0.00  0.00    +0.000 A 
ATOM      6  C   UNL     1       2.000   2.564  18.477  0.00  0.00    +0.000 A 
ATOM      7  C   UNL     1       0.974   2.319  19.389  0.00  0.00    +0.000 A 
ATOM      8  C   UNL     1       0.603   3.314  20.278  0.00  0.00    +0.000 A 
ATOM      9  C   UNL     1       1.201   4.572  20.190  0.00  0.00    +0.000 A 
ATOM     10  C   UNL     1       2.152   4.872  19.177  0.00  0.00    +0.000 A 
ENDROOT
BRANCH   3  11
ATOM     11  C   UNL     1       5.278   5.189  16.287  0.00  0.00    +0.000 A 
ATOM     12  C   UNL     1       6.466   5.879  16.576  0.00  0.00    +0.000 A 
ATOM     13  C   UNL     1       7.541   5.798  15.701  0.00  0.00    +0.000 A 
ATOM     14  N   UNL     1       7.525   5.093  14.556  0.00  0.00    +0.000 NA
ATOM     15  C   UNL     1       6.379   4.446  14.268  0.00  0.00    +0.000 A 
ATOM     16  C   UNL     1       5.256   4.464  15.083  0.00  0.00    +0.000 A 
ENDBRANCH   3  11
BRANCH   1  18
ATOM     17  O   UNL     1       1.926   8.427  18.882  0.00  0.00    +0.000 OA
ATOM     18  C   UNL     1       2.176   7.417  19.526  0.00  0.00    +0.000 C 
ATOM     19  N   UNL     1       2.033   7.376  20.908  0.00  0.00    +0.000 N 
ATOM     20  H   UNL     1       2.012   6.478  21.371  0.00  0.00    +0.000 HD
BRANCH  19  21
ATOM     21  C   UNL     1       1.536   8.510  21.665  0.00  0.00    +0.000 C 
BRANCH  21  22
ATOM     22  C   UNL     1       0.003   8.644  21.622  0.00  0.00    +0.000 C 
BRANCH  22  23
ATOM     23  C   UNL     1      -0.602  10.025  21.776  0.00  0.00    +0.000 A 
ATOM     24  C   UNL     1      -1.020  10.540  23.009  0.00  0.00    +0.000 A 
ATOM     25  C   UNL     1      -1.494  11.852  23.113  0.00  0.00    +0.000 A 
ATOM     26  C   UNL     1      -1.558  12.670  21.990  0.00  0.00    +0.000 A 
ATOM     27  C   UNL     1      -1.130  12.183  20.758  0.00  0.00    +0.000 A 
ATOM     28  C   UNL     1      -0.658  10.870  20.652  0.00  0.00    +0.000 A 
ENDBRANCH  22  23
ENDBRANCH  21  22
ENDBRANCH  19  21
ENDBRANCH   1  18
TORSDOF 5
ENDMDL
MODEL 9
REMARK VINA RESULT:      -8.6      4.565      8.224
REMARK  Name = 
REMARK  5 active torsions:
REMARK  status: ('A' for Active; 'I' for Inactive)
REMARK    1  A    between atoms: C_2  and  C_12
REMARK    2  A    between atoms: N_3  and  C_4
REMARK    3  A    between atoms: C_4  and  C_5
REMARK    4  A    between atoms: C_5  and  C_6
REMARK    5  A    between atoms: C_14  and  C_15
REMARK                            x       y       z     vdW  Elec       q    Type
REMARK                         _______ _______ _______ _____ _____    ______ ____
ROOT
ATOM      1  C   UNL     1       2.546   6.043  19.004  0.00  0.00    +0.000 A 
ATOM      2  C   UNL     1       3.533   6.275  18.037  0.00  0.00    +0.000 A 
ATOM      3  C   UNL     1       4.084   5.213  17.337  0.00  0.00    +0.000 A 
ATOM      4  N   UNL     1       3.563   3.974  17.452  0.00  0.00    +0.000 NA
ATOM      5  C   UNL     1       2.536   3.752  18.290  0.00  0.00    +0.000 A 
ATOM      6  C   UNL     1       1.937   2.499  18.248  0.00  0.00    +0.000 A 
ATOM      7  C   UNL     1       0.871   2.162  19.081  0.00  0.00    +0.000 A 
ATOM      8  C   UNL     1       0.446   3.066  20.040  0.00  0.00    +0.000 A 
ATOM      9  C   UNL     1       1.033   4.331  20.099  0.00  0.00    +0.000 A 
ATOM     10  C   UNL     1       2.028   4.731  19.167  0.00  0.00    +0.000 A 
ENDROOT
BRANCH   3  11
ATOM     11  C   UNL     1       5.287   5.341  16.477  0.00  0.00    +0.000 A 
ATOM     12  C   UNL     1       6.381   6.155  16.812  0.00  0.00    +0.000 A 
ATOM     13  C   UNL     1       7.507   6.162  16.001  0.00  0.00    +0.000 A 
ATOM     14  N   UNL     1       7.630   5.431  14.879  0.00  0.00    +0.000 NA
ATOM     15  C   UNL     1       6.573   4.664  14.546  0.00  0.00    +0.000 A 
ATOM     16  C   UNL     1       5.408   4.589  15.297  0.00  0.00    +0.000 A 
ENDBRANCH   3  11
BRANCH   1  18
ATOM     17  O   UNL     1       1.835   7.209  20.966  0.00  0.00    +0.000 OA
ATOM     18  C   UNL     1       2.005   7.233  19.754  0.00  0.00    +0.000 C 
ATOM     19  N   UNL     1       1.698   8.354  18.993  0.00  0.00    +0.000 N 
ATOM     20  H   UNL     1       2.070   8.427  18.056  0.00  0.00    +0.000 HD
BRANCH  19  21
ATOM     21  C   UNL     1       1.200   9.579  19.591  0.00  0.00    +0.000 C 
BRANCH  21  22
ATOM     22  C   UNL     1       0.654  10.581  18.559  0.00  0.00    +0.000 C 
BRANCH  22  23
ATOM     23  C   UNL     1      -0.846  10.653  18.351  0.00  0.00    +0.000 A 
ATOM     24  C   UNL     1      -1.654  11.618  18.965  0.00  0.00    +0.000 A 
ATOM     25  C   UNL     1      -3.020  11.695  18.675  0.00  0.00    +0.000 A 
ATOM     26  C   UNL     1      -3.601  10.813  17.769  0.00  0.00    +0.000 A 
ATOM     27  C   UNL     1      -2.811   9.859  17.135  0.00  0.00    +0.000 A 
ATOM     28  C   UNL     1      -1.445   9.778  17.425  0.00  0.00    +0.000 A 
ENDBRANCH  22  23
ENDBRANCH  21  22
ENDBRANCH  19  21
ENDBRANCH   1  18
TORSDOF 5
ENDMDL
