MODEL 1
REMARK VINA RESULT:      -8.3      0.000      0.000
REMARK  Name = 
REMARK  5 active torsions:
REMARK  status: ('A' for Active; 'I' for Inactive)
REMARK    1  A    between atoms: C_7  and  C_8
REMARK    2  A    between atoms: C_8  and  N_9
REMARK    3  A    between atoms: N_9  and  C_10
REMARK    4  A    between atoms: N_18  and  C_19
REMARK    5  A    between atoms: C_19  and  C_20
REMARK                            x       y       z     vdW  Elec       q    Type
REMARK                         _______ _______ _______ _____ _____    ______ ____
ROOT
ATOM      1  C   UNL     1       0.245  10.240  18.938  0.00  0.00    +0.000 A 
ATOM      2  N   UNL     1      -0.269  10.173  20.197  0.00  0.00    +0.000 NA
ATOM      3  C   UNL     1       0.205   9.240  21.047  0.00  0.00    +0.000 A 
ATOM      4  N   UNL     1       1.156   8.310  20.827  0.00  0.00    +0.000 NA
ATOM      5  C   UNL     1       1.626   8.401  19.566  0.00  0.00    +0.000 A 
ATOM      6  C   UNL     1       1.237   9.304  18.593  0.00  0.00    +0.000 A 
ATOM      7  N   UNL     1       1.929   9.074  17.441  0.00  0.00    +0.000 NA
ATOM      8  N   UNL     1       2.738   8.029  17.647  0.00  0.00    +0.000 NA
ATOM      9  N   UNL     1       2.560   7.626  18.931  0.00  0.00    +0.000 N 
ENDROOT
BRANCH   1  10
ATOM     10  N   UNL     1      -0.231  11.194  18.034  0.00  0.00    +0.000 N 
ATOM     11  H   UNL     1       0.313  12.052  18.102  0.00  0.00    +0.000 HD
BRANCH  10  12
ATOM     12  C   UNL     1      -1.680  11.359  18.034  0.00  0.00    +0.000 C 
BRANCH  12  19
ATOM     13  F   UNL     1      -2.374  11.502  15.333  0.00  0.00    +0.000 F 
ATOM     14  C   UNL     1      -3.060  10.602  16.061  0.00  0.00    +0.000 C 
ATOM     15  F   UNL     1      -3.255   9.515  15.271  0.00  0.00    +0.000 F 
ATOM     16  C   UNL     1      -4.412  11.132  16.508  0.00  0.00    +0.000 C 
ATOM     17  C   UNL     1      -4.696  10.422  17.833  0.00  0.00    +0.000 C 
ATOM     18  C   UNL     1      -3.474   9.550  18.127  0.00  0.00    +0.000 C 
ATOM     19  C   UNL     1      -2.329  10.176  17.320  0.00  0.00    +0.000 C 
ENDBRANCH  12  19
ENDBRANCH  10  12
ENDBRANCH   1  10
BRANCH   9  20
ATOM     20  C   UNL     1       3.211   6.416  19.408  0.00  0.00    +0.000 C 
BRANCH  20  21
ATOM     21  C   UNL     1       2.281   5.229  19.360  0.00  0.00    +0.000 A 
ATOM     22  C   UNL     1       1.717   4.725  20.541  0.00  0.00    +0.000 A 
ATOM     23  C   UNL     1       1.013   3.520  20.531  0.00  0.00    +0.000 A 
ATOM     24  C   UNL     1       0.834   2.825  19.336  0.00  0.00    +0.000 A 
ATOM     25  C   UNL     1       1.319   3.357  18.144  0.00  0.00    +0.000 A 
ATOM     26  C   UNL     1       2.037   4.554  18.152  0.00  0.00    +0.000 A 
ENDBRANCH  20  21
ENDBRANCH   9  20
TORSDOF 5
ENDMDL
MODEL 2
REMARK VINA RESULT:      -8.2      2.882      7.332
REMARK  Name = 
REMARK  5 active torsions:
REMARK  status: ('A' for Active; 'I' for Inactive)
REMARK    1  A    between atoms: C_7  and  C_8
REMARK    2  A    between atoms: C_8  and  N_9
REMARK    3  A    between atoms: N_9  and  C_10
REMARK    4  A    between atoms: N_18  and  C_19
REMARK    5  A    between atoms: C_19  and  C_20
REMARK                            x       y       z     vdW  Elec       q    Type
REMARK                         _______ _______ _______ _____ _____    ______ ____
ROOT
ATOM      1  C   UNL     1       2.393   7.115  19.604  0.00  0.00    +0.000 A 
ATOM      2  N   UNL     1       3.049   7.115  18.411  0.00  0.00    +0.000 NA
ATOM      3  C   UNL     1       2.874   8.153  17.569  0.00  0.00    +0.000 A 
ATOM      4  N   UNL     1       2.103   9.247  17.736  0.00  0.00    +0.000 NA
ATOM      5  C   UNL     1       1.460   9.199  18.921  0.00  0.00    +0.000 A 
ATOM      6  C   UNL     1       1.546   8.205  19.878  0.00  0.00    +0.000 A 
ATOM      7  N   UNL     1       0.738   8.505  20.934  0.00  0.00    +0.000 NA
ATOM      8  N   UNL     1       0.120   9.659  20.666  0.00  0.00    +0.000 NA
ATOM      9  N   UNL     1       0.559  10.082  19.454  0.00  0.00    +0.000 N 
ENDROOT
BRANCH   1  10
ATOM     10  N   UNL     1       2.552   6.049  20.494  0.00  0.00    +0.000 N 
ATOM     11  H   UNL     1       3.142   6.324  21.278  0.00  0.00    +0.000 HD
BRANCH  10  12
ATOM     12  C   UNL     1       2.887   4.777  19.863  0.00  0.00    +0.000 C 
BRANCH  12  19
ATOM     13  F   UNL     1       1.389   2.758  21.077  0.00  0.00    +0.000 F 
ATOM     14  C   UNL     1       1.284   2.832  19.738  0.00  0.00    +0.000 C 
ATOM     15  F   UNL     1      -0.008   2.553  19.423  0.00  0.00    +0.000 F 
ATOM     16  C   UNL     1       2.186   1.834  19.033  0.00  0.00    +0.000 C 
ATOM     17  C   UNL     1       2.539   2.495  17.699  0.00  0.00    +0.000 C 
ATOM     18  C   UNL     1       1.870   3.871  17.708  0.00  0.00    +0.000 C 
ATOM     19  C   UNL     1       1.644   4.200  19.189  0.00  0.00    +0.000 C 
ENDBRANCH  12  19
ENDBRANCH  10  12
ENDBRANCH   1  10
BRANCH   9  20
ATOM     20  C   UNL     1      -0.042  11.252  18.832  0.00  0.00    +0.000 C 
BRANCH  20  21
ATOM     21  C   UNL     1      -1.451  10.972  18.368  0.00  0.00    +0.000 A 
ATOM     22  C   UNL     1      -1.684  10.049  17.338  0.00  0.00    +0.000 A 
ATOM     23  C   UNL     1      -2.955   9.925  16.775  0.00  0.00    +0.000 A 
ATOM     24  C   UNL     1      -4.012  10.693  17.259  0.00  0.00    +0.000 A 
ATOM     25  C   UNL     1      -3.811  11.553  18.336  0.00  0.00    +0.000 A 
ATOM     26  C   UNL     1      -2.537  11.692  18.892  0.00  0.00    +0.000 A 
ENDBRANCH  20  21
ENDBRANCH   9  20
TORSDOF 5
ENDMDL
MODEL 3
REMARK VINA RESULT:      -8.1      6.095      8.471
REMARK  Name = 
REMARK  5 active torsions:
REMARK  status: ('A' for Active; 'I' for Inactive)
REMARK    1  A    between atoms: C_7  and  C_8
REMARK    2  A    between atoms: C_8  and  N_9
REMARK    3  A    between atoms: N_9  and  C_10
REMARK    4  A    between atoms: N_18  and  C_19
REMARK    5  A    between atoms: C_19  and  C_20
REMARK                            x       y       z     vdW  Elec       q    Type
REMARK                         _______ _______ _______ _____ _____    ______ ____
ROOT
ATOM      1  C   UNL     1       6.084   4.990  18.261  0.00  0.00    +0.000 A 
ATOM      2  N   UNL     1       6.836   6.098  18.510  0.00  0.00    +0.000 NA
ATOM      3  C   UNL     1       7.449   6.715  17.480  0.00  0.00    +0.000 A 
ATOM      4  N   UNL     1       7.435   6.383  16.174  0.00  0.00    +0.000 NA
ATOM      5  C   UNL     1       6.694   5.273  15.975  0.00  0.00    +0.000 A 
ATOM      6  C   UNL     1       6.011   4.542  16.930  0.00  0.00    +0.000 A 
ATOM      7  N   UNL     1       5.388   3.480  16.345  0.00  0.00    +0.000 NA
ATOM      8  N   UNL     1       5.675   3.500  15.039  0.00  0.00    +0.000 NA
ATOM      9  N   UNL     1       6.458   4.585  14.813  0.00  0.00    +0.000 N 
ENDROOT
BRANCH   1  10
ATOM     10  N   UNL     1       5.441   4.327  19.310  0.00  0.00    +0.000 N 
ATOM     11  H   UNL     1       5.653   3.331  19.285  0.00  0.00    +0.000 HD
BRANCH  10  12
ATOM     12  C   UNL     1       4.034   4.673  19.475  0.00  0.00    +0.000 C 
BRANCH  12  19
ATOM     13  F   UNL     1       1.656   4.676  18.011  0.00  0.00    +0.000 F 
ATOM     14  C   UNL     1       1.747   3.734  18.968  0.00  0.00    +0.000 C 
ATOM     15  F   UNL     1       1.157   2.612  18.480  0.00  0.00    +0.000 F 
ATOM     16  C   UNL     1       1.041   4.143  20.248  0.00  0.00    +0.000 C 
ATOM     17  C   UNL     1       1.816   3.444  21.368  0.00  0.00    +0.000 C 
ATOM     18  C   UNL     1       2.972   2.703  20.694  0.00  0.00    +0.000 C 
ATOM     19  C   UNL     1       3.180   3.414  19.351  0.00  0.00    +0.000 C 
ENDBRANCH  12  19
ENDBRANCH  10  12
ENDBRANCH   1  10
BRANCH   9  20
ATOM     20  C   UNL     1       7.043   4.798  13.499  0.00  0.00    +0.000 C 
BRANCH  20  21
ATOM     21  C   UNL     1       6.567   3.765  12.506  0.00  0.00    +0.000 A 
ATOM     22  C   UNL     1       5.202   3.648  12.209  0.00  0.00    +0.000 A 
ATOM     23  C   UNL     1       4.733   2.580  11.444  0.00  0.00    +0.000 A 
ATOM     24  C   UNL     1       5.627   1.638  10.937  0.00  0.00    +0.000 A 
ATOM     25  C   UNL     1       6.994   1.789  11.157  0.00  0.00    +0.000 A 
ATOM     26  C   UNL     1       7.465   2.848  11.935  0.00  0.00    +0.000 A 
ENDBRANCH  20  21
ENDBRANCH   9  20
TORSDOF 5
ENDMDL
MODEL 4
REMARK VINA RESULT:      -8.1      6.611      8.955
REMARK  Name = 
REMARK  5 active torsions:
REMARK  status: ('A' for Active; 'I' for Inactive)
REMARK    1  A    between atoms: C_7  and  C_8
REMARK    2  A    between atoms: C_8  and  N_9
REMARK    3  A    between atoms: N_9  and  C_10
REMARK    4  A    between atoms: N_18  and  C_19
REMARK    5  A    between atoms: C_19  and  C_20
REMARK                            x       y       z     vdW  Elec       q    Type
REMARK                         _______ _______ _______ _____ _____    ______ ____
ROOT
ATOM      1  C   UNL     1       7.755   7.528  18.054  0.00  0.00    +0.000 A 
ATOM      2  N   UNL     1       8.333   6.825  19.066  0.00  0.00    +0.000 NA
ATOM      3  C   UNL     1       8.038   5.516  19.204  0.00  0.00    +0.000 A 
ATOM      4  N   UNL     1       7.211   4.759  18.454  0.00  0.00    +0.000 NA
ATOM      5  C   UNL     1       6.649   5.497  17.475  0.00  0.00    +0.000 A 
ATOM      6  C   UNL     1       6.859   6.840  17.215  0.00  0.00    +0.000 A 
ATOM      7  N   UNL     1       6.102   7.232  16.151  0.00  0.00    +0.000 NA
ATOM      8  N   UNL     1       5.395   6.176  15.736  0.00  0.00    +0.000 NA
ATOM      9  N   UNL     1       5.728   5.127  16.530  0.00  0.00    +0.000 N 
ENDROOT
BRANCH   1  10
ATOM     10  N   UNL     1       8.038   8.887  17.891  0.00  0.00    +0.000 N 
ATOM     11  H   UNL     1       8.205   9.101  16.910  0.00  0.00    +0.000 HD
BRANCH  10  12
ATOM     12  C   UNL     1       9.016   9.420  18.833  0.00  0.00    +0.000 C 
BRANCH  12  19
ATOM     13  F   UNL     1      10.685  10.856  17.115  0.00  0.00    +0.000 F 
ATOM     14  C   UNL     1      10.258  11.524  18.201  0.00  0.00    +0.000 C 
ATOM     15  F   UNL     1      10.024  12.806  17.815  0.00  0.00    +0.000 F 
ATOM     16  C   UNL     1      11.287  11.529  19.318  0.00  0.00    +0.000 C 
ATOM     17  C   UNL     1      10.470  11.599  20.609  0.00  0.00    +0.000 C 
ATOM     18  C   UNL     1       8.999  11.577  20.190  0.00  0.00    +0.000 C 
ATOM     19  C   UNL     1       8.986  10.945  18.793  0.00  0.00    +0.000 C 
ENDBRANCH  12  19
ENDBRANCH  10  12
ENDBRANCH   1  10
BRANCH   9  20
ATOM     20  C   UNL     1       5.016   3.866  16.404  0.00  0.00    +0.000 C 
BRANCH  20  21
ATOM     21  C   UNL     1       3.905   3.751  17.419  0.00  0.00    +0.000 A 
ATOM     22  C   UNL     1       3.705   2.550  18.114  0.00  0.00    +0.000 A 
ATOM     23  C   UNL     1       2.572   2.372  18.908  0.00  0.00    +0.000 A 
ATOM     24  C   UNL     1       1.646   3.405  19.047  0.00  0.00    +0.000 A 
ATOM     25  C   UNL     1       1.876   4.631  18.427  0.00  0.00    +0.000 A 
ATOM     26  C   UNL     1       3.000   4.807  17.619  0.00  0.00    +0.000 A 
ENDBRANCH  20  21
ENDBRANCH   9  20
TORSDOF 5
ENDMDL
MODEL 5
REMARK VINA RESULT:      -7.9      6.532      8.907
REMARK  Name = 
REMARK  5 active torsions:
REMARK  status: ('A' for Active; 'I' for Inactive)
REMARK    1  A    between atoms: C_7  and  C_8
REMARK    2  A    between atoms: C_8  and  N_9
REMARK    3  A    between atoms: N_9  and  C_10
REMARK    4  A    between atoms: N_18  and  C_19
REMARK    5  A    between atoms: C_19  and  C_20
REMARK                            x       y       z     vdW  Elec       q    Type
REMARK                         _______ _______ _______ _____ _____    ______ ____
ROOT
ATOM      1  C   UNL     1       7.713   7.500  18.031  0.00  0.00    +0.000 A 
ATOM      2  N   UNL     1       8.323   6.806  19.030  0.00  0.00    +0.000 NA
ATOM      3  C   UNL     1       7.993   5.513  19.222  0.00  0.00    +0.000 A 
ATOM      4  N   UNL     1       7.100   4.765  18.543  0.00  0.00    +0.000 NA
ATOM      5  C   UNL     1       6.509   5.495  17.574  0.00  0.00    +0.000 A 
ATOM      6  C   UNL     1       6.749   6.821  17.264  0.00  0.00    +0.000 A 
ATOM      7  N   UNL     1       5.947   7.210  16.232  0.00  0.00    +0.000 NA
ATOM      8  N   UNL     1       5.183   6.168  15.888  0.00  0.00    +0.000 NA
ATOM      9  N   UNL     1       5.525   5.131  16.693  0.00  0.00    +0.000 N 
ENDROOT
BRANCH   1  10
ATOM     10  N   UNL     1       8.032   8.844  17.812  0.00  0.00    +0.000 N 
ATOM     11  H   UNL     1       8.212   9.011  16.824  0.00  0.00    +0.000 HD
BRANCH  10  12
ATOM     12  C   UNL     1       9.016   9.392  18.739  0.00  0.00    +0.000 C 
BRANCH  12  19
ATOM     13  F   UNL     1      10.715  10.878  17.095  0.00  0.00    +0.000 F 
ATOM     14  C   UNL     1      10.233  11.528  18.169  0.00  0.00    +0.000 C 
ATOM     15  F   UNL     1       9.985  12.807  17.783  0.00  0.00    +0.000 F 
ATOM     16  C   UNL     1      11.220  11.547  19.323  0.00  0.00    +0.000 C 
ATOM     17  C   UNL     1      10.353  11.588  20.583  0.00  0.00    +0.000 C 
ATOM     18  C   UNL     1       8.900  11.538  20.110  0.00  0.00    +0.000 C 
ATOM     19  C   UNL     1       8.953  10.917  18.708  0.00  0.00    +0.000 C 
ENDBRANCH  12  19
ENDBRANCH  10  12
ENDBRANCH   1  10
BRANCH   9  20
ATOM     20  C   UNL     1       4.764   3.892  16.644  0.00  0.00    +0.000 C 
BRANCH  20  21
ATOM     21  C   UNL     1       3.761   3.811  17.768  0.00  0.00    +0.000 A 
ATOM     22  C   UNL     1       2.681   4.705  17.815  0.00  0.00    +0.000 A 
ATOM     23  C   UNL     1       1.861   4.764  18.943  0.00  0.00    +0.000 A 
ATOM     24  C   UNL     1       2.087   3.906  20.017  0.00  0.00    +0.000 A 
ATOM     25  C   UNL     1       3.106   2.959  19.948  0.00  0.00    +0.000 A 
ATOM     26  C   UNL     1       3.938   2.908  18.828  0.00  0.00    +0.000 A 
ENDBRANCH  20  21
ENDBRANCH   9  20
TORSDOF 5
ENDMDL
MODEL 6
REMARK VINA RESULT:      -7.9      2.901      7.031
REMARK  Name = 
REMARK  5 active torsions:
REMARK  status: ('A' for Active; 'I' for Inactive)
REMARK    1  A    between atoms: C_7  and  C_8
REMARK    2  A    between atoms: C_8  and  N_9
REMARK    3  A    between atoms: N_9  and  C_10
REMARK    4  A    between atoms: N_18  and  C_19
REMARK    5  A    between atoms: C_19  and  C_20
REMARK                            x       y       z     vdW  Elec       q    Type
REMARK                         _______ _______ _______ _____ _____    ______ ____
ROOT
ATOM      1  C   UNL     1       2.191   7.085  20.036  0.00  0.00    +0.000 A 
ATOM      2  N   UNL     1       1.552   7.084  21.238  0.00  0.00    +0.000 NA
ATOM      3  C   UNL     1       0.685   8.079  21.518  0.00  0.00    +0.000 A 
ATOM      4  N   UNL     1       0.342   9.133  20.750  0.00  0.00    +0.000 NA
ATOM      5  C   UNL     1       1.009   9.104  19.578  0.00  0.00    +0.000 A 
ATOM      6  C   UNL     1       1.920   8.151  19.158  0.00  0.00    +0.000 A 
ATOM      7  N   UNL     1       2.392   8.472  17.920  0.00  0.00    +0.000 NA
ATOM      8  N   UNL     1       1.821   9.621  17.546  0.00  0.00    +0.000 NA
ATOM      9  N   UNL     1       0.982  10.001  18.542  0.00  0.00    +0.000 N 
ENDROOT
BRANCH   1  10
ATOM     10  N   UNL     1       3.099   6.070  19.722  0.00  0.00    +0.000 N 
ATOM     11  H   UNL     1       3.410   6.156  18.756  0.00  0.00    +0.000 HD
BRANCH  10  12
ATOM     12  C   UNL     1       2.684   4.735  20.139  0.00  0.00    +0.000 C 
BRANCH  12  19
ATOM     13  F   UNL     1       1.488   2.244  20.536  0.00  0.00    +0.000 F 
ATOM     14  C   UNL     1       1.425   2.723  19.280  0.00  0.00    +0.000 C 
ATOM     15  F   UNL     1       0.210   2.379  18.782  0.00  0.00    +0.000 F 
ATOM     16  C   UNL     1       2.505   2.140  18.386  0.00  0.00    +0.000 C 
ATOM     17  C   UNL     1       2.798   3.233  17.356  0.00  0.00    +0.000 C 
ATOM     18  C   UNL     1       1.915   4.425  17.729  0.00  0.00    +0.000 C 
ATOM     19  C   UNL     1       1.580   4.231  19.213  0.00  0.00    +0.000 C 
ENDBRANCH  12  19
ENDBRANCH  10  12
ENDBRANCH   1  10
BRANCH   9  20
ATOM     20  C   UNL     1       0.316  11.292  18.479  0.00  0.00    +0.000 C 
BRANCH  20  21
ATOM     21  C   UNL     1      -1.153  11.145  18.166  0.00  0.00    +0.000 A 
ATOM     22  C   UNL     1      -2.093  11.985  18.781  0.00  0.00    +0.000 A 
ATOM     23  C   UNL     1      -3.459  11.735  18.647  0.00  0.00    +0.000 A 
ATOM     24  C   UNL     1      -3.901  10.667  17.867  0.00  0.00    +0.000 A 
ATOM     25  C   UNL     1      -2.979   9.876  17.186  0.00  0.00    +0.000 A 
ATOM     26  C   UNL     1      -1.611  10.113  17.330  0.00  0.00    +0.000 A 
ENDBRANCH  20  21
ENDBRANCH   9  20
TORSDOF 5
ENDMDL
MODEL 7
REMARK VINA RESULT:      -7.9      2.490      7.150
REMARK  Name = 
REMARK  5 active torsions:
REMARK  status: ('A' for Active; 'I' for Inactive)
REMARK    1  A    between atoms: C_7  and  C_8
REMARK    2  A    between atoms: C_8  and  N_9
REMARK    3  A    between atoms: N_9  and  C_10
REMARK    4  A    between atoms: N_18  and  C_19
REMARK    5  A    between atoms: C_19  and  C_20
REMARK                            x       y       z     vdW  Elec       q    Type
REMARK                         _______ _______ _______ _____ _____    ______ ____
ROOT
ATOM      1  C   UNL     1       2.234   7.390  19.710  0.00  0.00    +0.000 A 
ATOM      2  N   UNL     1       2.812   7.409  18.477  0.00  0.00    +0.000 NA
ATOM      3  C   UNL     1       2.561   8.447  17.654  0.00  0.00    +0.000 A 
ATOM      4  N   UNL     1       1.781   9.524  17.875  0.00  0.00    +0.000 NA
ATOM      5  C   UNL     1       1.217   9.458  19.099  0.00  0.00    +0.000 A 
ATOM      6  C   UNL     1       1.384   8.461  20.044  0.00  0.00    +0.000 A 
ATOM      7  N   UNL     1       0.641   8.740  21.151  0.00  0.00    +0.000 NA
ATOM      8  N   UNL     1      -0.017   9.883  20.930  0.00  0.00    +0.000 NA
ATOM      9  N   UNL     1       0.334  10.320  19.694  0.00  0.00    +0.000 N 
ENDROOT
BRANCH   1  10
ATOM     10  N   UNL     1       2.472   6.324  20.582  0.00  0.00    +0.000 N 
ATOM     11  H   UNL     1       3.471   6.205  20.735  0.00  0.00    +0.000 HD
BRANCH  10  12
ATOM     12  C   UNL     1       1.727   5.109  20.272  0.00  0.00    +0.000 C 
BRANCH  12  19
ATOM     13  F   UNL     1       1.121   4.722  17.574  0.00  0.00    +0.000 F 
ATOM     14  C   UNL     1       1.830   3.738  18.156  0.00  0.00    +0.000 C 
ATOM     15  F   UNL     1       2.724   3.293  17.235  0.00  0.00    +0.000 F 
ATOM     16  C   UNL     1       0.955   2.576  18.590  0.00  0.00    +0.000 C 
ATOM     17  C   UNL     1       1.666   1.980  19.807  0.00  0.00    +0.000 C 
ATOM     18  C   UNL     1       2.895   2.854  20.060  0.00  0.00    +0.000 C 
ATOM     19  C   UNL     1       2.579   4.198  19.392  0.00  0.00    +0.000 C 
ENDBRANCH  12  19
ENDBRANCH  10  12
ENDBRANCH   1  10
BRANCH   9  20
ATOM     20  C   UNL     1      -0.329  11.479  19.119  0.00  0.00    +0.000 C 
BRANCH  20  21
ATOM     21  C   UNL     1      -1.700  11.130  18.592  0.00  0.00    +0.000 A 
ATOM     22  C   UNL     1      -1.848  10.140  17.610  0.00  0.00    +0.000 A 
ATOM     23  C   UNL     1      -3.079   9.944  16.983  0.00  0.00    +0.000 A 
ATOM     24  C   UNL     1      -4.183  10.709  17.357  0.00  0.00    +0.000 A 
ATOM     25  C   UNL     1      -4.068  11.638  18.387  0.00  0.00    +0.000 A 
ATOM     26  C   UNL     1      -2.834  11.848  19.006  0.00  0.00    +0.000 A 
ENDBRANCH  20  21
ENDBRANCH   9  20
TORSDOF 5
ENDMDL
MODEL 8
REMARK VINA RESULT:      -7.8      3.349      7.336
REMARK  Name = 
REMARK  5 active torsions:
REMARK  status: ('A' for Active; 'I' for Inactive)
REMARK    1  A    between atoms: C_7  and  C_8
REMARK    2  A    between atoms: C_8  and  N_9
REMARK    3  A    between atoms: N_9  and  C_10
REMARK    4  A    between atoms: N_18  and  C_19
REMARK    5  A    between atoms: C_19  and  C_20
REMARK                            x       y       z     vdW  Elec       q    Type
REMARK                         _______ _______ _______ _____ _____    ______ ____
ROOT
ATOM      1  C   UNL     1       2.249   7.227  19.657  0.00  0.00    +0.000 A 
ATOM      2  N   UNL     1       2.856   7.260  18.439  0.00  0.00    +0.000 NA
ATOM      3  C   UNL     1       2.683   8.341  17.652  0.00  0.00    +0.000 A 
ATOM      4  N   UNL     1       1.958   9.451  17.899  0.00  0.00    +0.000 NA
ATOM      5  C   UNL     1       1.363   9.370  19.106  0.00  0.00    +0.000 A 
ATOM      6  C   UNL     1       1.452   8.330  20.014  0.00  0.00    +0.000 A 
ATOM      7  N   UNL     1       0.698   8.608  21.116  0.00  0.00    +0.000 NA
ATOM      8  N   UNL     1       0.110   9.793  20.926  0.00  0.00    +0.000 NA
ATOM      9  N   UNL     1       0.514  10.257  19.716  0.00  0.00    +0.000 N 
ENDROOT
BRANCH   1  10
ATOM     10  N   UNL     1       2.406   6.116  20.491  0.00  0.00    +0.000 N 
ATOM     11  H   UNL     1       2.515   6.411  21.460  0.00  0.00    +0.000 HD
BRANCH  10  12
ATOM     12  C   UNL     1       3.371   5.132  20.014  0.00  0.00    +0.000 C 
BRANCH  12  19
ATOM     13  F   UNL     1       4.689   2.957  18.862  0.00  0.00    +0.000 F 
ATOM     14  C   UNL     1       3.345   2.902  18.832  0.00  0.00    +0.000 C 
ATOM     15  F   UNL     1       2.993   1.607  19.040  0.00  0.00    +0.000 F 
ATOM     16  C   UNL     1       2.779   3.356  17.497  0.00  0.00    +0.000 C 
ATOM     17  C   UNL     1       1.409   3.950  17.830  0.00  0.00    +0.000 C 
ATOM     18  C   UNL     1       1.260   3.866  19.350  0.00  0.00    +0.000 C 
ATOM     19  C   UNL     1       2.692   3.770  19.892  0.00  0.00    +0.000 C 
ENDBRANCH  12  19
ENDBRANCH  10  12
ENDBRANCH   1  10
BRANCH   9  20
ATOM     20  C   UNL     1      -0.070  11.473  19.173  0.00  0.00    +0.000 C 
BRANCH  20  21
ATOM     21  C   UNL     1      -1.417  11.210  18.546  0.00  0.00    +0.000 A 
ATOM     22  C   UNL     1      -2.539  11.951  18.948  0.00  0.00    +0.000 A 
ATOM     23  C   UNL     1      -3.816  11.590  18.518  0.00  0.00    +0.000 A 
ATOM     24  C   UNL     1      -3.983  10.509  17.654  0.00  0.00    +0.000 A 
ATOM     25  C   UNL     1      -2.869   9.817  17.184  0.00  0.00    +0.000 A 
ATOM     26  C   UNL     1      -1.591  10.166  17.624  0.00  0.00    +0.000 A 
ENDBRANCH  20  21
ENDBRANCH   9  20
TORSDOF 5
ENDMDL
MODEL 9
REMARK VINA RESULT:      -7.8      6.451      8.558
REMARK  Name = 
REMARK  5 active torsions:
REMARK  status: ('A' for Active; 'I' for Inactive)
REMARK    1  A    between atoms: C_7  and  C_8
REMARK    2  A    between atoms: C_8  and  N_9
REMARK    3  A    between atoms: N_9  and  C_10
REMARK    4  A    between atoms: N_18  and  C_19
REMARK    5  A    between atoms: C_19  and  C_20
REMARK                            x       y       z     vdW  Elec       q    Type
REMARK                         _______ _______ _______ _____ _____    ______ ____
ROOT
ATOM      1  C   UNL     1       7.437   7.584  17.845  0.00  0.00    +0.000 A 
ATOM      2  N   UNL     1       8.166   7.010  18.842  0.00  0.00    +0.000 NA
ATOM      3  C   UNL     1       7.994   5.699  19.105  0.00  0.00    +0.000 A 
ATOM      4  N   UNL     1       7.162   4.825  18.503  0.00  0.00    +0.000 NA
ATOM      5  C   UNL     1       6.449   5.437  17.535  0.00  0.00    +0.000 A 
ATOM      6  C   UNL     1       6.523   6.766  17.157  0.00  0.00    +0.000 A 
ATOM      7  N   UNL     1       5.637   7.013  16.151  0.00  0.00    +0.000 NA
ATOM      8  N   UNL     1       4.981   5.877  15.890  0.00  0.00    +0.000 NA
ATOM      9  N   UNL     1       5.474   4.925  16.720  0.00  0.00    +0.000 N 
ENDROOT
BRANCH   1  10
ATOM     10  N   UNL     1       7.592   8.943  17.554  0.00  0.00    +0.000 N 
ATOM     11  H   UNL     1       7.215   9.155  16.632  0.00  0.00    +0.000 HD
BRANCH  10  12
ATOM     12  C   UNL     1       8.919   9.476  17.836  0.00  0.00    +0.000 C 
BRANCH  12  19
ATOM     13  F   UNL     1       8.144  12.021  16.989  0.00  0.00    +0.000 F 
ATOM     14  C   UNL     1       8.867  11.983  18.123  0.00  0.00    +0.000 C 
ATOM     15  F   UNL     1       8.362  12.935  18.950  0.00  0.00    +0.000 F 
ATOM     16  C   UNL     1      10.337  12.274  17.880  0.00  0.00    +0.000 C 
ATOM     17  C   UNL     1      11.079  11.494  18.967  0.00  0.00    +0.000 C 
ATOM     18  C   UNL     1      10.012  10.740  19.761  0.00  0.00    +0.000 C 
ATOM     19  C   UNL     1       8.805  10.637  18.821  0.00  0.00    +0.000 C 
ENDBRANCH  12  19
ENDBRANCH  10  12
ENDBRANCH   1  10
BRANCH   9  20
ATOM     20  C   UNL     1       4.858   3.608  16.762  0.00  0.00    +0.000 C 
BRANCH  20  21
ATOM     21  C   UNL     1       3.761   3.540  17.796  0.00  0.00    +0.000 A 
ATOM     22  C   UNL     1       3.987   2.901  19.024  0.00  0.00    +0.000 A 
ATOM     23  C   UNL     1       2.930   2.667  19.905  0.00  0.00    +0.000 A 
ATOM     24  C   UNL     1       1.645   3.102  19.586  0.00  0.00    +0.000 A 
ATOM     25  C   UNL     1       1.424   3.810  18.407  0.00  0.00    +0.000 A 
ATOM     26  C   UNL     1       2.476   4.032  17.516  0.00  0.00    +0.000 A 
ENDBRANCH  20  21
ENDBRANCH   9  20
TORSDOF 5
ENDMDL
