MODEL 1
REMARK VINA RESULT:      -8.2      0.000      0.000
REMARK  Name = 
REMARK  4 active torsions:
REMARK  status: ('A' for Active; 'I' for Inactive)
REMARK    1  A    between atoms: C_2  and  C_15
REMARK    2  A    between atoms: C_6  and  C_7
REMARK    3  A    between atoms: C_18  and  S_19
REMARK    4  A    between atoms: S_19  and  N_22
REMARK                            x       y       z     vdW  Elec       q    Type
REMARK                         _______ _______ _______ _____ _____    ______ ____
ROOT
ATOM      1  O   UNL     1       1.083   9.092  21.200  0.00  0.00    +0.000 OA
ATOM      2  C   UNL     1       1.153   8.987  19.979  0.00  0.00    +0.000 C 
ATOM      3  N   UNL     1       0.479   9.734  19.037  0.00  0.00    +0.000 N 
ATOM      4  C   UNL     1      -0.407  10.699  19.441  0.00  0.00    +0.000 A 
ATOM      5  N   UNL     1      -0.556  11.198  20.636  0.00  0.00    +0.000 NA
ATOM      6  C   UNL     1      -1.618  12.086  20.659  0.00  0.00    +0.000 A 
ATOM      7  C   UNL     1      -2.255  12.246  19.442  0.00  0.00    +0.000 A 
ATOM      8  S   UNL     1      -1.459  11.297  18.240  0.00  0.00    +0.000 S 
ATOM      9  H   UNL     1       0.476   9.484  18.061  0.00  0.00    +0.000 HD
ENDROOT
BRANCH   6  10
ATOM     10  C   UNL     1      -1.989  12.771  21.894  0.00  0.00    +0.000 A 
ATOM     11  C   UNL     1      -3.285  12.632  22.393  0.00  0.00    +0.000 A 
ATOM     12  C   UNL     1      -3.625  13.272  23.579  0.00  0.00    +0.000 A 
ATOM     13  C   UNL     1      -2.669  14.040  24.230  0.00  0.00    +0.000 A 
ATOM     14  C   UNL     1      -1.408  14.133  23.663  0.00  0.00    +0.000 A 
ATOM     15  N   UNL     1      -1.041  13.517  22.515  0.00  0.00    +0.000 NA
ENDBRANCH   6  10
BRANCH   2  16
ATOM     16  C   UNL     1       1.987   7.878  19.451  0.00  0.00    +0.000 A 
ATOM     17  C   UNL     1       2.183   6.765  20.283  0.00  0.00    +0.000 A 
ATOM     18  C   UNL     1       3.007   5.715  19.879  0.00  0.00    +0.000 A 
ATOM     19  C   UNL     1       3.635   5.770  18.633  0.00  0.00    +0.000 A 
ATOM     20  C   UNL     1       3.469   6.892  17.808  0.00  0.00    +0.000 A 
ATOM     21  C   UNL     1       2.637   7.946  18.213  0.00  0.00    +0.000 A 
BRANCH  19  22
ATOM     22  S   UNL     1       4.792   4.481  18.180  0.00  0.00    +0.000 S 
ATOM     23  O   UNL     1       5.355   4.850  16.897  0.00  0.00    +0.000 OA
ATOM     24  O   UNL     1       5.642   4.249  19.326  0.00  0.00    +0.000 OA
BRANCH  22  25
ATOM     25  N   UNL     1       3.836   3.110  17.956  0.00  0.00    +0.000 NA
ATOM     26  C   UNL     1       2.582   3.211  17.195  0.00  0.00    +0.000 C 
ATOM     27  C   UNL     1       1.505   2.981  18.238  0.00  0.00    +0.000 C 
ATOM     28  C   UNL     1       2.124   1.965  19.183  0.00  0.00    +0.000 C 
ATOM     29  C   UNL     1       3.634   2.174  19.081  0.00  0.00    +0.000 C 
ENDBRANCH  22  25
ENDBRANCH  19  22
ENDBRANCH   2  16
TORSDOF 4
ENDMDL
MODEL 2
REMARK VINA RESULT:      -8.2      2.903     10.315
REMARK  Name = 
REMARK  4 active torsions:
REMARK  status: ('A' for Active; 'I' for Inactive)
REMARK    1  A    between atoms: C_2  and  C_15
REMARK    2  A    between atoms: C_6  and  C_7
REMARK    3  A    between atoms: C_18  and  S_19
REMARK    4  A    between atoms: S_19  and  N_22
REMARK                            x       y       z     vdW  Elec       q    Type
REMARK                         _______ _______ _______ _____ _____    ______ ____
ROOT
ATOM      1  O   UNL     1       2.219   8.400  19.411  0.00  0.00    +0.000 OA
ATOM      2  C   UNL     1       1.615   8.022  20.410  0.00  0.00    +0.000 C 
ATOM      3  N   UNL     1       1.653   6.769  20.984  0.00  0.00    +0.000 N 
ATOM      4  C   UNL     1       2.406   5.780  20.408  0.00  0.00    +0.000 A 
ATOM      5  N   UNL     1       3.312   5.903  19.479  0.00  0.00    +0.000 NA
ATOM      6  C   UNL     1       3.784   4.658  19.096  0.00  0.00    +0.000 A 
ATOM      7  C   UNL     1       3.210   3.598  19.775  0.00  0.00    +0.000 A 
ATOM      8  S   UNL     1       2.098   4.193  20.951  0.00  0.00    +0.000 S 
ATOM      9  H   UNL     1       1.012   6.497  21.712  0.00  0.00    +0.000 HD
ENDROOT
BRANCH   6  10
ATOM     10  C   UNL     1       4.805   4.535  18.060  0.00  0.00    +0.000 A 
ATOM     11  C   UNL     1       4.433   4.144  16.774  0.00  0.00    +0.000 A 
ATOM     12  C   UNL     1       5.407   4.047  15.787  0.00  0.00    +0.000 A 
ATOM     13  C   UNL     1       6.726   4.333  16.112  0.00  0.00    +0.000 A 
ATOM     14  C   UNL     1       7.013   4.706  17.416  0.00  0.00    +0.000 A 
ATOM     15  N   UNL     1       6.088   4.819  18.397  0.00  0.00    +0.000 NA
ENDBRANCH   6  10
BRANCH   2  16
ATOM     16  C   UNL     1       0.670   8.988  21.025  0.00  0.00    +0.000 A 
ATOM     17  C   UNL     1       0.126   9.979  20.193  0.00  0.00    +0.000 A 
ATOM     18  C   UNL     1      -0.717  10.959  20.715  0.00  0.00    +0.000 A 
ATOM     19  C   UNL     1      -1.029  10.947  22.077  0.00  0.00    +0.000 A 
ATOM     20  C   UNL     1      -0.466   9.979  22.922  0.00  0.00    +0.000 A 
ATOM     21  C   UNL     1       0.379   8.991  22.395  0.00  0.00    +0.000 A 
BRANCH  19  22
ATOM     22  S   UNL     1      -2.005  12.283  22.761  0.00  0.00    +0.000 S 
ATOM     23  O   UNL     1      -3.013  11.680  23.609  0.00  0.00    +0.000 OA
ATOM     24  O   UNL     1      -1.080  13.263  23.286  0.00  0.00    +0.000 OA
BRANCH  22  25
ATOM     25  N   UNL     1      -2.783  12.966  21.429  0.00  0.00    +0.000 NA
ATOM     26  C   UNL     1      -2.417  14.317  20.983  0.00  0.00    +0.000 C 
ATOM     27  C   UNL     1      -3.647  15.148  21.293  0.00  0.00    +0.000 C 
ATOM     28  C   UNL     1      -4.803  14.196  21.038  0.00  0.00    +0.000 C 
ATOM     29  C   UNL     1      -4.242  12.795  21.275  0.00  0.00    +0.000 C 
ENDBRANCH  22  25
ENDBRANCH  19  22
ENDBRANCH   2  16
TORSDOF 4
ENDMDL
MODEL 3
REMARK VINA RESULT:      -8.1      2.813     10.353
REMARK  Name = 
REMARK  4 active torsions:
REMARK  status: ('A' for Active; 'I' for Inactive)
REMARK    1  A    between atoms: C_2  and  C_15
REMARK    2  A    between atoms: C_6  and  C_7
REMARK    3  A    between atoms: C_18  and  S_19
REMARK    4  A    between atoms: S_19  and  N_22
REMARK                            x       y       z     vdW  Elec       q    Type
REMARK                         _______ _______ _______ _____ _____    ______ ____
ROOT
ATOM      1  O   UNL     1       2.197   8.399  19.269  0.00  0.00    +0.000 OA
ATOM      2  C   UNL     1       1.602   8.041  20.280  0.00  0.00    +0.000 C 
ATOM      3  N   UNL     1       1.669   6.810  20.896  0.00  0.00    +0.000 N 
ATOM      4  C   UNL     1       2.447   5.819  20.354  0.00  0.00    +0.000 A 
ATOM      5  N   UNL     1       3.350   5.933  19.422  0.00  0.00    +0.000 NA
ATOM      6  C   UNL     1       3.852   4.688  19.082  0.00  0.00    +0.000 A 
ATOM      7  C   UNL     1       3.304   3.638  19.796  0.00  0.00    +0.000 A 
ATOM      8  S   UNL     1       2.176   4.245  20.951  0.00  0.00    +0.000 S 
ATOM      9  H   UNL     1       1.035   6.547  21.633  0.00  0.00    +0.000 HD
ENDROOT
BRANCH   6  10
ATOM     10  C   UNL     1       4.877   4.554  18.051  0.00  0.00    +0.000 A 
ATOM     11  C   UNL     1       4.503   4.205  16.753  0.00  0.00    +0.000 A 
ATOM     12  C   UNL     1       5.481   4.098  15.772  0.00  0.00    +0.000 A 
ATOM     13  C   UNL     1       6.806   4.332  16.112  0.00  0.00    +0.000 A 
ATOM     14  C   UNL     1       7.095   4.665  17.427  0.00  0.00    +0.000 A 
ATOM     15  N   UNL     1       6.167   4.787  18.404  0.00  0.00    +0.000 NA
ENDBRANCH   6  10
BRANCH   2  16
ATOM     16  C   UNL     1       0.633   9.004  20.861  0.00  0.00    +0.000 A 
ATOM     17  C   UNL     1       0.007   9.901  19.982  0.00  0.00    +0.000 A 
ATOM     18  C   UNL     1      -0.864  10.876  20.466  0.00  0.00    +0.000 A 
ATOM     19  C   UNL     1      -1.121  10.953  21.838  0.00  0.00    +0.000 A 
ATOM     20  C   UNL     1      -0.477  10.080  22.727  0.00  0.00    +0.000 A 
ATOM     21  C   UNL     1       0.396   9.098  22.239  0.00  0.00    +0.000 A 
BRANCH  19  22
ATOM     22  S   UNL     1      -2.137  12.289  22.461  0.00  0.00    +0.000 S 
ATOM     23  O   UNL     1      -2.769  12.911  21.316  0.00  0.00    +0.000 OA
ATOM     24  O   UNL     1      -2.928  11.753  23.547  0.00  0.00    +0.000 OA
BRANCH  22  25
ATOM     25  N   UNL     1      -1.038  13.390  23.113  0.00  0.00    +0.000 NA
ATOM     26  C   UNL     1      -1.496  14.386  24.092  0.00  0.00    +0.000 C 
ATOM     27  C   UNL     1      -1.370  15.705  23.356  0.00  0.00    +0.000 C 
ATOM     28  C   UNL     1      -0.135  15.521  22.489  0.00  0.00    +0.000 C 
ATOM     29  C   UNL     1      -0.032  14.019  22.233  0.00  0.00    +0.000 C 
ENDBRANCH  22  25
ENDBRANCH  19  22
ENDBRANCH   2  16
TORSDOF 4
ENDMDL
MODEL 4
REMARK VINA RESULT:      -8.0      1.189      1.554
REMARK  Name = 
REMARK  4 active torsions:
REMARK  status: ('A' for Active; 'I' for Inactive)
REMARK    1  A    between atoms: C_2  and  C_15
REMARK    2  A    between atoms: C_6  and  C_7
REMARK    3  A    between atoms: C_18  and  S_19
REMARK    4  A    between atoms: S_19  and  N_22
REMARK                            x       y       z     vdW  Elec       q    Type
REMARK                         _______ _______ _______ _____ _____    ______ ____
ROOT
ATOM      1  O   UNL     1       1.064   9.627  20.406  0.00  0.00    +0.000 OA
ATOM      2  C   UNL     1       1.101   9.107  19.295  0.00  0.00    +0.000 C 
ATOM      3  N   UNL     1       0.278   9.373  18.222  0.00  0.00    +0.000 N 
ATOM      4  C   UNL     1      -0.734  10.289  18.351  0.00  0.00    +0.000 A 
ATOM      5  N   UNL     1      -0.913  11.153  19.310  0.00  0.00    +0.000 NA
ATOM      6  C   UNL     1      -2.101  11.839  19.127  0.00  0.00    +0.000 A 
ATOM      7  C   UNL     1      -2.804  11.470  17.994  0.00  0.00    +0.000 A 
ATOM      8  S   UNL     1      -1.916  10.275  17.123  0.00  0.00    +0.000 S 
ATOM      9  H   UNL     1       0.277   8.797  17.396  0.00  0.00    +0.000 HD
ENDROOT
BRANCH   6  10
ATOM     10  C   UNL     1      -2.527  12.860  20.080  0.00  0.00    +0.000 A 
ATOM     11  C   UNL     1      -3.863  12.913  20.477  0.00  0.00    +0.000 A 
ATOM     12  C   UNL     1      -4.258  13.876  21.399  0.00  0.00    +0.000 A 
ATOM     13  C   UNL     1      -3.312  14.764  21.893  0.00  0.00    +0.000 A 
ATOM     14  C   UNL     1      -2.007  14.649  21.441  0.00  0.00    +0.000 A 
ATOM     15  N   UNL     1      -1.588  13.719  20.551  0.00  0.00    +0.000 NA
ENDBRANCH   6  10
BRANCH   2  16
ATOM     16  C   UNL     1       2.080   8.007  19.105  0.00  0.00    +0.000 A 
ATOM     17  C   UNL     1       2.794   7.980  17.897  0.00  0.00    +0.000 A 
ATOM     18  C   UNL     1       3.682   6.941  17.622  0.00  0.00    +0.000 A 
ATOM     19  C   UNL     1       3.866   5.923  18.562  0.00  0.00    +0.000 A 
ATOM     20  C   UNL     1       3.134   5.927  19.758  0.00  0.00    +0.000 A 
ATOM     21  C   UNL     1       2.245   6.974  20.036  0.00  0.00    +0.000 A 
BRANCH  19  22
ATOM     22  S   UNL     1       4.907   4.528  18.145  0.00  0.00    +0.000 S 
ATOM     23  O   UNL     1       5.492   4.809  16.850  0.00  0.00    +0.000 OA
ATOM     24  O   UNL     1       5.741   4.258  19.295  0.00  0.00    +0.000 OA
BRANCH  22  25
ATOM     25  N   UNL     1       3.836   3.237  17.965  0.00  0.00    +0.000 NA
ATOM     26  C   UNL     1       2.611   3.410  17.172  0.00  0.00    +0.000 C 
ATOM     27  C   UNL     1       1.499   3.329  18.199  0.00  0.00    +0.000 C 
ATOM     28  C   UNL     1       2.007   2.310  19.206  0.00  0.00    +0.000 C 
ATOM     29  C   UNL     1       3.531   2.380  19.128  0.00  0.00    +0.000 C 
ENDBRANCH  22  25
ENDBRANCH  19  22
ENDBRANCH   2  16
TORSDOF 4
ENDMDL
MODEL 5
REMARK VINA RESULT:      -8.0      2.848     10.300
REMARK  Name = 
REMARK  4 active torsions:
REMARK  status: ('A' for Active; 'I' for Inactive)
REMARK    1  A    between atoms: C_2  and  C_15
REMARK    2  A    between atoms: C_6  and  C_7
REMARK    3  A    between atoms: C_18  and  S_19
REMARK    4  A    between atoms: S_19  and  N_22
REMARK                            x       y       z     vdW  Elec       q    Type
REMARK                         _______ _______ _______ _____ _____    ______ ____
ROOT
ATOM      1  O   UNL     1       1.696   9.112  19.022  0.00  0.00    +0.000 OA
ATOM      2  C   UNL     1       1.288   8.806  20.139  0.00  0.00    +0.000 C 
ATOM      3  N   UNL     1       1.469   7.607  20.793  0.00  0.00    +0.000 N 
ATOM      4  C   UNL     1       2.146   6.589  20.173  0.00  0.00    +0.000 A 
ATOM      5  N   UNL     1       2.873   6.653  19.093  0.00  0.00    +0.000 NA
ATOM      6  C   UNL     1       3.315   5.392  18.733  0.00  0.00    +0.000 A 
ATOM      7  C   UNL     1       2.906   4.380  19.583  0.00  0.00    +0.000 A 
ATOM      8  S   UNL     1       1.993   5.047  20.885  0.00  0.00    +0.000 S 
ATOM      9  H   UNL     1       0.975   7.383  21.642  0.00  0.00    +0.000 HD
ENDROOT
BRANCH   6  10
ATOM     10  C   UNL     1       4.145   5.204  17.547  0.00  0.00    +0.000 A 
ATOM     11  C   UNL     1       4.563   6.318  16.819  0.00  0.00    +0.000 A 
ATOM     12  C   UNL     1       5.368   6.134  15.701  0.00  0.00    +0.000 A 
ATOM     13  C   UNL     1       5.728   4.844  15.335  0.00  0.00    +0.000 A 
ATOM     14  C   UNL     1       5.264   3.790  16.107  0.00  0.00    +0.000 A 
ATOM     15  N   UNL     1       4.486   3.936  17.205  0.00  0.00    +0.000 NA
ENDBRANCH   6  10
BRANCH   2  16
ATOM     16  C   UNL     1       0.430   9.800  20.832  0.00  0.00    +0.000 A 
ATOM     17  C   UNL     1       0.127   9.562  22.181  0.00  0.00    +0.000 A 
ATOM     18  C   UNL     1      -0.726  10.418  22.877  0.00  0.00    +0.000 A 
ATOM     19  C   UNL     1      -1.275  11.526  22.226  0.00  0.00    +0.000 A 
ATOM     20  C   UNL     1      -1.002  11.754  20.870  0.00  0.00    +0.000 A 
ATOM     21  C   UNL     1      -0.141  10.895  20.171  0.00  0.00    +0.000 A 
BRANCH  19  22
ATOM     22  S   UNL     1      -2.469  12.542  23.090  0.00  0.00    +0.000 S 
ATOM     23  O   UNL     1      -3.311  11.647  23.856  0.00  0.00    +0.000 OA
ATOM     24  O   UNL     1      -1.736  13.608  23.735  0.00  0.00    +0.000 OA
BRANCH  22  25
ATOM     25  N   UNL     1      -3.410  13.224  21.867  0.00  0.00    +0.000 NA
ATOM     26  C   UNL     1      -3.360  14.673  21.629  0.00  0.00    +0.000 C 
ATOM     27  C   UNL     1      -4.734  15.159  22.048  0.00  0.00    +0.000 C 
ATOM     28  C   UNL     1      -5.659  14.023  21.644  0.00  0.00    +0.000 C 
ATOM     29  C   UNL     1      -4.800  12.760  21.676  0.00  0.00    +0.000 C 
ENDBRANCH  22  25
ENDBRANCH  19  22
ENDBRANCH   2  16
TORSDOF 4
ENDMDL
MODEL 6
REMARK VINA RESULT:      -8.0      1.754      2.121
REMARK  Name = 
REMARK  4 active torsions:
REMARK  status: ('A' for Active; 'I' for Inactive)
REMARK    1  A    between atoms: C_2  and  C_15
REMARK    2  A    between atoms: C_6  and  C_7
REMARK    3  A    between atoms: C_18  and  S_19
REMARK    4  A    between atoms: S_19  and  N_22
REMARK                            x       y       z     vdW  Elec       q    Type
REMARK                         _______ _______ _______ _____ _____    ______ ____
ROOT
ATOM      1  O   UNL     1       1.415  10.217  18.910  0.00  0.00    +0.000 OA
ATOM      2  C   UNL     1       1.313   9.204  19.595  0.00  0.00    +0.000 C 
ATOM      3  N   UNL     1       0.610   9.059  20.772  0.00  0.00    +0.000 N 
ATOM      4  C   UNL     1      -0.046  10.136  21.309  0.00  0.00    +0.000 A 
ATOM      5  N   UNL     1      -0.307  11.279  20.739  0.00  0.00    +0.000 NA
ATOM      6  C   UNL     1      -0.906  12.142  21.641  0.00  0.00    +0.000 A 
ATOM      7  C   UNL     1      -1.097  11.607  22.902  0.00  0.00    +0.000 A 
ATOM      8  S   UNL     1      -0.557   9.969  22.927  0.00  0.00    +0.000 S 
ATOM      9  H   UNL     1       0.701   8.239  21.349  0.00  0.00    +0.000 HD
ENDROOT
BRANCH   6  10
ATOM     10  C   UNL     1      -1.288  13.492  21.238  0.00  0.00    +0.000 A 
ATOM     11  C   UNL     1      -0.488  14.190  20.332  0.00  0.00    +0.000 A 
ATOM     12  C   UNL     1      -0.868  15.468  19.939  0.00  0.00    +0.000 A 
ATOM     13  C   UNL     1      -2.028  16.019  20.465  0.00  0.00    +0.000 A 
ATOM     14  C   UNL     1      -2.762  15.263  21.366  0.00  0.00    +0.000 A 
ATOM     15  N   UNL     1      -2.426  14.013  21.763  0.00  0.00    +0.000 NA
ENDBRANCH   6  10
BRANCH   2  16
ATOM     16  C   UNL     1       2.101   8.023  19.161  0.00  0.00    +0.000 A 
ATOM     17  C   UNL     1       2.214   6.954  20.064  0.00  0.00    +0.000 A 
ATOM     18  C   UNL     1       2.992   5.841  19.750  0.00  0.00    +0.000 A 
ATOM     19  C   UNL     1       3.657   5.787  18.522  0.00  0.00    +0.000 A 
ATOM     20  C   UNL     1       3.574   6.863  17.626  0.00  0.00    +0.000 A 
ATOM     21  C   UNL     1       2.788   7.981  17.941  0.00  0.00    +0.000 A 
BRANCH  19  22
ATOM     22  S   UNL     1       4.756   4.414  18.184  0.00  0.00    +0.000 S 
ATOM     23  O   UNL     1       5.350   4.658  16.886  0.00  0.00    +0.000 OA
ATOM     24  O   UNL     1       5.581   4.229  19.357  0.00  0.00    +0.000 OA
BRANCH  22  25
ATOM     25  N   UNL     1       3.737   3.077  18.049  0.00  0.00    +0.000 NA
ATOM     26  C   UNL     1       2.498   3.179  17.265  0.00  0.00    +0.000 C 
ATOM     27  C   UNL     1       1.400   3.079  18.307  0.00  0.00    +0.000 C 
ATOM     28  C   UNL     1       1.960   2.108  19.333  0.00  0.00    +0.000 C 
ATOM     29  C   UNL     1       3.479   2.238  19.237  0.00  0.00    +0.000 C 
ENDBRANCH  22  25
ENDBRANCH  19  22
ENDBRANCH   2  16
TORSDOF 4
ENDMDL
MODEL 7
REMARK VINA RESULT:      -7.9      2.792     10.268
REMARK  Name = 
REMARK  4 active torsions:
REMARK  status: ('A' for Active; 'I' for Inactive)
REMARK    1  A    between atoms: C_2  and  C_15
REMARK    2  A    between atoms: C_6  and  C_7
REMARK    3  A    between atoms: C_18  and  S_19
REMARK    4  A    between atoms: S_19  and  N_22
REMARK                            x       y       z     vdW  Elec       q    Type
REMARK                         _______ _______ _______ _____ _____    ______ ____
ROOT
ATOM      1  O   UNL     1       2.168   8.668  19.115  0.00  0.00    +0.000 OA
ATOM      2  C   UNL     1       1.575   8.386  20.152  0.00  0.00    +0.000 C 
ATOM      3  N   UNL     1       1.601   7.185  20.828  0.00  0.00    +0.000 N 
ATOM      4  C   UNL     1       2.325   6.136  20.324  0.00  0.00    +0.000 A 
ATOM      5  N   UNL     1       3.217   6.164  19.373  0.00  0.00    +0.000 NA
ATOM      6  C   UNL     1       3.659   4.883  19.088  0.00  0.00    +0.000 A 
ATOM      7  C   UNL     1       3.078   3.894  19.861  0.00  0.00    +0.000 A 
ATOM      8  S   UNL     1       1.998   4.606  21.002  0.00  0.00    +0.000 S 
ATOM      9  H   UNL     1       0.969   6.987  21.587  0.00  0.00    +0.000 HD
ENDROOT
BRANCH   6  10
ATOM     10  C   UNL     1       4.658   4.654  18.049  0.00  0.00    +0.000 A 
ATOM     11  C   UNL     1       4.245   4.292  16.767  0.00  0.00    +0.000 A 
ATOM     12  C   UNL     1       5.201   4.093  15.778  0.00  0.00    +0.000 A 
ATOM     13  C   UNL     1       6.543   4.253  16.096  0.00  0.00    +0.000 A 
ATOM     14  C   UNL     1       6.871   4.606  17.396  0.00  0.00    +0.000 A 
ATOM     15  N   UNL     1       5.965   4.815  18.380  0.00  0.00    +0.000 NA
ENDBRANCH   6  10
BRANCH   2  16
ATOM     16  C   UNL     1       0.660   9.418  20.700  0.00  0.00    +0.000 A 
ATOM     17  C   UNL     1       0.275  10.461  19.843  0.00  0.00    +0.000 A 
ATOM     18  C   UNL     1      -0.530  11.500  20.308  0.00  0.00    +0.000 A 
ATOM     19  C   UNL     1      -0.964  11.496  21.636  0.00  0.00    +0.000 A 
ATOM     20  C   UNL     1      -0.560  10.473  22.508  0.00  0.00    +0.000 A 
ATOM     21  C   UNL     1       0.246   9.427  22.038  0.00  0.00    +0.000 A 
BRANCH  19  22
ATOM     22  S   UNL     1      -1.887  12.898  22.257  0.00  0.00    +0.000 S 
ATOM     23  O   UNL     1      -1.242  13.320  23.485  0.00  0.00    +0.000 OA
ATOM     24  O   UNL     1      -2.061  13.818  21.155  0.00  0.00    +0.000 OA
BRANCH  22  25
ATOM     25  N   UNL     1      -3.402  12.269  22.653  0.00  0.00    +0.000 NA
ATOM     26  C   UNL     1      -4.567  12.594  21.819  0.00  0.00    +0.000 C 
ATOM     27  C   UNL     1      -5.427  13.461  22.718  0.00  0.00    +0.000 C 
ATOM     28  C   UNL     1      -5.211  12.875  24.104  0.00  0.00    +0.000 C 
ATOM     29  C   UNL     1      -3.825  12.233  24.068  0.00  0.00    +0.000 C 
ENDBRANCH  22  25
ENDBRANCH  19  22
ENDBRANCH   2  16
TORSDOF 4
ENDMDL
MODEL 8
REMARK VINA RESULT:      -7.9      0.956      1.404
REMARK  Name = 
REMARK  4 active torsions:
REMARK  status: ('A' for Active; 'I' for Inactive)
REMARK    1  A    between atoms: C_2  and  C_15
REMARK    2  A    between atoms: C_6  and  C_7
REMARK    3  A    between atoms: C_18  and  S_19
REMARK    4  A    between atoms: S_19  and  N_22
REMARK                            x       y       z     vdW  Elec       q    Type
REMARK                         _______ _______ _______ _____ _____    ______ ____
ROOT
ATOM      1  O   UNL     1       0.116   8.413  21.098  0.00  0.00    +0.000 OA
ATOM      2  C   UNL     1       0.949   8.738  20.258  0.00  0.00    +0.000 C 
ATOM      3  N   UNL     1       1.051   9.950  19.608  0.00  0.00    +0.000 N 
ATOM      4  C   UNL     1       0.131  10.935  19.859  0.00  0.00    +0.000 A 
ATOM      5  N   UNL     1      -0.739  10.989  20.828  0.00  0.00    +0.000 NA
ATOM      6  C   UNL     1      -1.551  12.101  20.686  0.00  0.00    +0.000 A 
ATOM      7  C   UNL     1      -1.256  12.886  19.586  0.00  0.00    +0.000 A 
ATOM      8  S   UNL     1       0.105  12.232  18.752  0.00  0.00    +0.000 S 
ATOM      9  H   UNL     1       1.669  10.084  18.824  0.00  0.00    +0.000 HD
ENDROOT
BRANCH   6  10
ATOM     10  C   UNL     1      -2.613  12.375  21.650  0.00  0.00    +0.000 A 
ATOM     11  C   UNL     1      -3.854  12.823  21.194  0.00  0.00    +0.000 A 
ATOM     12  C   UNL     1      -4.866  13.065  22.116  0.00  0.00    +0.000 A 
ATOM     13  C   UNL     1      -4.612  12.862  23.465  0.00  0.00    +0.000 A 
ATOM     14  C   UNL     1      -3.349  12.424  23.836  0.00  0.00    +0.000 A 
ATOM     15  N   UNL     1      -2.345  12.172  22.964  0.00  0.00    +0.000 NA
ENDBRANCH   6  10
BRANCH   2  16
ATOM     16  C   UNL     1       1.905   7.688  19.824  0.00  0.00    +0.000 A 
ATOM     17  C   UNL     1       2.479   7.823  18.551  0.00  0.00    +0.000 A 
ATOM     18  C   UNL     1       3.335   6.842  18.052  0.00  0.00    +0.000 A 
ATOM     19  C   UNL     1       3.629   5.720  18.831  0.00  0.00    +0.000 A 
ATOM     20  C   UNL     1       3.036   5.563  20.093  0.00  0.00    +0.000 A 
ATOM     21  C   UNL     1       2.179   6.552  20.596  0.00  0.00    +0.000 A 
BRANCH  19  22
ATOM     22  S   UNL     1       4.622   4.406  18.130  0.00  0.00    +0.000 S 
ATOM     23  O   UNL     1       5.078   4.866  16.834  0.00  0.00    +0.000 OA
ATOM     24  O   UNL     1       5.564   3.994  19.147  0.00  0.00    +0.000 OA
BRANCH  22  25
ATOM     25  N   UNL     1       3.538   3.139  17.883  0.00  0.00    +0.000 NA
ATOM     26  C   UNL     1       2.229   3.407  17.269  0.00  0.00    +0.000 C 
ATOM     27  C   UNL     1       1.243   3.155  18.393  0.00  0.00    +0.000 C 
ATOM     28  C   UNL     1       1.863   2.006  19.171  0.00  0.00    +0.000 C 
ATOM     29  C   UNL     1       3.368   2.113  18.932  0.00  0.00    +0.000 C 
ENDBRANCH  22  25
ENDBRANCH  19  22
ENDBRANCH   2  16
TORSDOF 4
ENDMDL
MODEL 9
REMARK VINA RESULT:      -7.9      1.805      2.577
REMARK  Name = 
REMARK  4 active torsions:
REMARK  status: ('A' for Active; 'I' for Inactive)
REMARK    1  A    between atoms: C_2  and  C_15
REMARK    2  A    between atoms: C_6  and  C_7
REMARK    3  A    between atoms: C_18  and  S_19
REMARK    4  A    between atoms: S_19  and  N_22
REMARK                            x       y       z     vdW  Elec       q    Type
REMARK                         _______ _______ _______ _____ _____    ______ ____
ROOT
ATOM      1  O   UNL     1       0.507   8.919  21.848  0.00  0.00    +0.000 OA
ATOM      2  C   UNL     1       0.764   8.927  20.648  0.00  0.00    +0.000 C 
ATOM      3  N   UNL     1       0.306   9.820  19.703  0.00  0.00    +0.000 N 
ATOM      4  C   UNL     1      -0.560  10.817  20.072  0.00  0.00    +0.000 A 
ATOM      5  N   UNL     1      -0.862  11.207  21.278  0.00  0.00    +0.000 NA
ATOM      6  C   UNL     1      -1.846  12.180  21.239  0.00  0.00    +0.000 A 
ATOM      7  C   UNL     1      -2.266  12.515  19.964  0.00  0.00    +0.000 A 
ATOM      8  S   UNL     1      -1.360  11.621  18.800  0.00  0.00    +0.000 S 
ATOM      9  H   UNL     1       0.441   9.669  18.717  0.00  0.00    +0.000 HD
ENDROOT
BRANCH   6  10
ATOM     10  C   UNL     1      -2.359  12.772  22.471  0.00  0.00    +0.000 A 
ATOM     11  C   UNL     1      -1.689  13.853  23.043  0.00  0.00    +0.000 A 
ATOM     12  C   UNL     1      -2.192  14.424  24.207  0.00  0.00    +0.000 A 
ATOM     13  C   UNL     1      -3.345  13.895  24.772  0.00  0.00    +0.000 A 
ATOM     14  C   UNL     1      -3.945  12.814  24.146  0.00  0.00    +0.000 A 
ATOM     15  N   UNL     1      -3.486  12.241  23.009  0.00  0.00    +0.000 NA
ENDBRANCH   6  10
BRANCH   2  16
ATOM     16  C   UNL     1       1.588   7.805  20.133  0.00  0.00    +0.000 A 
ATOM     17  C   UNL     1       2.242   7.993  18.906  0.00  0.00    +0.000 A 
ATOM     18  C   UNL     1       2.980   6.960  18.330  0.00  0.00    +0.000 A 
ATOM     19  C   UNL     1       3.075   5.730  18.986  0.00  0.00    +0.000 A 
ATOM     20  C   UNL     1       2.400   5.524  20.198  0.00  0.00    +0.000 A 
ATOM     21  C   UNL     1       1.661   6.565  20.779  0.00  0.00    +0.000 A 
BRANCH  19  22
ATOM     22  S   UNL     1       3.915   4.372  18.178  0.00  0.00    +0.000 S 
ATOM     23  O   UNL     1       4.480   3.542  19.222  0.00  0.00    +0.000 OA
ATOM     24  O   UNL     1       2.998   3.821  17.205  0.00  0.00    +0.000 OA
BRANCH  22  25
ATOM     25  N   UNL     1       5.187   5.096  17.340  0.00  0.00    +0.000 NA
ATOM     26  C   UNL     1       5.241   5.008  15.874  0.00  0.00    +0.000 C 
ATOM     27  C   UNL     1       6.442   4.123  15.607  0.00  0.00    +0.000 C 
ATOM     28  C   UNL     1       7.420   4.494  16.710  0.00  0.00    +0.000 C 
ATOM     29  C   UNL     1       6.561   4.988  17.873  0.00  0.00    +0.000 C 
ENDBRANCH  22  25
ENDBRANCH  19  22
ENDBRANCH   2  16
TORSDOF 4
ENDMDL
