MODEL 1
REMARK VINA RESULT:      -8.8      0.000      0.000
REMARK  Name = 
REMARK  6 active torsions:
REMARK  status: ('A' for Active; 'I' for Inactive)
REMARK    1  A    between atoms: C_1  and  N_2
REMARK    2  A    between atoms: C_6  and  C_7
REMARK    3  A    between atoms: C_7  and  C_8
REMARK    4  A    between atoms: C_8  and  C_9
REMARK    5  A    between atoms: C_13  and  N_14
REMARK    6  A    between atoms: C_20  and  C_21
REMARK                            x       y       z     vdW  Elec       q    Type
REMARK                         _______ _______ _______ _____ _____    ______ ____
ROOT
ATOM      1  C   UNL     1       2.922   4.592  17.520  0.00  0.00    +0.000 A 
ATOM      2  C   UNL     1       4.271   4.758  17.175  0.00  0.00    +0.000 A 
ATOM      3  C   UNL     1       4.907   5.971  17.402  0.00  0.00    +0.000 A 
ATOM      4  C   UNL     1       4.189   7.036  17.940  0.00  0.00    +0.000 A 
ATOM      5  C   UNL     1       2.832   6.913  18.278  0.00  0.00    +0.000 A 
ATOM      6  C   UNL     1       2.222   5.660  18.126  0.00  0.00    +0.000 A 
ENDROOT
BRANCH   5   7
ATOM      7  N   UNL     1       2.113   8.072  18.663  0.00  0.00    +0.000 N 
ATOM      8  C   UNL     1       2.019   9.305  17.892  0.00  0.00    +0.000 C 
ATOM      9  C   UNL     1       1.217  10.199  18.795  0.00  0.00    +0.000 A 
ATOM     10  C   UNL     1       0.752  11.487  18.615  0.00  0.00    +0.000 A 
ATOM     11  C   UNL     1       0.060  12.055  19.681  0.00  0.00    +0.000 A 
ATOM     12  N   UNL     1      -0.170  11.434  20.870  0.00  0.00    +0.000 NA
ATOM     13  C   UNL     1       0.289  10.156  21.038  0.00  0.00    +0.000 A 
ATOM     14  C   UNL     1       0.957   9.547  19.997  0.00  0.00    +0.000 A 
ATOM     15  C   UNL     1       1.517   8.209  19.917  0.00  0.00    +0.000 C 
ATOM     16  O   UNL     1       1.458   7.433  20.852  0.00  0.00    +0.000 OA
BRANCH  13  17
ATOM     17  C   UNL     1       0.094   9.429  22.358  0.00  0.00    +0.000 C 
ATOM     18  F   UNL     1      -0.691   8.315  22.246  0.00  0.00    +0.000 F 
ATOM     19  F   UNL     1       1.258   8.980  22.908  0.00  0.00    +0.000 F 
ATOM     20  F   UNL     1      -0.525  10.194  23.304  0.00  0.00    +0.000 F 
ENDBRANCH  13  17
ENDBRANCH   5   7
BRANCH   1  21
ATOM     21  C   UNL     1       2.216   3.307  17.137  0.00  0.00    +0.000 C 
BRANCH  21  22
ATOM     22  C   UNL     1       2.569   2.115  18.026  0.00  0.00    +0.000 C 
BRANCH  22  28
ATOM     23  C   UNL     1       4.597   2.234  20.436  0.00  0.00    +0.000 C 
ATOM     24  N   UNL     1       3.177   2.455  20.488  0.00  0.00    +0.000 N 
ATOM     25  C   UNL     1       2.469   2.767  21.609  0.00  0.00    +0.000 A 
ATOM     26  N   UNL     1       1.199   2.886  21.305  0.00  0.00    +0.000 NA
ATOM     27  N   UNL     1       1.071   2.658  19.956  0.00  0.00    +0.000 NA
ATOM     28  C   UNL     1       2.268   2.404  19.461  0.00  0.00    +0.000 A 
ENDBRANCH  22  28
ENDBRANCH  21  22
ENDBRANCH   1  21
TORSDOF 5
ENDMDL
MODEL 2
REMARK VINA RESULT:      -8.6      0.610      1.144
REMARK  Name = 
REMARK  6 active torsions:
REMARK  status: ('A' for Active; 'I' for Inactive)
REMARK    1  A    between atoms: C_1  and  N_2
REMARK    2  A    between atoms: C_6  and  C_7
REMARK    3  A    between atoms: C_7  and  C_8
REMARK    4  A    between atoms: C_8  and  C_9
REMARK    5  A    between atoms: C_13  and  N_14
REMARK    6  A    between atoms: C_20  and  C_21
REMARK                            x       y       z     vdW  Elec       q    Type
REMARK                         _______ _______ _______ _____ _____    ______ ____
ROOT
ATOM      1  C   UNL     1       3.302   4.762  17.539  0.00  0.00    +0.000 A 
ATOM      2  C   UNL     1       4.583   5.094  17.074  0.00  0.00    +0.000 A 
ATOM      3  C   UNL     1       5.054   6.395  17.188  0.00  0.00    +0.000 A 
ATOM      4  C   UNL     1       4.234   7.379  17.734  0.00  0.00    +0.000 A 
ATOM      5  C   UNL     1       2.939   7.089  18.190  0.00  0.00    +0.000 A 
ATOM      6  C   UNL     1       2.505   5.757  18.150  0.00  0.00    +0.000 A 
ENDROOT
BRANCH   5   7
ATOM      7  N   UNL     1       2.093   8.157  18.579  0.00  0.00    +0.000 N 
ATOM      8  C   UNL     1       1.840   9.364  17.800  0.00  0.00    +0.000 C 
ATOM      9  C   UNL     1       0.951  10.163  18.710  0.00  0.00    +0.000 A 
ATOM     10  C   UNL     1       0.333  11.385  18.529  0.00  0.00    +0.000 A 
ATOM     11  C   UNL     1      -0.405  11.876  19.602  0.00  0.00    +0.000 A 
ATOM     12  N   UNL     1      -0.541  11.243  20.799  0.00  0.00    +0.000 NA
ATOM     13  C   UNL     1       0.070  10.031  20.968  0.00  0.00    +0.000 A 
ATOM     14  C   UNL     1       0.790   9.496  19.921  0.00  0.00    +0.000 A 
ATOM     15  C   UNL     1       1.504   8.234  19.841  0.00  0.00    +0.000 C 
ATOM     16  O   UNL     1       1.553   7.465  20.783  0.00  0.00    +0.000 OA
BRANCH  13  17
ATOM     17  C   UNL     1      -0.016   9.298  22.297  0.00  0.00    +0.000 C 
ATOM     18  F   UNL     1      -0.700   8.116  22.214  0.00  0.00    +0.000 F 
ATOM     19  F   UNL     1       1.201   8.959  22.810  0.00  0.00    +0.000 F 
ATOM     20  F   UNL     1      -0.671  10.010  23.259  0.00  0.00    +0.000 F 
ENDBRANCH  13  17
ENDBRANCH   5   7
BRANCH   1  21
ATOM     21  C   UNL     1       2.761   3.371  17.278  0.00  0.00    +0.000 C 
BRANCH  21  22
ATOM     22  C   UNL     1       3.357   2.293  18.183  0.00  0.00    +0.000 C 
BRANCH  22  28
ATOM     23  C   UNL     1       0.380   2.561  19.182  0.00  0.00    +0.000 C 
ATOM     24  N   UNL     1       1.567   2.548  19.993  0.00  0.00    +0.000 N 
ATOM     25  C   UNL     1       1.595   2.640  21.351  0.00  0.00    +0.000 A 
ATOM     26  N   UNL     1       2.838   2.608  21.767  0.00  0.00    +0.000 NA
ATOM     27  N   UNL     1       3.644   2.483  20.661  0.00  0.00    +0.000 NA
ATOM     28  C   UNL     1       2.874   2.439  19.589  0.00  0.00    +0.000 A 
ENDBRANCH  22  28
ENDBRANCH  21  22
ENDBRANCH   1  21
TORSDOF 5
ENDMDL
MODEL 3
REMARK VINA RESULT:      -8.4      3.750      7.984
REMARK  Name = 
REMARK  6 active torsions:
REMARK  status: ('A' for Active; 'I' for Inactive)
REMARK    1  A    between atoms: C_1  and  N_2
REMARK    2  A    between atoms: C_6  and  C_7
REMARK    3  A    between atoms: C_7  and  C_8
REMARK    4  A    between atoms: C_8  and  C_9
REMARK    5  A    between atoms: C_13  and  N_14
REMARK    6  A    between atoms: C_20  and  C_21
REMARK                            x       y       z     vdW  Elec       q    Type
REMARK                         _______ _______ _______ _____ _____    ______ ____
ROOT
ATOM      1  C   UNL     1       0.179   9.909  19.578  0.00  0.00    +0.000 A 
ATOM      2  C   UNL     1      -0.010   9.593  20.931  0.00  0.00    +0.000 A 
ATOM      3  C   UNL     1       0.745   8.594  21.529  0.00  0.00    +0.000 A 
ATOM      4  C   UNL     1       1.667   7.879  20.769  0.00  0.00    +0.000 A 
ATOM      5  C   UNL     1       1.869   8.152  19.408  0.00  0.00    +0.000 A 
ATOM      6  C   UNL     1       1.165   9.220  18.834  0.00  0.00    +0.000 A 
ENDROOT
BRANCH   5   7
ATOM      7  N   UNL     1       2.695   7.286  18.649  0.00  0.00    +0.000 N 
ATOM      8  C   UNL     1       3.644   7.703  17.624  0.00  0.00    +0.000 C 
ATOM      9  C   UNL     1       4.171   6.393  17.110  0.00  0.00    +0.000 A 
ATOM     10  C   UNL     1       5.133   6.114  16.159  0.00  0.00    +0.000 A 
ATOM     11  C   UNL     1       5.364   4.770  15.881  0.00  0.00    +0.000 A 
ATOM     12  N   UNL     1       4.703   3.736  16.469  0.00  0.00    +0.000 NA
ATOM     13  C   UNL     1       3.755   4.021  17.413  0.00  0.00    +0.000 A 
ATOM     14  C   UNL     1       3.513   5.339  17.738  0.00  0.00    +0.000 A 
ATOM     15  C   UNL     1       2.588   5.896  18.707  0.00  0.00    +0.000 C 
ATOM     16  O   UNL     1       1.858   5.189  19.376  0.00  0.00    +0.000 OA
BRANCH  13  17
ATOM     17  C   UNL     1       2.959   2.907  18.074  0.00  0.00    +0.000 C 
ATOM     18  F   UNL     1       3.313   1.662  17.632  0.00  0.00    +0.000 F 
ATOM     19  F   UNL     1       3.120   2.854  19.427  0.00  0.00    +0.000 F 
ATOM     20  F   UNL     1       1.619   2.992  17.834  0.00  0.00    +0.000 F 
ENDBRANCH  13  17
ENDBRANCH   5   7
BRANCH   1  21
ATOM     21  C   UNL     1      -0.750  10.905  18.916  0.00  0.00    +0.000 C 
BRANCH  21  22
ATOM     22  C   UNL     1      -1.437  10.374  17.658  0.00  0.00    +0.000 C 
BRANCH  22  28
ATOM     23  C   UNL     1      -3.208  10.477  15.053  0.00  0.00    +0.000 C 
ATOM     24  N   UNL     1      -3.557  10.974  16.357  0.00  0.00    +0.000 N 
ATOM     25  C   UNL     1      -4.737  11.570  16.683  0.00  0.00    +0.000 A 
ATOM     26  N   UNL     1      -4.718  11.913  17.949  0.00  0.00    +0.000 NA
ATOM     27  N   UNL     1      -3.507  11.524  18.468  0.00  0.00    +0.000 NA
ATOM     28  C   UNL     1      -2.808  10.950  17.506  0.00  0.00    +0.000 A 
ENDBRANCH  22  28
ENDBRANCH  21  22
ENDBRANCH   1  21
TORSDOF 5
ENDMDL
MODEL 4
REMARK VINA RESULT:      -8.3      0.673      1.427
REMARK  Name = 
REMARK  6 active torsions:
REMARK  status: ('A' for Active; 'I' for Inactive)
REMARK    1  A    between atoms: C_1  and  N_2
REMARK    2  A    between atoms: C_6  and  C_7
REMARK    3  A    between atoms: C_7  and  C_8
REMARK    4  A    between atoms: C_8  and  C_9
REMARK    5  A    between atoms: C_13  and  N_14
REMARK    6  A    between atoms: C_20  and  C_21
REMARK                            x       y       z     vdW  Elec       q    Type
REMARK                         _______ _______ _______ _____ _____    ______ ____
ROOT
ATOM      1  C   UNL     1       2.891   4.920  17.541  0.00  0.00    +0.000 A 
ATOM      2  C   UNL     1       4.184   5.165  17.058  0.00  0.00    +0.000 A 
ATOM      3  C   UNL     1       4.760   6.420  17.200  0.00  0.00    +0.000 A 
ATOM      4  C   UNL     1       4.031   7.448  17.792  0.00  0.00    +0.000 A 
ATOM      5  C   UNL     1       2.727   7.247  18.269  0.00  0.00    +0.000 A 
ATOM      6  C   UNL     1       2.187   5.955  18.199  0.00  0.00    +0.000 A 
ENDROOT
BRANCH   5   7
ATOM      7  N   UNL     1       1.977   8.366  18.708  0.00  0.00    +0.000 N 
ATOM      8  C   UNL     1       1.816   9.617  17.977  0.00  0.00    +0.000 C 
ATOM      9  C   UNL     1       1.006  10.453  18.927  0.00  0.00    +0.000 A 
ATOM     10  C   UNL     1       0.490  11.728  18.799  0.00  0.00    +0.000 A 
ATOM     11  C   UNL     1      -0.194  12.237  19.899  0.00  0.00    +0.000 A 
ATOM     12  N   UNL     1      -0.369  11.573  21.075  0.00  0.00    +0.000 NA
ATOM     13  C   UNL     1       0.142  10.309  21.191  0.00  0.00    +0.000 A 
ATOM     14  C   UNL     1       0.803   9.756  20.116  0.00  0.00    +0.000 A 
ATOM     15  C   UNL     1       1.409   8.444  19.980  0.00  0.00    +0.000 C 
ATOM     16  O   UNL     1       1.405   7.639  20.893  0.00  0.00    +0.000 OA
BRANCH  13  17
ATOM     17  C   UNL     1       0.009   9.537  22.494  0.00  0.00    +0.000 C 
ATOM     18  F   UNL     1      -0.584  10.264  23.489  0.00  0.00    +0.000 F 
ATOM     19  F   UNL     1      -0.755   8.413  22.383  0.00  0.00    +0.000 F 
ATOM     20  F   UNL     1       1.210   9.153  23.013  0.00  0.00    +0.000 F 
ENDBRANCH  13  17
ENDBRANCH   5   7
BRANCH   1  21
ATOM     21  C   UNL     1       2.236   3.585  17.252  0.00  0.00    +0.000 C 
BRANCH  21  22
ATOM     22  C   UNL     1       1.730   2.859  18.498  0.00  0.00    +0.000 C 
BRANCH  22  28
ATOM     23  C   UNL     1       1.786   2.993  21.647  0.00  0.00    +0.000 C 
ATOM     24  N   UNL     1       2.850   2.561  20.780  0.00  0.00    +0.000 N 
ATOM     25  C   UNL     1       4.072   2.123  21.189  0.00  0.00    +0.000 A 
ATOM     26  N   UNL     1       4.802   1.822  20.143  0.00  0.00    +0.000 NA
ATOM     27  N   UNL     1       4.042   2.058  19.023  0.00  0.00    +0.000 NA
ATOM     28  C   UNL     1       2.858   2.498  19.409  0.00  0.00    +0.000 A 
ENDBRANCH  22  28
ENDBRANCH  21  22
ENDBRANCH   1  21
TORSDOF 5
ENDMDL
MODEL 5
REMARK VINA RESULT:      -8.1      2.386      3.762
REMARK  Name = 
REMARK  6 active torsions:
REMARK  status: ('A' for Active; 'I' for Inactive)
REMARK    1  A    between atoms: C_1  and  N_2
REMARK    2  A    between atoms: C_6  and  C_7
REMARK    3  A    between atoms: C_7  and  C_8
REMARK    4  A    between atoms: C_8  and  C_9
REMARK    5  A    between atoms: C_13  and  N_14
REMARK    6  A    between atoms: C_20  and  C_21
REMARK                            x       y       z     vdW  Elec       q    Type
REMARK                         _______ _______ _______ _____ _____    ______ ____
ROOT
ATOM      1  C   UNL     1       4.279   4.526  17.484  0.00  0.00    +0.000 A 
ATOM      2  C   UNL     1       4.155   3.618  18.545  0.00  0.00    +0.000 A 
ATOM      3  C   UNL     1       3.354   3.922  19.637  0.00  0.00    +0.000 A 
ATOM      4  C   UNL     1       2.702   5.151  19.692  0.00  0.00    +0.000 A 
ATOM      5  C   UNL     1       2.819   6.094  18.659  0.00  0.00    +0.000 A 
ATOM      6  C   UNL     1       3.559   5.742  17.522  0.00  0.00    +0.000 A 
ENDROOT
BRANCH   5   7
ATOM      7  N   UNL     1       2.271   7.387  18.846  0.00  0.00    +0.000 N 
ATOM      8  C   UNL     1       2.428   8.513  17.933  0.00  0.00    +0.000 C 
ATOM      9  C   UNL     1       1.721   9.625  18.655  0.00  0.00    +0.000 A 
ATOM     10  C   UNL     1       1.483  10.935  18.289  0.00  0.00    +0.000 A 
ATOM     11  C   UNL     1       0.821  11.732  19.219  0.00  0.00    +0.000 A 
ATOM     12  N   UNL     1       0.413  11.308  20.447  0.00  0.00    +0.000 NA
ATOM     13  C   UNL     1       0.649  10.007  20.799  0.00  0.00    +0.000 A 
ATOM     14  C   UNL     1       1.279   9.177  19.897  0.00  0.00    +0.000 A 
ATOM     15  C   UNL     1       1.621   7.771  20.019  0.00  0.00    +0.000 C 
ATOM     16  O   UNL     1       1.376   7.138  21.029  0.00  0.00    +0.000 OA
BRANCH  13  17
ATOM     17  C   UNL     1       0.251   9.492  22.172  0.00  0.00    +0.000 C 
ATOM     18  F   UNL     1       1.314   9.036  22.902  0.00  0.00    +0.000 F 
ATOM     19  F   UNL     1      -0.329  10.441  22.961  0.00  0.00    +0.000 F 
ATOM     20  F   UNL     1      -0.611   8.436  22.119  0.00  0.00    +0.000 F 
ENDBRANCH  13  17
ENDBRANCH   5   7
BRANCH   1  21
ATOM     21  C   UNL     1       5.264   4.231  16.372  0.00  0.00    +0.000 C 
BRANCH  21  22
ATOM     22  C   UNL     1       6.725   4.227  16.820  0.00  0.00    +0.000 C 
BRANCH  22  28
ATOM     23  C   UNL     1       7.372   5.468  19.644  0.00  0.00    +0.000 C 
ATOM     24  N   UNL     1       7.481   6.120  18.366  0.00  0.00    +0.000 N 
ATOM     25  C   UNL     1       7.899   7.400  18.168  0.00  0.00    +0.000 A 
ATOM     26  N   UNL     1       7.866   7.678  16.887  0.00  0.00    +0.000 NA
ATOM     27  N   UNL     1       7.427   6.554  16.229  0.00  0.00    +0.000 NA
ATOM     28  C   UNL     1       7.201   5.610  17.124  0.00  0.00    +0.000 A 
ENDBRANCH  22  28
ENDBRANCH  21  22
ENDBRANCH   1  21
TORSDOF 5
ENDMDL
MODEL 6
REMARK VINA RESULT:      -8.1      4.004      8.051
REMARK  Name = 
REMARK  6 active torsions:
REMARK  status: ('A' for Active; 'I' for Inactive)
REMARK    1  A    between atoms: C_1  and  N_2
REMARK    2  A    between atoms: C_6  and  C_7
REMARK    3  A    between atoms: C_7  and  C_8
REMARK    4  A    between atoms: C_8  and  C_9
REMARK    5  A    between atoms: C_13  and  N_14
REMARK    6  A    between atoms: C_20  and  C_21
REMARK                            x       y       z     vdW  Elec       q    Type
REMARK                         _______ _______ _______ _____ _____    ______ ____
ROOT
ATOM      1  C   UNL     1       0.201   9.708  19.051  0.00  0.00    +0.000 A 
ATOM      2  C   UNL     1       0.047   9.546  20.436  0.00  0.00    +0.000 A 
ATOM      3  C   UNL     1       0.868   8.671  21.133  0.00  0.00    +0.000 A 
ATOM      4  C   UNL     1       1.821   7.924  20.446  0.00  0.00    +0.000 A 
ATOM      5  C   UNL     1       1.989   8.043  19.058  0.00  0.00    +0.000 A 
ATOM      6  C   UNL     1       1.216   8.993  18.376  0.00  0.00    +0.000 A 
ENDROOT
BRANCH   5   7
ATOM      7  N   UNL     1       2.855   7.141  18.391  0.00  0.00    +0.000 N 
ATOM      8  C   UNL     1       3.862   7.507  17.403  0.00  0.00    +0.000 C 
ATOM      9  C   UNL     1       4.414   6.174  16.984  0.00  0.00    +0.000 A 
ATOM     10  C   UNL     1       5.428   5.849  16.105  0.00  0.00    +0.000 A 
ATOM     11  C   UNL     1       5.671   4.493  15.907  0.00  0.00    +0.000 A 
ATOM     12  N   UNL     1       4.975   3.488  16.506  0.00  0.00    +0.000 NA
ATOM     13  C   UNL     1       3.975   3.820  17.380  0.00  0.00    +0.000 A 
ATOM     14  C   UNL     1       3.719   5.152  17.624  0.00  0.00    +0.000 A 
ATOM     15  C   UNL     1       2.740   5.756  18.511  0.00  0.00    +0.000 C 
ATOM     16  O   UNL     1       1.972   5.082  19.170  0.00  0.00    +0.000 OA
BRANCH  13  17
ATOM     17  C   UNL     1       3.140   2.739  18.047  0.00  0.00    +0.000 C 
ATOM     18  F   UNL     1       3.564   1.474  17.748  0.00  0.00    +0.000 F 
ATOM     19  F   UNL     1       3.162   2.800  19.409  0.00  0.00    +0.000 F 
ATOM     20  F   UNL     1       1.830   2.764  17.668  0.00  0.00    +0.000 F 
ENDBRANCH  13  17
ENDBRANCH   5   7
BRANCH   1  21
ATOM     21  C   UNL     1      -0.794  10.564  18.294  0.00  0.00    +0.000 C 
BRANCH  21  22
ATOM     22  C   UNL     1      -2.169   9.919  18.128  0.00  0.00    +0.000 C 
BRANCH  22  28
ATOM     23  C   UNL     1      -4.784  11.650  17.814  0.00  0.00    +0.000 C 
ATOM     24  N   UNL     1      -3.963  11.123  16.757  0.00  0.00    +0.000 N 
ATOM     25  C   UNL     1      -4.183  11.300  15.425  0.00  0.00    +0.000 A 
ATOM     26  N   UNL     1      -3.254  10.676  14.742  0.00  0.00    +0.000 NA
ATOM     27  N   UNL     1      -2.400  10.086  15.643  0.00  0.00    +0.000 NA
ATOM     28  C   UNL     1      -2.826  10.362  16.861  0.00  0.00    +0.000 A 
ENDBRANCH  22  28
ENDBRANCH  21  22
ENDBRANCH   1  21
TORSDOF 5
ENDMDL
MODEL 7
REMARK VINA RESULT:      -8.0      3.159      4.515
REMARK  Name = 
REMARK  6 active torsions:
REMARK  status: ('A' for Active; 'I' for Inactive)
REMARK    1  A    between atoms: C_1  and  N_2
REMARK    2  A    between atoms: C_6  and  C_7
REMARK    3  A    between atoms: C_7  and  C_8
REMARK    4  A    between atoms: C_8  and  C_9
REMARK    5  A    between atoms: C_13  and  N_14
REMARK    6  A    between atoms: C_20  and  C_21
REMARK                            x       y       z     vdW  Elec       q    Type
REMARK                         _______ _______ _______ _____ _____    ______ ____
ROOT
ATOM      1  C   UNL     1       4.514   4.223  17.721  0.00  0.00    +0.000 A 
ATOM      2  C   UNL     1       4.343   3.355  18.809  0.00  0.00    +0.000 A 
ATOM      3  C   UNL     1       3.480   3.690  19.843  0.00  0.00    +0.000 A 
ATOM      4  C   UNL     1       2.812   4.912  19.814  0.00  0.00    +0.000 A 
ATOM      5  C   UNL     1       2.974   5.815  18.753  0.00  0.00    +0.000 A 
ATOM      6  C   UNL     1       3.780   5.430  17.672  0.00  0.00    +0.000 A 
ENDROOT
BRANCH   5   7
ATOM      7  N   UNL     1       2.402   7.107  18.858  0.00  0.00    +0.000 N 
ATOM      8  C   UNL     1       2.562   8.185  17.889  0.00  0.00    +0.000 C 
ATOM      9  C   UNL     1       1.821   9.322  18.535  0.00  0.00    +0.000 A 
ATOM     10  C   UNL     1       1.571  10.607  18.095  0.00  0.00    +0.000 A 
ATOM     11  C   UNL     1       0.876  11.440  18.967  0.00  0.00    +0.000 A 
ATOM     12  N   UNL     1       0.449  11.076  20.207  0.00  0.00    +0.000 NA
ATOM     13  C   UNL     1       0.698   9.800  20.633  0.00  0.00    +0.000 A 
ATOM     14  C   UNL     1       1.360   8.934  19.790  0.00  0.00    +0.000 A 
ATOM     15  C   UNL     1       1.721   7.542  19.995  0.00  0.00    +0.000 C 
ATOM     16  O   UNL     1       1.464   6.960  21.032  0.00  0.00    +0.000 OA
BRANCH  13  17
ATOM     17  C   UNL     1       0.278   9.352  22.023  0.00  0.00    +0.000 C 
ATOM     18  F   UNL     1      -0.268  10.361  22.769  0.00  0.00    +0.000 F 
ATOM     19  F   UNL     1      -0.673   8.374  22.014  0.00  0.00    +0.000 F 
ATOM     20  F   UNL     1       1.318   8.890  22.774  0.00  0.00    +0.000 F 
ENDBRANCH  13  17
ENDBRANCH   5   7
BRANCH   1  21
ATOM     21  C   UNL     1       5.562   3.898  16.676  0.00  0.00    +0.000 C 
BRANCH  21  22
ATOM     22  C   UNL     1       5.159   4.279  15.252  0.00  0.00    +0.000 C 
BRANCH  22  28
ATOM     23  C   UNL     1       5.898   3.330  12.339  0.00  0.00    +0.000 C 
ATOM     24  N   UNL     1       6.642   4.242  13.167  0.00  0.00    +0.000 N 
ATOM     25  C   UNL     1       7.802   4.860  12.814  0.00  0.00    +0.000 A 
ATOM     26  N   UNL     1       8.217   5.611  13.806  0.00  0.00    +0.000 NA
ATOM     27  N   UNL     1       7.307   5.491  14.828  0.00  0.00    +0.000 NA
ATOM     28  C   UNL     1       6.350   4.668  14.439  0.00  0.00    +0.000 A 
ENDBRANCH  22  28
ENDBRANCH  21  22
ENDBRANCH   1  21
TORSDOF 5
ENDMDL
MODEL 8
REMARK VINA RESULT:      -8.0      3.753      7.499
REMARK  Name = 
REMARK  6 active torsions:
REMARK  status: ('A' for Active; 'I' for Inactive)
REMARK    1  A    between atoms: C_1  and  N_2
REMARK    2  A    between atoms: C_6  and  C_7
REMARK    3  A    between atoms: C_7  and  C_8
REMARK    4  A    between atoms: C_8  and  C_9
REMARK    5  A    between atoms: C_13  and  N_14
REMARK    6  A    between atoms: C_20  and  C_21
REMARK                            x       y       z     vdW  Elec       q    Type
REMARK                         _______ _______ _______ _____ _____    ______ ____
ROOT
ATOM      1  C   UNL     1       1.438   5.400  20.477  0.00  0.00    +0.000 A 
ATOM      2  C   UNL     1       0.782   4.163  20.559  0.00  0.00    +0.000 A 
ATOM      3  C   UNL     1       1.226   3.084  19.808  0.00  0.00    +0.000 A 
ATOM      4  C   UNL     1       2.305   3.243  18.943  0.00  0.00    +0.000 A 
ATOM      5  C   UNL     1       2.974   4.471  18.818  0.00  0.00    +0.000 A 
ATOM      6  C   UNL     1       2.573   5.531  19.644  0.00  0.00    +0.000 A 
ENDROOT
BRANCH   5   7
ATOM      7  N   UNL     1       3.952   4.620  17.805  0.00  0.00    +0.000 N 
ATOM      8  C   UNL     1       4.122   3.739  16.655  0.00  0.00    +0.000 C 
ATOM      9  C   UNL     1       5.330   4.315  15.973  0.00  0.00    +0.000 A 
ATOM     10  C   UNL     1       5.969   3.954  14.803  0.00  0.00    +0.000 A 
ATOM     11  C   UNL     1       7.107   4.680  14.464  0.00  0.00    +0.000 A 
ATOM     12  N   UNL     1       7.625   5.696  15.207  0.00  0.00    +0.000 NA
ATOM     13  C   UNL     1       6.983   6.050  16.363  0.00  0.00    +0.000 A 
ATOM     14  C   UNL     1       5.837   5.374  16.722  0.00  0.00    +0.000 A 
ATOM     15  C   UNL     1       4.972   5.570  17.872  0.00  0.00    +0.000 C 
ATOM     16  O   UNL     1       5.207   6.416  18.714  0.00  0.00    +0.000 OA
BRANCH  13  17
ATOM     17  C   UNL     1       7.539   7.151  17.251  0.00  0.00    +0.000 C 
ATOM     18  F   UNL     1       8.582   7.826  16.679  0.00  0.00    +0.000 F 
ATOM     19  F   UNL     1       6.626   8.117  17.554  0.00  0.00    +0.000 F 
ATOM     20  F   UNL     1       8.034   6.686  18.434  0.00  0.00    +0.000 F 
ENDBRANCH  13  17
ENDBRANCH   5   7
BRANCH   1  21
ATOM     21  C   UNL     1       0.852   6.595  21.199  0.00  0.00    +0.000 C 
BRANCH  21  22
ATOM     22  C   UNL     1       1.472   7.932  20.794  0.00  0.00    +0.000 C 
BRANCH  22  28
ATOM     23  C   UNL     1      -0.419  10.108  19.521  0.00  0.00    +0.000 C 
ATOM     24  N   UNL     1      -0.028  10.002  20.901  0.00  0.00    +0.000 N 
ATOM     25  C   UNL     1      -0.429  10.835  21.900  0.00  0.00    +0.000 A 
ATOM     26  N   UNL     1       0.122  10.462  23.029  0.00  0.00    +0.000 NA
ATOM     27  N   UNL     1       0.894   9.354  22.770  0.00  0.00    +0.000 NA
ATOM     28  C   UNL     1       0.797   9.072  21.484  0.00  0.00    +0.000 A 
ENDBRANCH  22  28
ENDBRANCH  21  22
ENDBRANCH   1  21
TORSDOF 5
ENDMDL
MODEL 9
REMARK VINA RESULT:      -8.0      3.915      8.192
REMARK  Name = 
REMARK  6 active torsions:
REMARK  status: ('A' for Active; 'I' for Inactive)
REMARK    1  A    between atoms: C_1  and  N_2
REMARK    2  A    between atoms: C_6  and  C_7
REMARK    3  A    between atoms: C_7  and  C_8
REMARK    4  A    between atoms: C_8  and  C_9
REMARK    5  A    between atoms: C_13  and  N_14
REMARK    6  A    between atoms: C_20  and  C_21
REMARK                            x       y       z     vdW  Elec       q    Type
REMARK                         _______ _______ _______ _____ _____    ______ ____
ROOT
ATOM      1  C   UNL     1       0.300  10.125  19.787  0.00  0.00    +0.000 A 
ATOM      2  C   UNL     1       0.242  10.142  21.188  0.00  0.00    +0.000 A 
ATOM      3  C   UNL     1       0.906   9.174  21.928  0.00  0.00    +0.000 A 
ATOM      4  C   UNL     1       1.601   8.161  21.272  0.00  0.00    +0.000 A 
ATOM      5  C   UNL     1       1.665   8.099  19.872  0.00  0.00    +0.000 A 
ATOM      6  C   UNL     1       1.064   9.130  19.135  0.00  0.00    +0.000 A 
ENDROOT
BRANCH   5   7
ATOM      7  N   UNL     1       2.242   6.959  19.261  0.00  0.00    +0.000 N 
ATOM      8  C   UNL     1       2.049   5.579  19.689  0.00  0.00    +0.000 C 
ATOM      9  C   UNL     1       2.938   4.814  18.751  0.00  0.00    +0.000 A 
ATOM     10  C   UNL     1       3.162   3.458  18.617  0.00  0.00    +0.000 A 
ATOM     11  C   UNL     1       4.094   3.070  17.659  0.00  0.00    +0.000 A 
ATOM     12  N   UNL     1       4.794   3.931  16.870  0.00  0.00    +0.000 NA
ATOM     13  C   UNL     1       4.563   5.273  17.006  0.00  0.00    +0.000 A 
ATOM     14  C   UNL     1       3.628   5.698  17.926  0.00  0.00    +0.000 A 
ATOM     15  C   UNL     1       3.191   7.046  18.242  0.00  0.00    +0.000 C 
ATOM     16  O   UNL     1       3.664   8.020  17.685  0.00  0.00    +0.000 OA
BRANCH  13  17
ATOM     17  C   UNL     1       5.344   6.281  16.179  0.00  0.00    +0.000 C 
ATOM     18  F   UNL     1       6.233   5.695  15.320  0.00  0.00    +0.000 F 
ATOM     19  F   UNL     1       4.555   7.059  15.384  0.00  0.00    +0.000 F 
ATOM     20  F   UNL     1       6.101   7.125  16.938  0.00  0.00    +0.000 F 
ENDBRANCH  13  17
ENDBRANCH   5   7
BRANCH   1  21
ATOM     21  C   UNL     1      -0.543  11.108  19.002  0.00  0.00    +0.000 C 
BRANCH  21  22
ATOM     22  C   UNL     1      -1.220  10.503  17.773  0.00  0.00    +0.000 C 
BRANCH  22  28
ATOM     23  C   UNL     1      -2.983  10.525  15.160  0.00  0.00    +0.000 C 
ATOM     24  N   UNL     1      -3.358  11.009  16.462  0.00  0.00    +0.000 N 
ATOM     25  C   UNL     1      -4.563  11.555  16.782  0.00  0.00    +0.000 A 
ATOM     26  N   UNL     1      -4.565  11.901  18.046  0.00  0.00    +0.000 NA
ATOM     27  N   UNL     1      -3.340  11.566  18.571  0.00  0.00    +0.000 NA
ATOM     28  C   UNL     1      -2.613  11.020  17.614  0.00  0.00    +0.000 A 
ENDBRANCH  22  28
ENDBRANCH  21  22
ENDBRANCH   1  21
TORSDOF 5
ENDMDL
