MODEL 1
REMARK VINA RESULT:      -8.7      0.000      0.000
REMARK  Name = 
REMARK  4 active torsions:
REMARK  status: ('A' for Active; 'I' for Inactive)
REMARK    1  A    between atoms: C_1  and  N_2
REMARK    2  A    between atoms: N_6  and  C_7
REMARK    3  A    between atoms: C_11  and  C_12
REMARK    4  A    between atoms: N_18  and  C_19
REMARK                            x       y       z     vdW  Elec       q    Type
REMARK                         _______ _______ _______ _____ _____    ______ ____
ROOT
ATOM      1  C   UNL     1       3.699   6.389  17.707  0.00  0.00    +0.000 A 
ATOM      2  C   UNL     1       3.124   7.656  17.850  0.00  0.00    +0.000 A 
ATOM      3  C   UNL     1       2.247   7.869  18.899  0.00  0.00    +0.000 A 
ATOM      4  C   UNL     1       1.903   6.884  19.817  0.00  0.00    +0.000 A 
ATOM      5  C   UNL     1       2.410   5.599  19.682  0.00  0.00    +0.000 A 
ATOM      6  C   UNL     1       3.305   5.371  18.614  0.00  0.00    +0.000 A 
ATOM      7  C   UNL     1       1.000   7.473  20.854  0.00  0.00    +0.000 C 
ATOM      8  N   UNL     1       0.832   8.854  20.420  0.00  0.00    +0.000 N 
ATOM      9  C   UNL     1       1.560   9.112  19.256  0.00  0.00    +0.000 C 
ATOM     10  O   UNL     1       1.686  10.125  18.592  0.00  0.00    +0.000 OA
ENDROOT
BRANCH   1  16
ATOM     11  C   UNL     1       8.335   4.715  18.533  0.00  0.00    +0.000 C 
ATOM     12  N   UNL     1       7.156   5.032  17.733  0.00  0.00    +0.000 NA
ATOM     13  C   UNL     1       7.175   4.348  16.437  0.00  0.00    +0.000 C 
ATOM     14  C   UNL     1       5.806   4.145  15.844  0.00  0.00    +0.000 C 
ATOM     15  C   UNL     1       4.722   4.904  16.058  0.00  0.00    +0.000 C 
ATOM     16  N   UNL     1       4.654   6.132  16.694  0.00  0.00    +0.000 N 
ATOM     17  C   UNL     1       5.848   7.007  16.701  0.00  0.00    +0.000 C 
ATOM     18  C   UNL     1       6.982   6.491  17.618  0.00  0.00    +0.000 C 
ENDBRANCH   1  16
BRANCH   8  19
ATOM     19  C   UNL     1       0.039   9.789  21.140  0.00  0.00    +0.000 A 
ATOM     20  C   UNL     1      -0.198   9.648  22.516  0.00  0.00    +0.000 A 
ATOM     21  C   UNL     1      -0.986  10.567  23.220  0.00  0.00    +0.000 A 
ATOM     22  C   UNL     1      -1.555  11.645  22.556  0.00  0.00    +0.000 A 
ATOM     23  C   UNL     1      -1.327  11.795  21.196  0.00  0.00    +0.000 A 
ATOM     24  F   UNL     1      -1.878  12.828  20.547  0.00  0.00    +0.000 F 
ATOM     25  C   UNL     1      -0.538  10.888  20.489  0.00  0.00    +0.000 A 
ENDBRANCH   8  19
BRANCH   5  26
ATOM     26  C   UNL     1       2.060   4.473  20.617  0.00  0.00    +0.000 C 
ATOM     27  F   UNL     1       0.722   4.225  20.687  0.00  0.00    +0.000 F 
ATOM     28  F   UNL     1       2.634   3.294  20.252  0.00  0.00    +0.000 F 
ATOM     29  F   UNL     1       2.456   4.708  21.896  0.00  0.00    +0.000 F 
ENDBRANCH   5  26
TORSDOF 3
ENDMDL
MODEL 2
REMARK VINA RESULT:      -8.3      2.880      8.009
REMARK  Name = 
REMARK  4 active torsions:
REMARK  status: ('A' for Active; 'I' for Inactive)
REMARK    1  A    between atoms: C_1  and  N_2
REMARK    2  A    between atoms: N_6  and  C_7
REMARK    3  A    between atoms: C_11  and  C_12
REMARK    4  A    between atoms: N_18  and  C_19
REMARK                            x       y       z     vdW  Elec       q    Type
REMARK                         _______ _______ _______ _____ _____    ______ ____
ROOT
ATOM      1  C   UNL     1       0.881  11.248  19.168  0.00  0.00    +0.000 A 
ATOM      2  C   UNL     1       1.578  10.225  18.518  0.00  0.00    +0.000 A 
ATOM      3  C   UNL     1       1.721   9.009  19.162  0.00  0.00    +0.000 A 
ATOM      4  C   UNL     1       1.211   8.753  20.429  0.00  0.00    +0.000 A 
ATOM      5  C   UNL     1       0.557   9.756  21.132  0.00  0.00    +0.000 A 
ATOM      6  C   UNL     1       0.408  11.002  20.484  0.00  0.00    +0.000 A 
ATOM      7  C   UNL     1       1.478   7.326  20.788  0.00  0.00    +0.000 C 
ATOM      8  N   UNL     1       2.216   6.815  19.640  0.00  0.00    +0.000 N 
ATOM      9  C   UNL     1       2.378   7.800  18.662  0.00  0.00    +0.000 C 
ATOM     10  O   UNL     1       2.920   7.771  17.572  0.00  0.00    +0.000 OA
ENDROOT
BRANCH   1  16
ATOM     11  C   UNL     1      -0.852  15.335  21.463  0.00  0.00    +0.000 C 
ATOM     12  N   UNL     1      -0.235  14.576  20.380  0.00  0.00    +0.000 NA
ATOM     13  C   UNL     1       0.484  15.446  19.445  0.00  0.00    +0.000 C 
ATOM     14  C   UNL     1       1.586  14.744  18.697  0.00  0.00    +0.000 C 
ATOM     15  C   UNL     1       1.645  13.438  18.400  0.00  0.00    +0.000 C 
ATOM     16  N   UNL     1       0.645  12.490  18.530  0.00  0.00    +0.000 N 
ATOM     17  C   UNL     1      -0.770  12.921  18.470  0.00  0.00    +0.000 C 
ATOM     18  C   UNL     1      -1.226  13.707  19.721  0.00  0.00    +0.000 C 
ENDBRANCH   1  16
BRANCH   8  19
ATOM     19  C   UNL     1       2.669   5.470  19.560  0.00  0.00    +0.000 A 
ATOM     20  C   UNL     1       4.031   5.159  19.429  0.00  0.00    +0.000 A 
ATOM     21  C   UNL     1       4.474   3.832  19.343  0.00  0.00    +0.000 A 
ATOM     22  C   UNL     1       3.556   2.791  19.383  0.00  0.00    +0.000 A 
ATOM     23  C   UNL     1       2.207   3.087  19.512  0.00  0.00    +0.000 A 
ATOM     24  F   UNL     1       1.315   2.089  19.544  0.00  0.00    +0.000 F 
ATOM     25  C   UNL     1       1.759   4.404  19.606  0.00  0.00    +0.000 A 
ENDBRANCH   8  19
BRANCH   5  26
ATOM     26  C   UNL     1       0.005   9.565  22.519  0.00  0.00    +0.000 C 
ATOM     27  F   UNL     1      -0.899   8.550  22.605  0.00  0.00    +0.000 F 
ATOM     28  F   UNL     1       0.974   9.273  23.431  0.00  0.00    +0.000 F 
ATOM     29  F   UNL     1      -0.636  10.669  22.987  0.00  0.00    +0.000 F 
ENDBRANCH   5  26
TORSDOF 3
ENDMDL
MODEL 3
REMARK VINA RESULT:      -8.2      2.816      8.155
REMARK  Name = 
REMARK  4 active torsions:
REMARK  status: ('A' for Active; 'I' for Inactive)
REMARK    1  A    between atoms: C_1  and  N_2
REMARK    2  A    between atoms: N_6  and  C_7
REMARK    3  A    between atoms: C_11  and  C_12
REMARK    4  A    between atoms: N_18  and  C_19
REMARK                            x       y       z     vdW  Elec       q    Type
REMARK                         _______ _______ _______ _____ _____    ______ ____
ROOT
ATOM      1  C   UNL     1       0.710  11.294  19.094  0.00  0.00    +0.000 A 
ATOM      2  C   UNL     1       1.421  10.367  18.326  0.00  0.00    +0.000 A 
ATOM      3  C   UNL     1       1.707   9.131  18.878  0.00  0.00    +0.000 A 
ATOM      4  C   UNL     1       1.328   8.764  20.163  0.00  0.00    +0.000 A 
ATOM      5  C   UNL     1       0.666   9.671  20.979  0.00  0.00    +0.000 A 
ATOM      6  C   UNL     1       0.370  10.936  20.426  0.00  0.00    +0.000 A 
ATOM      7  C   UNL     1       1.728   7.344  20.407  0.00  0.00    +0.000 C 
ATOM      8  N   UNL     1       2.399   6.959  19.173  0.00  0.00    +0.000 N 
ATOM      9  C   UNL     1       2.405   8.008  18.250  0.00  0.00    +0.000 C 
ATOM     10  O   UNL     1       2.852   8.084  17.120  0.00  0.00    +0.000 OA
ENDROOT
BRANCH   1  16
ATOM     11  C   UNL     1      -1.940  14.747  21.550  0.00  0.00    +0.000 C 
ATOM     12  N   UNL     1      -1.089  14.232  20.482  0.00  0.00    +0.000 NA
ATOM     13  C   UNL     1      -0.438  15.311  19.733  0.00  0.00    +0.000 C 
ATOM     14  C   UNL     1       0.842  14.889  19.062  0.00  0.00    +0.000 C 
ATOM     15  C   UNL     1       1.158  13.654  18.647  0.00  0.00    +0.000 C 
ATOM     16  N   UNL     1       0.330  12.548  18.558  0.00  0.00    +0.000 N 
ATOM     17  C   UNL     1      -1.124  12.750  18.366  0.00  0.00    +0.000 C 
ATOM     18  C   UNL     1      -1.839  13.299  19.622  0.00  0.00    +0.000 C 
ENDBRANCH   1  16
BRANCH   8  19
ATOM     19  C   UNL     1       2.940   5.659  18.971  0.00  0.00    +0.000 A 
ATOM     20  C   UNL     1       4.250   5.339  19.363  0.00  0.00    +0.000 A 
ATOM     21  C   UNL     1       4.782   4.060  19.157  0.00  0.00    +0.000 A 
ATOM     22  C   UNL     1       4.013   3.078  18.548  0.00  0.00    +0.000 A 
ATOM     23  C   UNL     1       2.718   3.384  18.156  0.00  0.00    +0.000 A 
ATOM     24  F   UNL     1       1.971   2.445  17.562  0.00  0.00    +0.000 F 
ATOM     25  C   UNL     1       2.177   4.652  18.365  0.00  0.00    +0.000 A 
ENDBRANCH   8  19
BRANCH   5  26
ATOM     26  C   UNL     1       0.250   9.359  22.391  0.00  0.00    +0.000 C 
ATOM     27  F   UNL     1      -0.320  10.416  23.034  0.00  0.00    +0.000 F 
ATOM     28  F   UNL     1      -0.665   8.352  22.456  0.00  0.00    +0.000 F 
ATOM     29  F   UNL     1       1.293   8.973  23.174  0.00  0.00    +0.000 F 
ENDBRANCH   5  26
TORSDOF 3
ENDMDL
MODEL 4
REMARK VINA RESULT:      -8.2      2.992      7.959
REMARK  Name = 
REMARK  4 active torsions:
REMARK  status: ('A' for Active; 'I' for Inactive)
REMARK    1  A    between atoms: C_1  and  N_2
REMARK    2  A    between atoms: N_6  and  C_7
REMARK    3  A    between atoms: C_11  and  C_12
REMARK    4  A    between atoms: N_18  and  C_19
REMARK                            x       y       z     vdW  Elec       q    Type
REMARK                         _______ _______ _______ _____ _____    ______ ____
ROOT
ATOM      1  C   UNL     1       0.984  11.248  19.240  0.00  0.00    +0.000 A 
ATOM      2  C   UNL     1       1.600  10.139  18.651  0.00  0.00    +0.000 A 
ATOM      3  C   UNL     1       1.640   8.952  19.358  0.00  0.00    +0.000 A 
ATOM      4  C   UNL     1       1.104   8.804  20.632  0.00  0.00    +0.000 A 
ATOM      5  C   UNL     1       0.529   9.892  21.275  0.00  0.00    +0.000 A 
ATOM      6  C   UNL     1       0.485  11.110  20.562  0.00  0.00    +0.000 A 
ATOM      7  C   UNL     1       1.252   7.380  21.066  0.00  0.00    +0.000 C 
ATOM      8  N   UNL     1       1.952   6.753  19.953  0.00  0.00    +0.000 N 
ATOM      9  C   UNL     1       2.199   7.669  18.927  0.00  0.00    +0.000 C 
ATOM     10  O   UNL     1       2.744   7.540  17.846  0.00  0.00    +0.000 OA
ENDROOT
BRANCH   1  16
ATOM     11  C   UNL     1      -0.360  15.590  21.317  0.00  0.00    +0.000 C 
ATOM     12  N   UNL     1       0.179  14.723  20.274  0.00  0.00    +0.000 NA
ATOM     13  C   UNL     1       0.963  15.474  19.290  0.00  0.00    +0.000 C 
ATOM     14  C   UNL     1       1.992  14.637  18.576  0.00  0.00    +0.000 C 
ATOM     15  C   UNL     1       1.932  13.317  18.351  0.00  0.00    +0.000 C 
ATOM     16  N   UNL     1       0.853  12.470  18.537  0.00  0.00    +0.000 N 
ATOM     17  C   UNL     1      -0.518  13.021  18.459  0.00  0.00    +0.000 C 
ATOM     18  C   UNL     1      -0.892  13.911  19.667  0.00  0.00    +0.000 C 
ENDBRANCH   1  16
BRANCH   8  19
ATOM     19  C   UNL     1       2.295   5.373  19.947  0.00  0.00    +0.000 A 
ATOM     20  C   UNL     1       1.367   4.382  20.304  0.00  0.00    +0.000 A 
ATOM     21  C   UNL     1       1.710   3.024  20.305  0.00  0.00    +0.000 A 
ATOM     22  C   UNL     1       2.994   2.633  19.951  0.00  0.00    +0.000 A 
ATOM     23  C   UNL     1       3.920   3.604  19.597  0.00  0.00    +0.000 A 
ATOM     24  F   UNL     1       5.162   3.235  19.261  0.00  0.00    +0.000 F 
ATOM     25  C   UNL     1       3.584   4.957  19.586  0.00  0.00    +0.000 A 
ENDBRANCH   8  19
BRANCH   5  26
ATOM     26  C   UNL     1      -0.044   9.818  22.664  0.00  0.00    +0.000 C 
ATOM     27  F   UNL     1      -0.602  10.990  23.081  0.00  0.00    +0.000 F 
ATOM     28  F   UNL     1      -1.028   8.883  22.775  0.00  0.00    +0.000 F 
ATOM     29  F   UNL     1       0.887   9.501  23.602  0.00  0.00    +0.000 F 
ENDBRANCH   5  26
TORSDOF 3
ENDMDL
MODEL 5
REMARK VINA RESULT:      -8.1      2.859      8.315
REMARK  Name = 
REMARK  4 active torsions:
REMARK  status: ('A' for Active; 'I' for Inactive)
REMARK    1  A    between atoms: C_1  and  N_2
REMARK    2  A    between atoms: N_6  and  C_7
REMARK    3  A    between atoms: C_11  and  C_12
REMARK    4  A    between atoms: N_18  and  C_19
REMARK                            x       y       z     vdW  Elec       q    Type
REMARK                         _______ _______ _______ _____ _____    ______ ____
ROOT
ATOM      1  C   UNL     1       0.045  11.574  19.441  0.00  0.00    +0.000 A 
ATOM      2  C   UNL     1       0.797  10.758  18.590  0.00  0.00    +0.000 A 
ATOM      3  C   UNL     1       1.243   9.539  19.067  0.00  0.00    +0.000 A 
ATOM      4  C   UNL     1       0.987   9.083  20.354  0.00  0.00    +0.000 A 
ATOM      5  C   UNL     1       0.288   9.882  21.248  0.00  0.00    +0.000 A 
ATOM      6  C   UNL     1      -0.171  11.130  20.772  0.00  0.00    +0.000 A 
ATOM      7  C   UNL     1       1.546   7.704  20.508  0.00  0.00    +0.000 C 
ATOM      8  N   UNL     1       2.173   7.442  19.220  0.00  0.00    +0.000 N 
ATOM      9  C   UNL     1       2.012   8.521  18.347  0.00  0.00    +0.000 C 
ATOM     10  O   UNL     1       2.376   8.689  17.198  0.00  0.00    +0.000 OA
ENDROOT
BRANCH   1  16
ATOM     11  C   UNL     1      -1.093  15.442  22.394  0.00  0.00    +0.000 C 
ATOM     12  N   UNL     1      -0.835  14.764  21.128  0.00  0.00    +0.000 NA
ATOM     13  C   UNL     1      -0.558  15.713  20.046  0.00  0.00    +0.000 C 
ATOM     14  C   UNL     1       0.265  15.128  18.929  0.00  0.00    +0.000 C 
ATOM     15  C   UNL     1       0.319  13.839  18.566  0.00  0.00    +0.000 C 
ATOM     16  N   UNL     1      -0.495  12.802  18.987  0.00  0.00    +0.000 N 
ATOM     17  C   UNL     1      -1.871  13.103  19.441  0.00  0.00    +0.000 C 
ATOM     18  C   UNL     1      -1.923  13.821  20.810  0.00  0.00    +0.000 C 
ENDBRANCH   1  16
BRANCH   8  19
ATOM     19  C   UNL     1       2.831   6.216  18.927  0.00  0.00    +0.000 A 
ATOM     20  C   UNL     1       4.073   5.893  19.497  0.00  0.00    +0.000 A 
ATOM     21  C   UNL     1       4.722   4.688  19.201  0.00  0.00    +0.000 A 
ATOM     22  C   UNL     1       4.140   3.784  18.322  0.00  0.00    +0.000 A 
ATOM     23  C   UNL     1       2.913   4.093  17.753  0.00  0.00    +0.000 A 
ATOM     24  F   UNL     1       2.348   3.230  16.900  0.00  0.00    +0.000 F 
ATOM     25  C   UNL     1       2.257   5.287  18.049  0.00  0.00    +0.000 A 
ENDBRANCH   8  19
BRANCH   5  26
ATOM     26  C   UNL     1      -0.002   9.472  22.667  0.00  0.00    +0.000 C 
ATOM     27  F   UNL     1      -0.783   8.358  22.758  0.00  0.00    +0.000 F 
ATOM     28  F   UNL     1       1.128   9.187  23.370  0.00  0.00    +0.000 F 
ATOM     29  F   UNL     1      -0.654  10.435  23.371  0.00  0.00    +0.000 F 
ENDBRANCH   5  26
TORSDOF 3
ENDMDL
MODEL 6
REMARK VINA RESULT:      -8.1      0.860      1.257
REMARK  Name = 
REMARK  4 active torsions:
REMARK  status: ('A' for Active; 'I' for Inactive)
REMARK    1  A    between atoms: C_1  and  N_2
REMARK    2  A    between atoms: N_6  and  C_7
REMARK    3  A    between atoms: C_11  and  C_12
REMARK    4  A    between atoms: N_18  and  C_19
REMARK                            x       y       z     vdW  Elec       q    Type
REMARK                         _______ _______ _______ _____ _____    ______ ____
ROOT
ATOM      1  C   UNL     1       3.862   6.509  17.673  0.00  0.00    +0.000 A 
ATOM      2  C   UNL     1       3.281   7.781  17.646  0.00  0.00    +0.000 A 
ATOM      3  C   UNL     1       2.312   8.085  18.584  0.00  0.00    +0.000 A 
ATOM      4  C   UNL     1       1.878   7.187  19.552  0.00  0.00    +0.000 A 
ATOM      5  C   UNL     1       2.390   5.897  19.583  0.00  0.00    +0.000 A 
ATOM      6  C   UNL     1       3.380   5.575  18.628  0.00  0.00    +0.000 A 
ATOM      7  C   UNL     1       0.886   7.864  20.443  0.00  0.00    +0.000 C 
ATOM      8  N   UNL     1       0.766   9.199  19.871  0.00  0.00    +0.000 N 
ATOM      9  C   UNL     1       1.600   9.352  18.761  0.00  0.00    +0.000 C 
ATOM     10  O   UNL     1       1.792  10.302  18.023  0.00  0.00    +0.000 OA
ENDROOT
BRANCH   1  16
ATOM     11  C   UNL     1       8.443   5.089  19.077  0.00  0.00    +0.000 C 
ATOM     12  N   UNL     1       7.331   5.273  18.149  0.00  0.00    +0.000 NA
ATOM     13  C   UNL     1       7.477   4.443  16.950  0.00  0.00    +0.000 C 
ATOM     14  C   UNL     1       6.169   4.129  16.274  0.00  0.00    +0.000 C 
ATOM     15  C   UNL     1       5.055   4.873  16.304  0.00  0.00    +0.000 C 
ATOM     16  N   UNL     1       4.906   6.164  16.781  0.00  0.00    +0.000 N 
ATOM     17  C   UNL     1       6.076   7.071  16.783  0.00  0.00    +0.000 C 
ATOM     18  C   UNL     1       7.137   6.703  17.846  0.00  0.00    +0.000 C 
ENDBRANCH   1  16
BRANCH   8  19
ATOM     19  C   UNL     1      -0.087  10.193  20.425  0.00  0.00    +0.000 A 
ATOM     20  C   UNL     1      -0.777  11.107  19.613  0.00  0.00    +0.000 A 
ATOM     21  C   UNL     1      -1.610  12.089  20.163  0.00  0.00    +0.000 A 
ATOM     22  C   UNL     1      -1.765  12.177  21.540  0.00  0.00    +0.000 A 
ATOM     23  C   UNL     1      -1.088  11.279  22.351  0.00  0.00    +0.000 A 
ATOM     24  F   UNL     1      -1.226  11.361  23.681  0.00  0.00    +0.000 F 
ATOM     25  C   UNL     1      -0.262  10.293  21.812  0.00  0.00    +0.000 A 
ENDBRANCH   8  19
BRANCH   5  26
ATOM     26  C   UNL     1       1.949   4.859  20.579  0.00  0.00    +0.000 C 
ATOM     27  F   UNL     1       0.596   4.713  20.645  0.00  0.00    +0.000 F 
ATOM     28  F   UNL     1       2.439   3.621  20.295  0.00  0.00    +0.000 F 
ATOM     29  F   UNL     1       2.350   5.143  21.847  0.00  0.00    +0.000 F 
ENDBRANCH   5  26
TORSDOF 3
ENDMDL
MODEL 7
REMARK VINA RESULT:      -8.1      2.934      8.338
REMARK  Name = 
REMARK  4 active torsions:
REMARK  status: ('A' for Active; 'I' for Inactive)
REMARK    1  A    between atoms: C_1  and  N_2
REMARK    2  A    between atoms: N_6  and  C_7
REMARK    3  A    between atoms: C_11  and  C_12
REMARK    4  A    between atoms: N_18  and  C_19
REMARK                            x       y       z     vdW  Elec       q    Type
REMARK                         _______ _______ _______ _____ _____    ______ ____
ROOT
ATOM      1  C   UNL     1       0.011  11.721  19.609  0.00  0.00    +0.000 A 
ATOM      2  C   UNL     1       0.754  10.931  18.725  0.00  0.00    +0.000 A 
ATOM      3  C   UNL     1       1.180   9.686  19.149  0.00  0.00    +0.000 A 
ATOM      4  C   UNL     1       0.914   9.179  20.415  0.00  0.00    +0.000 A 
ATOM      5  C   UNL     1       0.225   9.949  21.342  0.00  0.00    +0.000 A 
ATOM      6  C   UNL     1      -0.214  11.223  20.919  0.00  0.00    +0.000 A 
ATOM      7  C   UNL     1       1.452   7.786  20.511  0.00  0.00    +0.000 C 
ATOM      8  N   UNL     1       2.078   7.570  19.213  0.00  0.00    +0.000 N 
ATOM      9  C   UNL     1       1.935   8.688  18.388  0.00  0.00    +0.000 C 
ATOM     10  O   UNL     1       2.304   8.900  17.247  0.00  0.00    +0.000 OA
ENDROOT
BRANCH   1  16
ATOM     11  C   UNL     1      -0.197  15.775  22.523  0.00  0.00    +0.000 C 
ATOM     12  N   UNL     1      -0.253  15.033  21.268  0.00  0.00    +0.000 NA
ATOM     13  C   UNL     1      -0.125  15.915  20.105  0.00  0.00    +0.000 C 
ATOM     14  C   UNL     1       0.407  15.221  18.879  0.00  0.00    +0.000 C 
ATOM     15  C   UNL     1       0.284  13.920  18.580  0.00  0.00    +0.000 C 
ATOM     16  N   UNL     1      -0.509  12.975  19.207  0.00  0.00    +0.000 N 
ATOM     17  C   UNL     1      -1.738  13.413  19.907  0.00  0.00    +0.000 C 
ATOM     18  C   UNL     1      -1.455  14.180  21.220  0.00  0.00    +0.000 C 
ENDBRANCH   1  16
BRANCH   8  19
ATOM     19  C   UNL     1       2.719   6.348  18.869  0.00  0.00    +0.000 A 
ATOM     20  C   UNL     1       2.099   5.401  18.039  0.00  0.00    +0.000 A 
ATOM     21  C   UNL     1       2.729   4.195  17.708  0.00  0.00    +0.000 A 
ATOM     22  C   UNL     1       3.994   3.913  18.206  0.00  0.00    +0.000 A 
ATOM     23  C   UNL     1       4.616   4.843  19.027  0.00  0.00    +0.000 A 
ATOM     24  F   UNL     1       5.832   4.576  19.518  0.00  0.00    +0.000 F 
ATOM     25  C   UNL     1       3.998   6.049  19.356  0.00  0.00    +0.000 A 
ENDBRANCH   8  19
BRANCH   5  26
ATOM     26  C   UNL     1      -0.074   9.483  22.741  0.00  0.00    +0.000 C 
ATOM     27  F   UNL     1      -0.853   8.365  22.783  0.00  0.00    +0.000 F 
ATOM     28  F   UNL     1       1.052   9.173  23.441  0.00  0.00    +0.000 F 
ATOM     29  F   UNL     1      -0.734  10.416  23.478  0.00  0.00    +0.000 F 
ENDBRANCH   5  26
TORSDOF 3
ENDMDL
MODEL 8
REMARK VINA RESULT:      -8.0      2.895      8.201
REMARK  Name = 
REMARK  4 active torsions:
REMARK  status: ('A' for Active; 'I' for Inactive)
REMARK    1  A    between atoms: C_1  and  N_2
REMARK    2  A    between atoms: N_6  and  C_7
REMARK    3  A    between atoms: C_11  and  C_12
REMARK    4  A    between atoms: N_18  and  C_19
REMARK                            x       y       z     vdW  Elec       q    Type
REMARK                         _______ _______ _______ _____ _____    ______ ____
ROOT
ATOM      1  C   UNL     1       0.599  11.406  19.308  0.00  0.00    +0.000 A 
ATOM      2  C   UNL     1       1.315  10.441  18.593  0.00  0.00    +0.000 A 
ATOM      3  C   UNL     1       1.550   9.216  19.190  0.00  0.00    +0.000 A 
ATOM      4  C   UNL     1       1.117   8.895  20.471  0.00  0.00    +0.000 A 
ATOM      5  C   UNL     1       0.449   9.842  21.236  0.00  0.00    +0.000 A 
ATOM      6  C   UNL     1       0.205  11.097  20.636  0.00  0.00    +0.000 A 
ATOM      7  C   UNL     1       1.474   7.474  20.770  0.00  0.00    +0.000 C 
ATOM      8  N   UNL     1       2.179   7.037  19.572  0.00  0.00    +0.000 N 
ATOM      9  C   UNL     1       2.242   8.058  18.620  0.00  0.00    +0.000 C 
ATOM     10  O   UNL     1       2.731   8.090  17.505  0.00  0.00    +0.000 OA
ENDROOT
BRANCH   1  16
ATOM     11  C   UNL     1      -1.219  15.329  21.814  0.00  0.00    +0.000 C 
ATOM     12  N   UNL     1      -0.619  14.635  20.679  0.00  0.00    +0.000 NA
ATOM     13  C   UNL     1       0.007  15.569  19.738  0.00  0.00    +0.000 C 
ATOM     14  C   UNL     1       1.104  14.947  18.915  0.00  0.00    +0.000 C 
ATOM     15  C   UNL     1       1.213  13.655  18.574  0.00  0.00    +0.000 C 
ATOM     16  N   UNL     1       0.270  12.653  18.723  0.00  0.00    +0.000 N 
ATOM     17  C   UNL     1      -1.166  13.012  18.745  0.00  0.00    +0.000 C 
ATOM     18  C   UNL     1      -1.598  13.736  20.041  0.00  0.00    +0.000 C 
ENDBRANCH   1  16
BRANCH   8  19
ATOM     19  C   UNL     1       2.695   5.720  19.427  0.00  0.00    +0.000 A 
ATOM     20  C   UNL     1       1.859   4.593  19.473  0.00  0.00    +0.000 A 
ATOM     21  C   UNL     1       2.371   3.296  19.338  0.00  0.00    +0.000 A 
ATOM     22  C   UNL     1       3.735   3.105  19.158  0.00  0.00    +0.000 A 
ATOM     23  C   UNL     1       4.569   4.211  19.110  0.00  0.00    +0.000 A 
ATOM     24  F   UNL     1       5.886   4.035  18.944  0.00  0.00    +0.000 F 
ATOM     25  C   UNL     1       4.066   5.506  19.237  0.00  0.00    +0.000 A 
ENDBRANCH   8  19
BRANCH   5  26
ATOM     26  C   UNL     1      -0.024   9.581  22.640  0.00  0.00    +0.000 C 
ATOM     27  F   UNL     1       0.988   9.292  23.506  0.00  0.00    +0.000 F 
ATOM     28  F   UNL     1      -0.675  10.648  23.179  0.00  0.00    +0.000 F 
ATOM     29  F   UNL     1      -0.885   8.532  22.720  0.00  0.00    +0.000 F 
ENDBRANCH   5  26
TORSDOF 3
ENDMDL
MODEL 9
REMARK VINA RESULT:      -8.0      3.075      8.412
REMARK  Name = 
REMARK  4 active torsions:
REMARK  status: ('A' for Active; 'I' for Inactive)
REMARK    1  A    between atoms: C_1  and  N_2
REMARK    2  A    between atoms: N_6  and  C_7
REMARK    3  A    between atoms: C_11  and  C_12
REMARK    4  A    between atoms: N_18  and  C_19
REMARK                            x       y       z     vdW  Elec       q    Type
REMARK                         _______ _______ _______ _____ _____    ______ ____
ROOT
ATOM      1  C   UNL     1      -0.155  12.211  19.943  0.00  0.00    +0.000 A 
ATOM      2  C   UNL     1       0.595  11.577  18.948  0.00  0.00    +0.000 A 
ATOM      3  C   UNL     1       1.046  10.291  19.179  0.00  0.00    +0.000 A 
ATOM      4  C   UNL     1       0.797   9.594  20.355  0.00  0.00    +0.000 A 
ATOM      5  C   UNL     1       0.100  10.204  21.390  0.00  0.00    +0.000 A 
ATOM      6  C   UNL     1      -0.364  11.519  21.165  0.00  0.00    +0.000 A 
ATOM      7  C   UNL     1       1.359   8.213  20.239  0.00  0.00    +0.000 C 
ATOM      8  N   UNL     1       1.982   8.206  18.921  0.00  0.00    +0.000 N 
ATOM      9  C   UNL     1       1.814   9.433  18.274  0.00  0.00    +0.000 C 
ATOM     10  O   UNL     1       2.173   9.820  17.177  0.00  0.00    +0.000 OA
ENDROOT
BRANCH   1  16
ATOM     11  C   UNL     1       1.426  16.363  22.232  0.00  0.00    +0.000 C 
ATOM     12  N   UNL     1       0.701  15.588  21.230  0.00  0.00    +0.000 NA
ATOM     13  C   UNL     1       0.316  16.409  20.078  0.00  0.00    +0.000 C 
ATOM     14  C   UNL     1       0.120  15.616  18.814  0.00  0.00    +0.000 C 
ATOM     15  C   UNL     1      -0.241  14.328  18.725  0.00  0.00    +0.000 C 
ATOM     16  N   UNL     1      -0.700  13.502  19.736  0.00  0.00    +0.000 N 
ATOM     17  C   UNL     1      -1.387  14.102  20.902  0.00  0.00    +0.000 C 
ATOM     18  C   UNL     1      -0.436  14.877  21.843  0.00  0.00    +0.000 C 
ENDBRANCH   1  16
BRANCH   8  19
ATOM     19  C   UNL     1       2.642   7.062  18.395  0.00  0.00    +0.000 A 
ATOM     20  C   UNL     1       3.922   7.147  17.826  0.00  0.00    +0.000 A 
ATOM     21  C   UNL     1       4.566   6.020  17.301  0.00  0.00    +0.000 A 
ATOM     22  C   UNL     1       3.936   4.783  17.335  0.00  0.00    +0.000 A 
ATOM     23  C   UNL     1       2.671   4.687  17.895  0.00  0.00    +0.000 A 
ATOM     24  F   UNL     1       2.054   3.499  17.925  0.00  0.00    +0.000 F 
ATOM     25  C   UNL     1       2.026   5.803  18.426  0.00  0.00    +0.000 A 
ENDBRANCH   8  19
BRANCH   5  26
ATOM     26  C   UNL     1      -0.183   9.527  22.703  0.00  0.00    +0.000 C 
ATOM     27  F   UNL     1       0.943   9.197  23.396  0.00  0.00    +0.000 F 
ATOM     28  F   UNL     1      -0.917  10.306  23.545  0.00  0.00    +0.000 F 
ATOM     29  F   UNL     1      -0.877   8.367  22.559  0.00  0.00    +0.000 F 
ENDBRANCH   5  26
TORSDOF 3
ENDMDL
