MODEL 1
REMARK VINA RESULT:      -9.3      0.000      0.000
REMARK  Name = 
REMARK  5 active torsions:
REMARK  status: ('A' for Active; 'I' for Inactive)
REMARK    1  A    between atoms: C_1  and  C_2
REMARK    2  A    between atoms: C_6  and  N_7
REMARK    3  A    between atoms: N_7  and  S_8
REMARK    4  A    between atoms: S_8  and  C_11
REMARK    5  A    between atoms: C_15  and  C_16
REMARK                            x       y       z     vdW  Elec       q    Type
REMARK                         _______ _______ _______ _____ _____    ______ ____
ROOT
ATOM      1  C   UNL     1       2.763   4.465  18.863  0.00  0.00    +0.000 A 
ATOM      2  C   UNL     1       2.534   4.278  20.230  0.00  0.00    +0.000 A 
ATOM      3  C   UNL     1       2.072   5.337  21.017  0.00  0.00    +0.000 A 
ATOM      4  C   UNL     1       1.894   6.603  20.450  0.00  0.00    +0.000 A 
ATOM      5  C   UNL     1       2.183   6.851  19.094  0.00  0.00    +0.000 A 
ATOM      6  C   UNL     1       2.553   5.748  18.284  0.00  0.00    +0.000 A 
ENDROOT
BRANCH   5   7
ATOM      7  C   UNL     1       1.940   8.279  18.612  0.00  0.00    +0.000 C 
ATOM      8  O   UNL     1       2.260   8.515  17.447  0.00  0.00    +0.000 OA
ATOM      9  N   UNL     1       1.294   9.244  19.408  0.00  0.00    +0.000 N 
ATOM     10  C   UNL     1       1.246  10.643  18.910  0.00  0.00    +0.000 C 
ATOM     11  C   UNL     1      -0.076  11.350  19.247  0.00  0.00    +0.000 C 
ATOM     12  C   UNL     1      -0.373  11.200  20.694  0.00  0.00    +0.000 A 
ATOM     13  S   UNL     1      -1.230  12.363  21.591  0.00  0.00    +0.000 S 
ATOM     14  C   UNL     1      -1.242  11.374  22.969  0.00  0.00    +0.000 A 
ATOM     15  C   UNL     1      -0.694  10.145  22.676  0.00  0.00    +0.000 A 
ATOM     16  C   UNL     1       0.015  10.095  21.418  0.00  0.00    +0.000 A 
ATOM     17  C   UNL     1       1.023   9.087  20.848  0.00  0.00    +0.000 C 
ENDBRANCH   5   7
BRANCH   1  18
ATOM     18  S   UNL     1       2.965   2.967  17.857  0.00  0.00    +0.000 S 
ATOM     19  O   UNL     1       2.150   3.160  16.670  0.00  0.00    +0.000 OA
ATOM     20  O   UNL     1       2.753   1.842  18.730  0.00  0.00    +0.000 OA
BRANCH  18  21
ATOM     21  N   UNL     1       4.591   2.832  17.395  0.00  0.00    +0.000 N 
ATOM     22  H   UNL     1       5.067   2.080  17.896  0.00  0.00    +0.000 HD
BRANCH  21  28
ATOM     23  C   UNL     1       7.954   6.328  18.796  0.00  0.00    +0.000 C 
ATOM     24  C   UNL     1       7.017   5.629  17.849  0.00  0.00    +0.000 A 
ATOM     25  C   UNL     1       7.010   6.048  16.533  0.00  0.00    +0.000 A 
ATOM     26  C   UNL     1       6.134   5.509  15.577  0.00  0.00    +0.000 A 
ATOM     27  C   UNL     1       5.296   4.481  15.893  0.00  0.00    +0.000 A 
ATOM     28  C   UNL     1       5.324   4.004  17.185  0.00  0.00    +0.000 A 
ATOM     29  C   UNL     1       6.148   4.588  18.175  0.00  0.00    +0.000 A 
ENDBRANCH  21  28
ENDBRANCH  18  21
ENDBRANCH   1  18
TORSDOF 4
ENDMDL
MODEL 2
REMARK VINA RESULT:      -9.3      1.203      1.853
REMARK  Name = 
REMARK  5 active torsions:
REMARK  status: ('A' for Active; 'I' for Inactive)
REMARK    1  A    between atoms: C_1  and  C_2
REMARK    2  A    between atoms: C_6  and  N_7
REMARK    3  A    between atoms: N_7  and  S_8
REMARK    4  A    between atoms: S_8  and  C_11
REMARK    5  A    between atoms: C_15  and  C_16
REMARK                            x       y       z     vdW  Elec       q    Type
REMARK                         _______ _______ _______ _____ _____    ______ ____
ROOT
ATOM      1  C   UNL     1       3.540   4.486  19.671  0.00  0.00    +0.000 A 
ATOM      2  C   UNL     1       2.681   4.077  20.696  0.00  0.00    +0.000 A 
ATOM      3  C   UNL     1       1.618   4.893  21.090  0.00  0.00    +0.000 A 
ATOM      4  C   UNL     1       1.444   6.149  20.499  0.00  0.00    +0.000 A 
ATOM      5  C   UNL     1       2.329   6.629  19.514  0.00  0.00    +0.000 A 
ATOM      6  C   UNL     1       3.342   5.752  19.051  0.00  0.00    +0.000 A 
ENDROOT
BRANCH   5   7
ATOM      7  C   UNL     1       2.015   8.015  18.956  0.00  0.00    +0.000 C 
ATOM      8  O   UNL     1       2.323   8.203  17.778  0.00  0.00    +0.000 OA
ATOM      9  N   UNL     1       1.322   8.989  19.699  0.00  0.00    +0.000 N 
ATOM     10  C   UNL     1       1.205  10.354  19.126  0.00  0.00    +0.000 C 
ATOM     11  C   UNL     1      -0.150  11.013  19.428  0.00  0.00    +0.000 C 
ATOM     12  C   UNL     1      -0.439  10.927  20.881  0.00  0.00    +0.000 A 
ATOM     13  S   UNL     1      -1.352  12.094  21.716  0.00  0.00    +0.000 S 
ATOM     14  C   UNL     1      -1.315  11.182  23.147  0.00  0.00    +0.000 A 
ATOM     15  C   UNL     1      -0.707   9.968  22.920  0.00  0.00    +0.000 A 
ATOM     16  C   UNL     1       0.003   9.884  21.663  0.00  0.00    +0.000 A 
ATOM     17  C   UNL     1       1.059   8.898  21.146  0.00  0.00    +0.000 C 
ENDBRANCH   5   7
BRANCH   1  18
ATOM     18  S   UNL     1       4.623   3.215  18.958  0.00  0.00    +0.000 S 
ATOM     19  O   UNL     1       3.895   2.637  17.842  0.00  0.00    +0.000 OA
ATOM     20  O   UNL     1       5.086   2.397  20.049  0.00  0.00    +0.000 OA
BRANCH  18  21
ATOM     21  N   UNL     1       6.031   3.961  18.374  0.00  0.00    +0.000 N 
ATOM     22  H   UNL     1       6.510   4.490  19.103  0.00  0.00    +0.000 HD
BRANCH  21  28
ATOM     23  C   UNL     1       6.090   3.691  13.332  0.00  0.00    +0.000 C 
ATOM     24  C   UNL     1       5.941   4.369  14.667  0.00  0.00    +0.000 A 
ATOM     25  C   UNL     1       5.516   5.683  14.671  0.00  0.00    +0.000 A 
ATOM     26  C   UNL     1       5.400   6.432  15.854  0.00  0.00    +0.000 A 
ATOM     27  C   UNL     1       5.631   5.862  17.072  0.00  0.00    +0.000 A 
ATOM     28  C   UNL     1       6.000   4.536  17.100  0.00  0.00    +0.000 A 
ATOM     29  C   UNL     1       6.192   3.792  15.912  0.00  0.00    +0.000 A 
ENDBRANCH  21  28
ENDBRANCH  18  21
ENDBRANCH   1  18
TORSDOF 4
ENDMDL
MODEL 3
REMARK VINA RESULT:      -9.2      2.831      4.336
REMARK  Name = 
REMARK  5 active torsions:
REMARK  status: ('A' for Active; 'I' for Inactive)
REMARK    1  A    between atoms: C_1  and  C_2
REMARK    2  A    between atoms: C_6  and  N_7
REMARK    3  A    between atoms: N_7  and  S_8
REMARK    4  A    between atoms: S_8  and  C_11
REMARK    5  A    between atoms: C_15  and  C_16
REMARK                            x       y       z     vdW  Elec       q    Type
REMARK                         _______ _______ _______ _____ _____    ______ ____
ROOT
ATOM      1  C   UNL     1       5.336   4.570  17.671  0.00  0.00    +0.000 A 
ATOM      2  C   UNL     1       4.731   3.488  17.024  0.00  0.00    +0.000 A 
ATOM      3  C   UNL     1       3.432   3.101  17.367  0.00  0.00    +0.000 A 
ATOM      4  C   UNL     1       2.757   3.759  18.400  0.00  0.00    +0.000 A 
ATOM      5  C   UNL     1       3.358   4.806  19.126  0.00  0.00    +0.000 A 
ATOM      6  C   UNL     1       4.634   5.256  18.702  0.00  0.00    +0.000 A 
ENDROOT
BRANCH   5   7
ATOM      7  C   UNL     1       2.501   5.432  20.223  0.00  0.00    +0.000 C 
ATOM      8  O   UNL     1       2.376   4.767  21.252  0.00  0.00    +0.000 OA
ATOM      9  N   UNL     1       1.972   6.731  20.118  0.00  0.00    +0.000 N 
ATOM     10  C   UNL     1       1.024   7.188  21.168  0.00  0.00    +0.000 C 
ATOM     11  C   UNL     1       1.195   8.674  21.519  0.00  0.00    +0.000 C 
ATOM     12  C   UNL     1       1.180   9.489  20.278  0.00  0.00    +0.000 A 
ATOM     13  S   UNL     1       0.602  11.088  20.225  0.00  0.00    +0.000 S 
ATOM     14  C   UNL     1       1.081  11.267  18.607  0.00  0.00    +0.000 A 
ATOM     15  C   UNL     1       1.766  10.148  18.188  0.00  0.00    +0.000 A 
ATOM     16  C   UNL     1       1.649   9.013  19.074  0.00  0.00    +0.000 A 
ATOM     17  C   UNL     1       1.948   7.521  18.874  0.00  0.00    +0.000 C 
ENDBRANCH   5   7
BRANCH   1  18
ATOM     18  S   UNL     1       6.833   5.249  16.899  0.00  0.00    +0.000 S 
ATOM     19  O   UNL     1       7.737   4.129  16.706  0.00  0.00    +0.000 OA
ATOM     20  O   UNL     1       7.224   6.395  17.677  0.00  0.00    +0.000 OA
BRANCH  18  21
ATOM     21  N   UNL     1       6.423   5.896  15.385  0.00  0.00    +0.000 N 
ATOM     22  H   UNL     1       5.519   6.371  15.407  0.00  0.00    +0.000 HD
BRANCH  21  28
ATOM     23  C   UNL     1       5.253   2.469  11.867  0.00  0.00    +0.000 C 
ATOM     24  C   UNL     1       6.081   3.551  12.505  0.00  0.00    +0.000 A 
ATOM     25  C   UNL     1       7.159   4.033  11.790  0.00  0.00    +0.000 A 
ATOM     26  C   UNL     1       8.036   4.999  12.311  0.00  0.00    +0.000 A 
ATOM     27  C   UNL     1       7.810   5.566  13.531  0.00  0.00    +0.000 A 
ATOM     28  C   UNL     1       6.708   5.145  14.241  0.00  0.00    +0.000 A 
ATOM     29  C   UNL     1       5.860   4.120  13.759  0.00  0.00    +0.000 A 
ENDBRANCH  21  28
ENDBRANCH  18  21
ENDBRANCH   1  18
TORSDOF 4
ENDMDL
MODEL 4
REMARK VINA RESULT:      -9.2      2.450      3.915
REMARK  Name = 
REMARK  5 active torsions:
REMARK  status: ('A' for Active; 'I' for Inactive)
REMARK    1  A    between atoms: C_1  and  C_2
REMARK    2  A    between atoms: C_6  and  N_7
REMARK    3  A    between atoms: N_7  and  S_8
REMARK    4  A    between atoms: S_8  and  C_11
REMARK    5  A    between atoms: C_15  and  C_16
REMARK                            x       y       z     vdW  Elec       q    Type
REMARK                         _______ _______ _______ _____ _____    ______ ____
ROOT
ATOM      1  C   UNL     1       4.433   5.858  18.481  0.00  0.00    +0.000 A 
ATOM      2  C   UNL     1       4.325   6.669  17.346  0.00  0.00    +0.000 A 
ATOM      3  C   UNL     1       3.350   7.668  17.287  0.00  0.00    +0.000 A 
ATOM      4  C   UNL     1       2.442   7.822  18.338  0.00  0.00    +0.000 A 
ATOM      5  C   UNL     1       2.470   6.980  19.467  0.00  0.00    +0.000 A 
ATOM      6  C   UNL     1       3.525   6.037  19.562  0.00  0.00    +0.000 A 
ENDROOT
BRANCH   5   7
ATOM      7  C   UNL     1       1.419   7.266  20.537  0.00  0.00    +0.000 C 
ATOM      8  O   UNL     1       1.120   6.317  21.264  0.00  0.00    +0.000 OA
ATOM      9  N   UNL     1       0.896   8.554  20.756  0.00  0.00    +0.000 N 
ATOM     10  C   UNL     1      -0.232   8.698  21.712  0.00  0.00    +0.000 C 
ATOM     11  C   UNL     1      -0.152   9.990  22.539  0.00  0.00    +0.000 C 
ATOM     12  C   UNL     1       0.045  11.153  21.637  0.00  0.00    +0.000 A 
ATOM     13  S   UNL     1      -0.540  12.711  21.991  0.00  0.00    +0.000 S 
ATOM     14  C   UNL     1       0.221  13.368  20.623  0.00  0.00    +0.000 A 
ATOM     15  C   UNL     1       0.988  12.409  20.000  0.00  0.00    +0.000 A 
ATOM     16  C   UNL     1       0.732  11.059  20.447  0.00  0.00    +0.000 A 
ATOM     17  C   UNL     1       1.085   9.694  19.842  0.00  0.00    +0.000 C 
ENDBRANCH   5   7
BRANCH   1  18
ATOM     18  S   UNL     1       5.953   4.879  18.643  0.00  0.00    +0.000 S 
ATOM     19  O   UNL     1       6.664   5.415  19.790  0.00  0.00    +0.000 OA
ATOM     20  O   UNL     1       6.566   4.835  17.341  0.00  0.00    +0.000 OA
BRANCH  18  21
ATOM     21  N   UNL     1       5.534   3.265  18.957  0.00  0.00    +0.000 N 
ATOM     22  H   UNL     1       6.128   2.612  18.444  0.00  0.00    +0.000 HD
BRANCH  21  28
ATOM     23  C   UNL     1       1.243   2.663  21.548  0.00  0.00    +0.000 C 
ATOM     24  C   UNL     1       2.100   2.739  20.314  0.00  0.00    +0.000 A 
ATOM     25  C   UNL     1       1.462   2.685  19.090  0.00  0.00    +0.000 A 
ATOM     26  C   UNL     1       2.166   2.685  17.875  0.00  0.00    +0.000 A 
ATOM     27  C   UNL     1       3.523   2.821  17.850  0.00  0.00    +0.000 A 
ATOM     28  C   UNL     1       4.179   2.935  19.054  0.00  0.00    +0.000 A 
ATOM     29  C   UNL     1       3.489   2.861  20.287  0.00  0.00    +0.000 A 
ENDBRANCH  21  28
ENDBRANCH  18  21
ENDBRANCH   1  18
TORSDOF 4
ENDMDL
MODEL 5
REMARK VINA RESULT:      -9.1      2.666      4.116
REMARK  Name = 
REMARK  5 active torsions:
REMARK  status: ('A' for Active; 'I' for Inactive)
REMARK    1  A    between atoms: C_1  and  C_2
REMARK    2  A    between atoms: C_6  and  N_7
REMARK    3  A    between atoms: N_7  and  S_8
REMARK    4  A    between atoms: S_8  and  C_11
REMARK    5  A    between atoms: C_15  and  C_16
REMARK                            x       y       z     vdW  Elec       q    Type
REMARK                         _______ _______ _______ _____ _____    ______ ____
ROOT
ATOM      1  C   UNL     1       4.692   5.345  17.361  0.00  0.00    +0.000 A 
ATOM      2  C   UNL     1       4.118   4.187  16.826  0.00  0.00    +0.000 A 
ATOM      3  C   UNL     1       2.916   3.695  17.342  0.00  0.00    +0.000 A 
ATOM      4  C   UNL     1       2.314   4.327  18.435  0.00  0.00    +0.000 A 
ATOM      5  C   UNL     1       2.897   5.452  19.049  0.00  0.00    +0.000 A 
ATOM      6  C   UNL     1       4.061   6.002  18.454  0.00  0.00    +0.000 A 
ENDROOT
BRANCH   5   7
ATOM      7  C   UNL     1       2.128   6.039  20.230  0.00  0.00    +0.000 C 
ATOM      8  O   UNL     1       2.022   5.310  21.218  0.00  0.00    +0.000 OA
ATOM      9  N   UNL     1       1.656   7.365  20.240  0.00  0.00    +0.000 N 
ATOM     10  C   UNL     1       0.785   7.790  21.367  0.00  0.00    +0.000 C 
ATOM     11  C   UNL     1       1.044   9.239  21.806  0.00  0.00    +0.000 C 
ATOM     12  C   UNL     1       1.006  10.137  20.625  0.00  0.00    +0.000 A 
ATOM     13  S   UNL     1       0.502  11.759  20.709  0.00  0.00    +0.000 S 
ATOM     14  C   UNL     1       0.908  12.029  19.083  0.00  0.00    +0.000 A 
ATOM     15  C   UNL     1       1.516  10.912  18.555  0.00  0.00    +0.000 A 
ATOM     16  C   UNL     1       1.391   9.725  19.369  0.00  0.00    +0.000 A 
ATOM     17  C   UNL     1       1.608   8.238  19.054  0.00  0.00    +0.000 C 
ENDBRANCH   5   7
BRANCH   1  18
ATOM     18  S   UNL     1       6.007   6.129  16.386  0.00  0.00    +0.000 S 
ATOM     19  O   UNL     1       6.712   7.020  17.293  0.00  0.00    +0.000 OA
ATOM     20  O   UNL     1       5.399   6.625  15.180  0.00  0.00    +0.000 OA
BRANCH  18  21
ATOM     21  N   UNL     1       7.079   4.929  15.847  0.00  0.00    +0.000 N 
ATOM     22  H   UNL     1       7.983   4.989  16.317  0.00  0.00    +0.000 HD
BRANCH  21  28
ATOM     23  C   UNL     1       5.240   2.647  11.736  0.00  0.00    +0.000 C 
ATOM     24  C   UNL     1       6.141   3.579  12.498  0.00  0.00    +0.000 A 
ATOM     25  C   UNL     1       6.970   4.406  11.766  0.00  0.00    +0.000 A 
ATOM     26  C   UNL     1       7.895   5.271  12.372  0.00  0.00    +0.000 A 
ATOM     27  C   UNL     1       7.959   5.392  13.730  0.00  0.00    +0.000 A 
ATOM     28  C   UNL     1       7.102   4.621  14.483  0.00  0.00    +0.000 A 
ATOM     29  C   UNL     1       6.219   3.691  13.887  0.00  0.00    +0.000 A 
ENDBRANCH  21  28
ENDBRANCH  18  21
ENDBRANCH   1  18
TORSDOF 4
ENDMDL
MODEL 6
REMARK VINA RESULT:      -8.9      0.985      1.054
REMARK  Name = 
REMARK  5 active torsions:
REMARK  status: ('A' for Active; 'I' for Inactive)
REMARK    1  A    between atoms: C_1  and  C_2
REMARK    2  A    between atoms: C_6  and  N_7
REMARK    3  A    between atoms: N_7  and  S_8
REMARK    4  A    between atoms: S_8  and  C_11
REMARK    5  A    between atoms: C_15  and  C_16
REMARK                            x       y       z     vdW  Elec       q    Type
REMARK                         _______ _______ _______ _____ _____    ______ ____
ROOT
ATOM      1  C   UNL     1       3.401   4.501  19.569  0.00  0.00    +0.000 A 
ATOM      2  C   UNL     1       2.600   4.159  20.663  0.00  0.00    +0.000 A 
ATOM      3  C   UNL     1       1.608   5.036  21.110  0.00  0.00    +0.000 A 
ATOM      4  C   UNL     1       1.453   6.285  20.500  0.00  0.00    +0.000 A 
ATOM      5  C   UNL     1       2.287   6.699  19.443  0.00  0.00    +0.000 A 
ATOM      6  C   UNL     1       3.221   5.762  18.932  0.00  0.00    +0.000 A 
ENDROOT
BRANCH   5   7
ATOM      7  C   UNL     1       2.001   8.086  18.874  0.00  0.00    +0.000 C 
ATOM      8  O   UNL     1       2.315   8.258  17.695  0.00  0.00    +0.000 OA
ATOM      9  N   UNL     1       1.327   9.079  19.608  0.00  0.00    +0.000 N 
ATOM     10  C   UNL     1       1.237  10.442  19.024  0.00  0.00    +0.000 C 
ATOM     11  C   UNL     1      -0.104  11.130  19.318  0.00  0.00    +0.000 C 
ATOM     12  C   UNL     1      -0.396  11.061  20.772  0.00  0.00    +0.000 A 
ATOM     13  S   UNL     1      -1.288  12.253  21.596  0.00  0.00    +0.000 S 
ATOM     14  C   UNL     1      -1.271  11.352  23.034  0.00  0.00    +0.000 A 
ATOM     15  C   UNL     1      -0.686  10.124  22.818  0.00  0.00    +0.000 A 
ATOM     16  C   UNL     1       0.024  10.016  21.563  0.00  0.00    +0.000 A 
ATOM     17  C   UNL     1       1.061   9.005  21.056  0.00  0.00    +0.000 C 
ENDBRANCH   5   7
BRANCH   1  18
ATOM     18  S   UNL     1       4.368   3.163  18.814  0.00  0.00    +0.000 S 
ATOM     19  O   UNL     1       3.859   3.004  17.462  0.00  0.00    +0.000 OA
ATOM     20  O   UNL     1       4.363   2.065  19.745  0.00  0.00    +0.000 OA
BRANCH  18  21
ATOM     21  N   UNL     1       5.995   3.636  18.740  0.00  0.00    +0.000 N 
ATOM     22  H   UNL     1       6.433   3.635  19.663  0.00  0.00    +0.000 HD
BRANCH  21  28
ATOM     23  C   UNL     1       7.903   8.216  17.806  0.00  0.00    +0.000 C 
ATOM     24  C   UNL     1       7.354   6.862  17.450  0.00  0.00    +0.000 A 
ATOM     25  C   UNL     1       7.379   6.492  16.120  0.00  0.00    +0.000 A 
ATOM     26  C   UNL     1       6.839   5.278  15.667  0.00  0.00    +0.000 A 
ATOM     27  C   UNL     1       6.331   4.365  16.543  0.00  0.00    +0.000 A 
ATOM     28  C   UNL     1       6.346   4.683  17.883  0.00  0.00    +0.000 A 
ATOM     29  C   UNL     1       6.819   5.934  18.344  0.00  0.00    +0.000 A 
ENDBRANCH  21  28
ENDBRANCH  18  21
ENDBRANCH   1  18
TORSDOF 4
ENDMDL
MODEL 7
REMARK VINA RESULT:      -8.8      2.236      2.808
REMARK  Name = 
REMARK  5 active torsions:
REMARK  status: ('A' for Active; 'I' for Inactive)
REMARK    1  A    between atoms: C_1  and  C_2
REMARK    2  A    between atoms: C_6  and  N_7
REMARK    3  A    between atoms: N_7  and  S_8
REMARK    4  A    between atoms: S_8  and  C_11
REMARK    5  A    between atoms: C_15  and  C_16
REMARK                            x       y       z     vdW  Elec       q    Type
REMARK                         _______ _______ _______ _____ _____    ______ ____
ROOT
ATOM      1  C   UNL     1       4.693   5.789  18.678  0.00  0.00    +0.000 A 
ATOM      2  C   UNL     1       3.841   4.680  18.671  0.00  0.00    +0.000 A 
ATOM      3  C   UNL     1       2.475   4.845  18.426  0.00  0.00    +0.000 A 
ATOM      4  C   UNL     1       1.947   6.127  18.243  0.00  0.00    +0.000 A 
ATOM      5  C   UNL     1       2.759   7.276  18.314  0.00  0.00    +0.000 A 
ATOM      6  C   UNL     1       4.157   7.090  18.463  0.00  0.00    +0.000 A 
ENDROOT
BRANCH   5   7
ATOM      7  C   UNL     1       2.048   8.608  18.093  0.00  0.00    +0.000 C 
ATOM      8  O   UNL     1       2.036   9.025  16.934  0.00  0.00    +0.000 OA
ATOM      9  N   UNL     1       1.355   9.274  19.122  0.00  0.00    +0.000 N 
ATOM     10  C   UNL     1       0.831  10.637  18.845  0.00  0.00    +0.000 C 
ATOM     11  C   UNL     1      -0.526  10.901  19.514  0.00  0.00    +0.000 C 
ATOM     12  C   UNL     1      -0.454  10.548  20.954  0.00  0.00    +0.000 A 
ATOM     13  S   UNL     1      -1.377  11.333  22.148  0.00  0.00    +0.000 S 
ATOM     14  C   UNL     1      -0.829  10.269  23.351  0.00  0.00    +0.000 A 
ATOM     15  C   UNL     1      -0.050   9.281  22.792  0.00  0.00    +0.000 A 
ATOM     16  C   UNL     1       0.359   9.545  21.431  0.00  0.00    +0.000 A 
ATOM     17  C   UNL     1       1.451   8.924  20.550  0.00  0.00    +0.000 C 
ENDBRANCH   5   7
BRANCH   1  18
ATOM     18  S   UNL     1       6.475   5.449  18.600  0.00  0.00    +0.000 S 
ATOM     19  O   UNL     1       6.876   5.065  19.943  0.00  0.00    +0.000 OA
ATOM     20  O   UNL     1       7.087   6.567  17.932  0.00  0.00    +0.000 OA
BRANCH  18  21
ATOM     21  N   UNL     1       6.738   4.143  17.550  0.00  0.00    +0.000 N 
ATOM     22  H   UNL     1       7.564   3.604  17.814  0.00  0.00    +0.000 HD
BRANCH  21  28
ATOM     23  C   UNL     1       8.238   5.564  12.943  0.00  0.00    +0.000 C 
ATOM     24  C   UNL     1       7.309   4.946  13.952  0.00  0.00    +0.000 A 
ATOM     25  C   UNL     1       6.191   4.291  13.474  0.00  0.00    +0.000 A 
ATOM     26  C   UNL     1       5.226   3.731  14.326  0.00  0.00    +0.000 A 
ATOM     27  C   UNL     1       5.393   3.740  15.679  0.00  0.00    +0.000 A 
ATOM     28  C   UNL     1       6.529   4.336  16.181  0.00  0.00    +0.000 A 
ATOM     29  C   UNL     1       7.471   4.969  15.337  0.00  0.00    +0.000 A 
ENDBRANCH  21  28
ENDBRANCH  18  21
ENDBRANCH   1  18
TORSDOF 4
ENDMDL
MODEL 8
REMARK VINA RESULT:      -8.7      2.215      2.999
REMARK  Name = 
REMARK  5 active torsions:
REMARK  status: ('A' for Active; 'I' for Inactive)
REMARK    1  A    between atoms: C_1  and  C_2
REMARK    2  A    between atoms: C_6  and  N_7
REMARK    3  A    between atoms: N_7  and  S_8
REMARK    4  A    between atoms: S_8  and  C_11
REMARK    5  A    between atoms: C_15  and  C_16
REMARK                            x       y       z     vdW  Elec       q    Type
REMARK                         _______ _______ _______ _____ _____    ______ ____
ROOT
ATOM      1  C   UNL     1       4.222   5.649  18.105  0.00  0.00    +0.000 A 
ATOM      2  C   UNL     1       3.715   4.975  19.220  0.00  0.00    +0.000 A 
ATOM      3  C   UNL     1       2.658   5.522  19.952  0.00  0.00    +0.000 A 
ATOM      4  C   UNL     1       2.143   6.775  19.606  0.00  0.00    +0.000 A 
ATOM      5  C   UNL     1       2.674   7.520  18.535  0.00  0.00    +0.000 A 
ATOM      6  C   UNL     1       3.676   6.911  17.738  0.00  0.00    +0.000 A 
ENDROOT
BRANCH   5   7
ATOM      7  C   UNL     1       2.011   8.870  18.271  0.00  0.00    +0.000 C 
ATOM      8  O   UNL     1       2.081   9.286  17.114  0.00  0.00    +0.000 OA
ATOM      9  N   UNL     1       1.274   9.555  19.255  0.00  0.00    +0.000 N 
ATOM     10  C   UNL     1       0.803  10.930  18.948  0.00  0.00    +0.000 C 
ATOM     11  C   UNL     1      -0.586  11.229  19.532  0.00  0.00    +0.000 C 
ATOM     12  C   UNL     1      -0.611  10.877  20.974  0.00  0.00    +0.000 A 
ATOM     13  S   UNL     1      -1.585  11.687  22.110  0.00  0.00    +0.000 S 
ATOM     14  C   UNL     1      -1.139  10.610  23.344  0.00  0.00    +0.000 A 
ATOM     15  C   UNL     1      -0.353   9.602  22.833  0.00  0.00    +0.000 A 
ATOM     16  C   UNL     1       0.145   9.854  21.499  0.00  0.00    +0.000 A 
ATOM     17  C   UNL     1       1.274   9.204  20.687  0.00  0.00    +0.000 C 
ENDBRANCH   5   7
BRANCH   1  18
ATOM     18  S   UNL     1       5.296   4.697  16.994  0.00  0.00    +0.000 S 
ATOM     19  O   UNL     1       4.650   3.409  16.806  0.00  0.00    +0.000 OA
ATOM     20  O   UNL     1       6.633   4.789  17.519  0.00  0.00    +0.000 OA
BRANCH  18  21
ATOM     21  N   UNL     1       5.383   5.495  15.499  0.00  0.00    +0.000 N 
ATOM     22  H   UNL     1       4.520   5.999  15.287  0.00  0.00    +0.000 HD
BRANCH  21  28
ATOM     23  C   UNL     1       5.374   2.345  11.554  0.00  0.00    +0.000 C 
ATOM     24  C   UNL     1       5.949   3.384  12.476  0.00  0.00    +0.000 A 
ATOM     25  C   UNL     1       7.167   3.938  12.133  0.00  0.00    +0.000 A 
ATOM     26  C   UNL     1       7.826   4.871  12.951  0.00  0.00    +0.000 A 
ATOM     27  C   UNL     1       7.246   5.335  14.095  0.00  0.00    +0.000 A 
ATOM     28  C   UNL     1       6.005   4.842  14.431  0.00  0.00    +0.000 A 
ATOM     29  C   UNL     1       5.365   3.847  13.655  0.00  0.00    +0.000 A 
ENDBRANCH  21  28
ENDBRANCH  18  21
ENDBRANCH   1  18
TORSDOF 4
ENDMDL
MODEL 9
REMARK VINA RESULT:      -8.7      1.137      1.589
REMARK  Name = 
REMARK  5 active torsions:
REMARK  status: ('A' for Active; 'I' for Inactive)
REMARK    1  A    between atoms: C_1  and  C_2
REMARK    2  A    between atoms: C_6  and  N_7
REMARK    3  A    between atoms: N_7  and  S_8
REMARK    4  A    between atoms: S_8  and  C_11
REMARK    5  A    between atoms: C_15  and  C_16
REMARK                            x       y       z     vdW  Elec       q    Type
REMARK                         _______ _______ _______ _____ _____    ______ ____
ROOT
ATOM      1  C   UNL     1       3.261   5.426  18.688  0.00  0.00    +0.000 A 
ATOM      2  C   UNL     1       2.825   5.064  19.966  0.00  0.00    +0.000 A 
ATOM      3  C   UNL     1       2.028   5.936  20.711  0.00  0.00    +0.000 A 
ATOM      4  C   UNL     1       1.711   7.200  20.203  0.00  0.00    +0.000 A 
ATOM      5  C   UNL     1       2.190   7.633  18.951  0.00  0.00    +0.000 A 
ATOM      6  C   UNL     1       2.912   6.702  18.162  0.00  0.00    +0.000 A 
ENDROOT
BRANCH   5   7
ATOM      7  C   UNL     1       1.763   9.035  18.523  0.00  0.00    +0.000 C 
ATOM      8  O   UNL     1       1.992   9.332  17.350  0.00  0.00    +0.000 OA
ATOM      9  N   UNL     1       1.057   9.902  19.377  0.00  0.00    +0.000 N 
ATOM     10  C   UNL     1       0.826  11.298  18.923  0.00  0.00    +0.000 C 
ATOM     11  C   UNL     1      -0.546  11.843  19.346  0.00  0.00    +0.000 C 
ATOM     12  C   UNL     1      -0.747  11.627  20.801  0.00  0.00    +0.000 A 
ATOM     13  S   UNL     1      -1.679  12.665  21.773  0.00  0.00    +0.000 S 
ATOM     14  C   UNL     1      -1.507  11.650  23.122  0.00  0.00    +0.000 A 
ATOM     15  C   UNL     1      -0.841  10.498  22.767  0.00  0.00    +0.000 A 
ATOM     16  C   UNL     1      -0.200  10.557  21.473  0.00  0.00    +0.000 A 
ATOM     17  C   UNL     1       0.883   9.683  20.824  0.00  0.00    +0.000 C 
ENDBRANCH   5   7
BRANCH   1  18
ATOM     18  S   UNL     1       3.935   4.100  17.648  0.00  0.00    +0.000 S 
ATOM     19  O   UNL     1       2.831   3.616  16.836  0.00  0.00    +0.000 OA
ATOM     20  O   UNL     1       4.664   3.213  18.517  0.00  0.00    +0.000 OA
BRANCH  18  21
ATOM     21  N   UNL     1       5.125   4.752  16.630  0.00  0.00    +0.000 N 
ATOM     22  H   UNL     1       5.335   4.133  15.846  0.00  0.00    +0.000 HD
BRANCH  21  28
ATOM     23  C   UNL     1       7.841   8.890  17.624  0.00  0.00    +0.000 C 
ATOM     24  C   UNL     1       7.453   7.443  17.751  0.00  0.00    +0.000 A 
ATOM     25  C   UNL     1       8.100   6.690  18.711  0.00  0.00    +0.000 A 
ATOM     26  C   UNL     1       7.862   5.316  18.876  0.00  0.00    +0.000 A 
ATOM     27  C   UNL     1       6.911   4.674  18.138  0.00  0.00    +0.000 A 
ATOM     28  C   UNL     1       6.210   5.414  17.212  0.00  0.00    +0.000 A 
ATOM     29  C   UNL     1       6.493   6.782  16.985  0.00  0.00    +0.000 A 
ENDBRANCH  21  28
ENDBRANCH  18  21
ENDBRANCH   1  18
TORSDOF 4
ENDMDL
