MODEL 1
REMARK VINA RESULT:      -9.6      0.000      0.000
REMARK  Name = 
REMARK  3 active torsions:
REMARK  status: ('A' for Active; 'I' for Inactive)
REMARK    1  A    between atoms: C_6  and  C_7
REMARK    2  A    between atoms: N_23  and  C_24
REMARK    3  A    between atoms: C_24  and  C_25
REMARK                            x       y       z     vdW  Elec       q    Type
REMARK                         _______ _______ _______ _____ _____    ______ ____
ROOT
ATOM      1  O   UNL     1       4.476   3.235  17.343  0.00  0.00    +0.000 OA
ATOM      2  C   UNL     1       4.666   4.427  17.203  0.00  0.00    +0.000 C 
ATOM      3  C   UNL     1       3.697   5.452  17.574  0.00  0.00    +0.000 A 
ATOM      4  C   UNL     1       2.400   5.320  18.019  0.00  0.00    +0.000 A 
ATOM      5  C   UNL     1       1.676   6.497  18.235  0.00  0.00    +0.000 A 
ATOM      6  C   UNL     1       2.290   7.768  18.143  0.00  0.00    +0.000 A 
ATOM      7  C   UNL     1       3.612   7.860  17.654  0.00  0.00    +0.000 A 
ATOM      8  C   UNL     1       4.279   6.686  17.359  0.00  0.00    +0.000 A 
ATOM      9  C   UNL     1       5.612   6.445  16.800  0.00  0.00    +0.000 C 
ATOM     10  O   UNL     1       6.395   7.323  16.488  0.00  0.00    +0.000 OA
ATOM     11  N   UNL     1       5.759   5.087  16.721  0.00  0.00    +0.000 N 
ENDROOT
BRANCH   6  12
ATOM     12  C   UNL     1       1.589   9.051  18.484  0.00  0.00    +0.000 C 
ATOM     13  O   UNL     1       1.676   9.906  17.599  0.00  0.00    +0.000 OA
ATOM     14  N   UNL     1       0.962   9.255  19.740  0.00  0.00    +0.000 N 
ATOM     15  C   UNL     1       1.048   8.298  20.854  0.00  0.00    +0.000 C 
ATOM     16  C   UNL     1       1.333   8.941  22.193  0.00  0.00    +0.000 C 
ATOM     17  C   UNL     1       0.247   9.931  22.537  0.00  0.00    +0.000 C 
ATOM     18  C   UNL     1      -0.128  10.793  21.363  0.00  0.00    +0.000 A 
ATOM     19  C   UNL     1      -0.857  11.965  21.647  0.00  0.00    +0.000 A 
ATOM     20  C   UNL     1      -1.268  12.814  20.628  0.00  0.00    +0.000 A 
ATOM     21  C   UNL     1      -0.968  12.492  19.314  0.00  0.00    +0.000 A 
ATOM     22  C   UNL     1      -0.249  11.327  19.020  0.00  0.00    +0.000 A 
ATOM     23  C   UNL     1       0.202  10.458  20.029  0.00  0.00    +0.000 A 
ENDBRANCH   6  12
BRANCH  11  24
ATOM     24  C   UNL     1       6.926   4.416  16.195  0.00  0.00    +0.000 C 
BRANCH  24  25
ATOM     25  C   UNL     1       6.931   4.384  14.683  0.00  0.00    +0.000 A 
ATOM     26  C   UNL     1       6.084   3.505  13.992  0.00  0.00    +0.000 A 
ATOM     27  C   UNL     1       6.079   3.477  12.595  0.00  0.00    +0.000 A 
ATOM     28  C   UNL     1       6.928   4.317  11.877  0.00  0.00    +0.000 A 
ATOM     29  C   UNL     1       7.788   5.181  12.553  0.00  0.00    +0.000 A 
ATOM     30  C   UNL     1       7.794   5.210  13.950  0.00  0.00    +0.000 A 
ENDBRANCH  24  25
ENDBRANCH  11  24
TORSDOF 3
ENDMDL
MODEL 2
REMARK VINA RESULT:      -9.0      2.676     10.240
REMARK  Name = 
REMARK  3 active torsions:
REMARK  status: ('A' for Active; 'I' for Inactive)
REMARK    1  A    between atoms: C_6  and  C_7
REMARK    2  A    between atoms: N_23  and  C_24
REMARK    3  A    between atoms: C_24  and  C_25
REMARK                            x       y       z     vdW  Elec       q    Type
REMARK                         _______ _______ _______ _____ _____    ______ ____
ROOT
ATOM      1  O   UNL     1      -1.164  11.370  23.357  0.00  0.00    +0.000 OA
ATOM      2  C   UNL     1      -0.865  11.341  22.181  0.00  0.00    +0.000 C 
ATOM      3  C   UNL     1      -0.017  10.315  21.584  0.00  0.00    +0.000 A 
ATOM      4  C   UNL     1       0.686   9.293  22.184  0.00  0.00    +0.000 A 
ATOM      5  C   UNL     1       1.479   8.493  21.356  0.00  0.00    +0.000 A 
ATOM      6  C   UNL     1       1.450   8.630  19.948  0.00  0.00    +0.000 A 
ATOM      7  C   UNL     1       0.741   9.710  19.377  0.00  0.00    +0.000 A 
ATOM      8  C   UNL     1       0.036  10.545  20.223  0.00  0.00    +0.000 A 
ATOM      9  C   UNL     1      -0.744  11.757  19.957  0.00  0.00    +0.000 C 
ATOM     10  O   UNL     1      -0.899  12.246  18.854  0.00  0.00    +0.000 OA
ATOM     11  N   UNL     1      -1.229  12.178  21.165  0.00  0.00    +0.000 N 
ENDROOT
BRANCH   6  12
ATOM     12  C   UNL     1       2.189   7.717  19.013  0.00  0.00    +0.000 C 
ATOM     13  O   UNL     1       2.511   8.260  17.953  0.00  0.00    +0.000 OA
ATOM     14  N   UNL     1       2.412   6.350  19.317  0.00  0.00    +0.000 N 
ATOM     15  C   UNL     1       1.840   5.677  20.494  0.00  0.00    +0.000 C 
ATOM     16  C   UNL     1       1.247   4.319  20.195  0.00  0.00    +0.000 C 
ATOM     17  C   UNL     1       2.302   3.403  19.626  0.00  0.00    +0.000 C 
ATOM     18  C   UNL     1       3.149   4.088  18.589  0.00  0.00    +0.000 A 
ATOM     19  C   UNL     1       3.916   3.257  17.749  0.00  0.00    +0.000 A 
ATOM     20  C   UNL     1       4.746   3.797  16.775  0.00  0.00    +0.000 A 
ATOM     21  C   UNL     1       4.831   5.174  16.644  0.00  0.00    +0.000 A 
ATOM     22  C   UNL     1       4.078   6.009  17.477  0.00  0.00    +0.000 A 
ATOM     23  C   UNL     1       3.211   5.495  18.456  0.00  0.00    +0.000 A 
ENDBRANCH   6  12
BRANCH  11  24
ATOM     24  C   UNL     1      -2.032  13.363  21.361  0.00  0.00    +0.000 C 
BRANCH  24  25
ATOM     25  C   UNL     1      -3.512  13.053  21.369  0.00  0.00    +0.000 A 
ATOM     26  C   UNL     1      -4.238  13.105  22.568  0.00  0.00    +0.000 A 
ATOM     27  C   UNL     1      -5.607  12.827  22.580  0.00  0.00    +0.000 A 
ATOM     28  C   UNL     1      -6.260  12.484  21.398  0.00  0.00    +0.000 A 
ATOM     29  C   UNL     1      -5.546  12.411  20.204  0.00  0.00    +0.000 A 
ATOM     30  C   UNL     1      -4.176  12.689  20.190  0.00  0.00    +0.000 A 
ENDBRANCH  24  25
ENDBRANCH  11  24
TORSDOF 3
ENDMDL
MODEL 3
REMARK VINA RESULT:      -8.9      3.506     10.211
REMARK  Name = 
REMARK  3 active torsions:
REMARK  status: ('A' for Active; 'I' for Inactive)
REMARK    1  A    between atoms: C_6  and  C_7
REMARK    2  A    between atoms: N_23  and  C_24
REMARK    3  A    between atoms: C_24  and  C_25
REMARK                            x       y       z     vdW  Elec       q    Type
REMARK                         _______ _______ _______ _____ _____    ______ ____
ROOT
ATOM      1  O   UNL     1      -2.750  12.859  20.457  0.00  0.00    +0.000 OA
ATOM      2  C   UNL     1      -2.547  12.081  19.547  0.00  0.00    +0.000 C 
ATOM      3  C   UNL     1      -1.303  11.338  19.376  0.00  0.00    +0.000 A 
ATOM      4  C   UNL     1      -0.120  11.427  20.076  0.00  0.00    +0.000 A 
ATOM      5  C   UNL     1       0.941  10.628  19.640  0.00  0.00    +0.000 A 
ATOM      6  C   UNL     1       0.768   9.663  18.620  0.00  0.00    +0.000 A 
ATOM      7  C   UNL     1      -0.452   9.626  17.908  0.00  0.00    +0.000 A 
ATOM      8  C   UNL     1      -1.458  10.491  18.297  0.00  0.00    +0.000 A 
ATOM      9  C   UNL     1      -2.795  10.730  17.745  0.00  0.00    +0.000 C 
ATOM     10  O   UNL     1      -3.252  10.150  16.779  0.00  0.00    +0.000 OA
ATOM     11  N   UNL     1      -3.368  11.696  18.526  0.00  0.00    +0.000 N 
ENDROOT
BRANCH   6  12
ATOM     12  C   UNL     1       1.840   8.700  18.201  0.00  0.00    +0.000 C 
ATOM     13  O   UNL     1       2.242   8.885  17.050  0.00  0.00    +0.000 OA
ATOM     14  N   UNL     1       2.273   7.644  19.045  0.00  0.00    +0.000 N 
ATOM     15  C   UNL     1       1.635   7.319  20.330  0.00  0.00    +0.000 C 
ATOM     16  C   UNL     1       1.397   5.841  20.538  0.00  0.00    +0.000 C 
ATOM     17  C   UNL     1       2.704   5.089  20.487  0.00  0.00    +0.000 C 
ATOM     18  C   UNL     1       3.578   5.548  19.351  0.00  0.00    +0.000 A 
ATOM     19  C   UNL     1       4.643   4.700  18.990  0.00  0.00    +0.000 A 
ATOM     20  C   UNL     1       5.517   5.046  17.968  0.00  0.00    +0.000 A 
ATOM     21  C   UNL     1       5.345   6.253  17.309  0.00  0.00    +0.000 A 
ATOM     22  C   UNL     1       4.293   7.107  17.664  0.00  0.00    +0.000 A 
ATOM     23  C   UNL     1       3.377   6.775  18.677  0.00  0.00    +0.000 A 
ENDBRANCH   6  12
BRANCH  11  24
ATOM     24  C   UNL     1      -4.685  12.252  18.312  0.00  0.00    +0.000 C 
BRANCH  24  25
ATOM     25  C   UNL     1      -5.738  11.559  19.147  0.00  0.00    +0.000 A 
ATOM     26  C   UNL     1      -6.244  12.176  20.300  0.00  0.00    +0.000 A 
ATOM     27  C   UNL     1      -7.223  11.544  21.071  0.00  0.00    +0.000 A 
ATOM     28  C   UNL     1      -7.696  10.286  20.703  0.00  0.00    +0.000 A 
ATOM     29  C   UNL     1      -7.188   9.655  19.570  0.00  0.00    +0.000 A 
ATOM     30  C   UNL     1      -6.209  10.286  18.797  0.00  0.00    +0.000 A 
ENDBRANCH  24  25
ENDBRANCH  11  24
TORSDOF 3
ENDMDL
MODEL 4
REMARK VINA RESULT:      -8.9      2.539     10.130
REMARK  Name = 
REMARK  3 active torsions:
REMARK  status: ('A' for Active; 'I' for Inactive)
REMARK    1  A    between atoms: C_6  and  C_7
REMARK    2  A    between atoms: N_23  and  C_24
REMARK    3  A    between atoms: C_24  and  C_25
REMARK                            x       y       z     vdW  Elec       q    Type
REMARK                         _______ _______ _______ _____ _____    ______ ____
ROOT
ATOM      1  O   UNL     1      -1.334  10.821  23.074  0.00  0.00    +0.000 OA
ATOM      2  C   UNL     1      -0.917  11.015  21.950  0.00  0.00    +0.000 C 
ATOM      3  C   UNL     1      -0.027  10.099  21.244  0.00  0.00    +0.000 A 
ATOM      4  C   UNL     1       0.596   8.955  21.692  0.00  0.00    +0.000 A 
ATOM      5  C   UNL     1       1.458   8.308  20.802  0.00  0.00    +0.000 A 
ATOM      6  C   UNL     1       1.574   8.722  19.454  0.00  0.00    +0.000 A 
ATOM      7  C   UNL     1       0.942   9.917  19.045  0.00  0.00    +0.000 A 
ATOM      8  C   UNL     1       0.167  10.592  19.969  0.00  0.00    +0.000 A 
ATOM      9  C   UNL     1      -0.566  11.858  19.876  0.00  0.00    +0.000 C 
ATOM     10  O   UNL     1      -0.601  12.560  18.884  0.00  0.00    +0.000 OA
ATOM     11  N   UNL     1      -1.164  12.048  21.092  0.00  0.00    +0.000 N 
ENDROOT
BRANCH   6  12
ATOM     12  C   UNL     1       2.391   7.988  18.431  0.00  0.00    +0.000 C 
ATOM     13  O   UNL     1       2.633   8.659  17.424  0.00  0.00    +0.000 OA
ATOM     14  N   UNL     1       2.768   6.631  18.603  0.00  0.00    +0.000 N 
ATOM     15  C   UNL     1       2.295   5.792  19.715  0.00  0.00    +0.000 C 
ATOM     16  C   UNL     1       1.848   4.411  19.293  0.00  0.00    +0.000 C 
ATOM     17  C   UNL     1       2.987   3.674  18.632  0.00  0.00    +0.000 C 
ATOM     18  C   UNL     1       3.735   4.543  17.658  0.00  0.00    +0.000 A 
ATOM     19  C   UNL     1       4.573   3.883  16.737  0.00  0.00    +0.000 A 
ATOM     20  C   UNL     1       5.321   4.600  15.812  0.00  0.00    +0.000 A 
ATOM     21  C   UNL     1       5.253   5.984  15.811  0.00  0.00    +0.000 A 
ATOM     22  C   UNL     1       4.428   6.650  16.726  0.00  0.00    +0.000 A 
ATOM     23  C   UNL     1       3.640   5.953  17.658  0.00  0.00    +0.000 A 
ENDBRANCH   6  12
BRANCH  11  24
ATOM     24  C   UNL     1      -1.967  13.198  21.442  0.00  0.00    +0.000 C 
BRANCH  24  25
ATOM     25  C   UNL     1      -3.446  12.931  21.279  0.00  0.00    +0.000 A 
ATOM     26  C   UNL     1      -3.973  12.620  20.017  0.00  0.00    +0.000 A 
ATOM     27  C   UNL     1      -5.338  12.366  19.863  0.00  0.00    +0.000 A 
ATOM     28  C   UNL     1      -6.189  12.429  20.964  0.00  0.00    +0.000 A 
ATOM     29  C   UNL     1      -5.680  12.756  22.220  0.00  0.00    +0.000 A 
ATOM     30  C   UNL     1      -4.315  13.010  22.376  0.00  0.00    +0.000 A 
ENDBRANCH  24  25
ENDBRANCH  11  24
TORSDOF 3
ENDMDL
MODEL 5
REMARK VINA RESULT:      -8.6      3.176     10.372
REMARK  Name = 
REMARK  3 active torsions:
REMARK  status: ('A' for Active; 'I' for Inactive)
REMARK    1  A    between atoms: C_6  and  C_7
REMARK    2  A    between atoms: N_23  and  C_24
REMARK    3  A    between atoms: C_24  and  C_25
REMARK                            x       y       z     vdW  Elec       q    Type
REMARK                         _______ _______ _______ _____ _____    ______ ____
ROOT
ATOM      1  O   UNL     1      -2.146  12.444  22.275  0.00  0.00    +0.000 OA
ATOM      2  C   UNL     1      -1.967  12.112  21.121  0.00  0.00    +0.000 C 
ATOM      3  C   UNL     1      -0.887  11.232  20.688  0.00  0.00    +0.000 A 
ATOM      4  C   UNL     1       0.168  10.711  21.405  0.00  0.00    +0.000 A 
ATOM      5  C   UNL     1       1.100   9.942  20.702  0.00  0.00    +0.000 A 
ATOM      6  C   UNL     1       0.894   9.590  19.347  0.00  0.00    +0.000 A 
ATOM      7  C   UNL     1      -0.183  10.169  18.641  0.00  0.00    +0.000 A 
ATOM      8  C   UNL     1      -1.042  11.001  19.335  0.00  0.00    +0.000 A 
ATOM      9  C   UNL     1      -2.202  11.780  18.892  0.00  0.00    +0.000 C 
ATOM     10  O   UNL     1      -2.613  11.809  17.748  0.00  0.00    +0.000 OA
ATOM     11  N   UNL     1      -2.682  12.424  20.000  0.00  0.00    +0.000 N 
ENDROOT
BRANCH   6  12
ATOM     12  C   UNL     1       1.802   8.668  18.585  0.00  0.00    +0.000 C 
ATOM     13  O   UNL     1       1.990   9.021  17.418  0.00  0.00    +0.000 OA
ATOM     14  N   UNL     1       2.316   7.476  19.158  0.00  0.00    +0.000 N 
ATOM     15  C   UNL     1       1.913   6.973  20.481  0.00  0.00    +0.000 C 
ATOM     16  C   UNL     1       1.621   5.490  20.508  0.00  0.00    +0.000 C 
ATOM     17  C   UNL     1       2.842   4.710  20.087  0.00  0.00    +0.000 C 
ATOM     18  C   UNL     1       3.513   5.313  18.883  0.00  0.00    +0.000 A 
ATOM     19  C   UNL     1       4.432   4.496  18.196  0.00  0.00    +0.000 A 
ATOM     20  C   UNL     1       5.117   4.970  17.085  0.00  0.00    +0.000 A 
ATOM     21  C   UNL     1       4.904   6.272  16.662  0.00  0.00    +0.000 A 
ATOM     22  C   UNL     1       3.998   7.095  17.341  0.00  0.00    +0.000 A 
ATOM     23  C   UNL     1       3.270   6.638  18.454  0.00  0.00    +0.000 A 
ENDBRANCH   6  12
BRANCH  11  24
ATOM     24  C   UNL     1      -3.810  13.326  20.003  0.00  0.00    +0.000 C 
BRANCH  24  25
ATOM     25  C   UNL     1      -5.118  12.603  20.238  0.00  0.00    +0.000 A 
ATOM     26  C   UNL     1      -5.745  12.666  21.491  0.00  0.00    +0.000 A 
ATOM     27  C   UNL     1      -6.956  12.006  21.711  0.00  0.00    +0.000 A 
ATOM     28  C   UNL     1      -7.546  11.269  20.686  0.00  0.00    +0.000 A 
ATOM     29  C   UNL     1      -6.923  11.183  19.442  0.00  0.00    +0.000 A 
ATOM     30  C   UNL     1      -5.711  11.843  19.220  0.00  0.00    +0.000 A 
ENDBRANCH  24  25
ENDBRANCH  11  24
TORSDOF 3
ENDMDL
MODEL 6
REMARK VINA RESULT:      -8.5      2.395     10.129
REMARK  Name = 
REMARK  3 active torsions:
REMARK  status: ('A' for Active; 'I' for Inactive)
REMARK    1  A    between atoms: C_6  and  C_7
REMARK    2  A    between atoms: N_23  and  C_24
REMARK    3  A    between atoms: C_24  and  C_25
REMARK                            x       y       z     vdW  Elec       q    Type
REMARK                         _______ _______ _______ _____ _____    ______ ____
ROOT
ATOM      1  O   UNL     1      -1.281  10.498  23.212  0.00  0.00    +0.000 OA
ATOM      2  C   UNL     1      -0.969  10.671  22.051  0.00  0.00    +0.000 C 
ATOM      3  C   UNL     1      -0.010   9.837  21.335  0.00  0.00    +0.000 A 
ATOM      4  C   UNL     1       0.793   8.818  21.801  0.00  0.00    +0.000 A 
ATOM      5  C   UNL     1       1.676   8.234  20.888  0.00  0.00    +0.000 A 
ATOM      6  C   UNL     1       1.646   8.569  19.514  0.00  0.00    +0.000 A 
ATOM      7  C   UNL     1       0.830   9.639  19.085  0.00  0.00    +0.000 A 
ATOM      8  C   UNL     1       0.031  10.265  20.023  0.00  0.00    +0.000 A 
ATOM      9  C   UNL     1      -0.872  11.413  19.912  0.00  0.00    +0.000 C 
ATOM     10  O   UNL     1      -1.068  12.037  18.887  0.00  0.00    +0.000 OA
ATOM     11  N   UNL     1      -1.411  11.603  21.156  0.00  0.00    +0.000 N 
ENDROOT
BRANCH   6  12
ATOM     12  C   UNL     1       2.488   7.883  18.477  0.00  0.00    +0.000 C 
ATOM     13  O   UNL     1       2.788   8.614  17.529  0.00  0.00    +0.000 OA
ATOM     14  N   UNL     1       2.824   6.508  18.571  0.00  0.00    +0.000 N 
ATOM     15  C   UNL     1       2.283   5.609  19.603  0.00  0.00    +0.000 C 
ATOM     16  C   UNL     1       1.822   4.272  19.069  0.00  0.00    +0.000 C 
ATOM     17  C   UNL     1       2.969   3.551  18.406  0.00  0.00    +0.000 C 
ATOM     18  C   UNL     1       3.779   4.463  17.525  0.00  0.00    +0.000 A 
ATOM     19  C   UNL     1       4.640   3.845  16.597  0.00  0.00    +0.000 A 
ATOM     20  C   UNL     1       5.444   4.601  15.754  0.00  0.00    +0.000 A 
ATOM     21  C   UNL     1       5.409   5.984  15.845  0.00  0.00    +0.000 A 
ATOM     22  C   UNL     1       4.562   6.609  16.769  0.00  0.00    +0.000 A 
ATOM     23  C   UNL     1       3.718   5.873  17.619  0.00  0.00    +0.000 A 
ENDBRANCH   6  12
BRANCH  11  24
ATOM     24  C   UNL     1      -2.339  12.656  21.498  0.00  0.00    +0.000 C 
BRANCH  24  25
ATOM     25  C   UNL     1      -1.673  13.775  22.267  0.00  0.00    +0.000 A 
ATOM     26  C   UNL     1      -1.948  13.957  23.630  0.00  0.00    +0.000 A 
ATOM     27  C   UNL     1      -1.329  14.985  24.346  0.00  0.00    +0.000 A 
ATOM     28  C   UNL     1      -0.440  15.845  23.706  0.00  0.00    +0.000 A 
ATOM     29  C   UNL     1      -0.173  15.686  22.347  0.00  0.00    +0.000 A 
ATOM     30  C   UNL     1      -0.791  14.658  21.629  0.00  0.00    +0.000 A 
ENDBRANCH  24  25
ENDBRANCH  11  24
TORSDOF 3
ENDMDL
MODEL 7
REMARK VINA RESULT:      -8.5      1.604      2.745
REMARK  Name = 
REMARK  3 active torsions:
REMARK  status: ('A' for Active; 'I' for Inactive)
REMARK    1  A    between atoms: C_6  and  C_7
REMARK    2  A    between atoms: N_23  and  C_24
REMARK    3  A    between atoms: C_24  and  C_25
REMARK                            x       y       z     vdW  Elec       q    Type
REMARK                         _______ _______ _______ _____ _____    ______ ____
ROOT
ATOM      1  O   UNL     1       5.932   2.718  15.953  0.00  0.00    +0.000 OA
ATOM      2  C   UNL     1       5.537   3.863  16.030  0.00  0.00    +0.000 C 
ATOM      3  C   UNL     1       4.639   4.344  17.075  0.00  0.00    +0.000 A 
ATOM      4  C   UNL     1       3.986   3.644  18.067  0.00  0.00    +0.000 A 
ATOM      5  C   UNL     1       3.125   4.369  18.897  0.00  0.00    +0.000 A 
ATOM      6  C   UNL     1       3.038   5.779  18.820  0.00  0.00    +0.000 A 
ATOM      7  C   UNL     1       3.700   6.453  17.769  0.00  0.00    +0.000 A 
ATOM      8  C   UNL     1       4.475   5.704  16.903  0.00  0.00    +0.000 A 
ATOM      9  C   UNL     1       5.234   6.086  15.709  0.00  0.00    +0.000 C 
ATOM     10  O   UNL     1       5.298   7.217  15.268  0.00  0.00    +0.000 OA
ATOM     11  N   UNL     1       5.817   4.940  15.239  0.00  0.00    +0.000 N 
ENDROOT
BRANCH   6  12
ATOM     12  C   UNL     1       2.222   6.610  19.767  0.00  0.00    +0.000 C 
ATOM     13  O   UNL     1       1.833   5.985  20.757  0.00  0.00    +0.000 OA
ATOM     14  N   UNL     1       1.886   7.959  19.484  0.00  0.00    +0.000 N 
ATOM     15  C   UNL     1       2.187   8.620  18.204  0.00  0.00    +0.000 C 
ATOM     16  C   UNL     1       1.038   9.427  17.647  0.00  0.00    +0.000 C 
ATOM     17  C   UNL     1       0.637  10.507  18.622  0.00  0.00    +0.000 C 
ATOM     18  C   UNL     1       0.570   9.997  20.036  0.00  0.00    +0.000 A 
ATOM     19  C   UNL     1      -0.122  10.799  20.965  0.00  0.00    +0.000 A 
ATOM     20  C   UNL     1      -0.220  10.424  22.298  0.00  0.00    +0.000 A 
ATOM     21  C   UNL     1       0.389   9.253  22.720  0.00  0.00    +0.000 A 
ATOM     22  C   UNL     1       1.084   8.451  21.806  0.00  0.00    +0.000 A 
ATOM     23  C   UNL     1       1.181   8.789  20.445  0.00  0.00    +0.000 A 
ENDBRANCH   6  12
BRANCH  11  24
ATOM     24  C   UNL     1       6.637   4.863  14.052  0.00  0.00    +0.000 C 
BRANCH  24  25
ATOM     25  C   UNL     1       6.035   3.956  13.002  0.00  0.00    +0.000 A 
ATOM     26  C   UNL     1       4.700   4.123  12.605  0.00  0.00    +0.000 A 
ATOM     27  C   UNL     1       4.141   3.292  11.630  0.00  0.00    +0.000 A 
ATOM     28  C   UNL     1       4.906   2.282  11.052  0.00  0.00    +0.000 A 
ATOM     29  C   UNL     1       6.228   2.094  11.452  0.00  0.00    +0.000 A 
ATOM     30  C   UNL     1       6.789   2.923  12.427  0.00  0.00    +0.000 A 
ENDBRANCH  24  25
ENDBRANCH  11  24
TORSDOF 3
ENDMDL
MODEL 8
REMARK VINA RESULT:      -8.3      3.001     10.366
REMARK  Name = 
REMARK  3 active torsions:
REMARK  status: ('A' for Active; 'I' for Inactive)
REMARK    1  A    between atoms: C_6  and  C_7
REMARK    2  A    between atoms: N_23  and  C_24
REMARK    3  A    between atoms: C_24  and  C_25
REMARK                            x       y       z     vdW  Elec       q    Type
REMARK                         _______ _______ _______ _____ _____    ______ ____
ROOT
ATOM      1  O   UNL     1       0.385  13.154  19.934  0.00  0.00    +0.000 OA
ATOM      2  C   UNL     1       0.303  12.153  20.617  0.00  0.00    +0.000 C 
ATOM      3  C   UNL     1       0.750  10.834  20.183  0.00  0.00    +0.000 A 
ATOM      4  C   UNL     1       1.219  10.422  18.955  0.00  0.00    +0.000 A 
ATOM      5  C   UNL     1       1.513   9.063  18.808  0.00  0.00    +0.000 A 
ATOM      6  C   UNL     1       1.473   8.176  19.909  0.00  0.00    +0.000 A 
ATOM      7  C   UNL     1       0.957   8.632  21.142  0.00  0.00    +0.000 A 
ATOM      8  C   UNL     1       0.585   9.960  21.239  0.00  0.00    +0.000 A 
ATOM      9  C   UNL     1      -0.018  10.717  22.340  0.00  0.00    +0.000 C 
ATOM     10  O   UNL     1      -0.303  10.245  23.423  0.00  0.00    +0.000 OA
ATOM     11  N   UNL     1      -0.171  12.000  21.888  0.00  0.00    +0.000 N 
ENDROOT
BRANCH   6  12
ATOM     12  C   UNL     1       1.896   6.738  19.828  0.00  0.00    +0.000 C 
ATOM     13  O   UNL     1       1.594   6.081  20.828  0.00  0.00    +0.000 OA
ATOM     14  N   UNL     1       2.637   6.233  18.728  0.00  0.00    +0.000 N 
ATOM     15  C   UNL     1       3.162   7.081  17.646  0.00  0.00    +0.000 C 
ATOM     16  C   UNL     1       4.592   6.771  17.266  0.00  0.00    +0.000 C 
ATOM     17  C   UNL     1       4.712   5.339  16.808  0.00  0.00    +0.000 C 
ATOM     18  C   UNL     1       3.960   4.392  17.704  0.00  0.00    +0.000 A 
ATOM     19  C   UNL     1       4.281   3.025  17.590  0.00  0.00    +0.000 A 
ATOM     20  C   UNL     1       3.626   2.072  18.359  0.00  0.00    +0.000 A 
ATOM     21  C   UNL     1       2.632   2.474  19.236  0.00  0.00    +0.000 A 
ATOM     22  C   UNL     1       2.300   3.830  19.352  0.00  0.00    +0.000 A 
ATOM     23  C   UNL     1       2.960   4.822  18.606  0.00  0.00    +0.000 A 
ENDBRANCH   6  12
BRANCH  11  24
ATOM     24  C   UNL     1      -0.759  13.076  22.653  0.00  0.00    +0.000 C 
BRANCH  24  25
ATOM     25  C   UNL     1      -2.271  13.019  22.647  0.00  0.00    +0.000 A 
ATOM     26  C   UNL     1      -2.974  12.795  23.839  0.00  0.00    +0.000 A 
ATOM     27  C   UNL     1      -4.371  12.749  23.840  0.00  0.00    +0.000 A 
ATOM     28  C   UNL     1      -5.075  12.915  22.650  0.00  0.00    +0.000 A 
ATOM     29  C   UNL     1      -4.387  13.119  21.455  0.00  0.00    +0.000 A 
ATOM     30  C   UNL     1      -2.990  13.166  21.453  0.00  0.00    +0.000 A 
ENDBRANCH  24  25
ENDBRANCH  11  24
TORSDOF 3
ENDMDL
MODEL 9
REMARK VINA RESULT:      -8.3      2.637     10.213
REMARK  Name = 
REMARK  3 active torsions:
REMARK  status: ('A' for Active; 'I' for Inactive)
REMARK    1  A    between atoms: C_6  and  C_7
REMARK    2  A    between atoms: N_23  and  C_24
REMARK    3  A    between atoms: C_24  and  C_25
REMARK                            x       y       z     vdW  Elec       q    Type
REMARK                         _______ _______ _______ _____ _____    ______ ____
ROOT
ATOM      1  O   UNL     1      -1.244  11.142  23.454  0.00  0.00    +0.000 OA
ATOM      2  C   UNL     1      -0.941  11.159  22.278  0.00  0.00    +0.000 C 
ATOM      3  C   UNL     1      -0.066  10.176  21.650  0.00  0.00    +0.000 A 
ATOM      4  C   UNL     1       0.661   9.152  22.218  0.00  0.00    +0.000 A 
ATOM      5  C   UNL     1       1.477   8.401  21.367  0.00  0.00    +0.000 A 
ATOM      6  C   UNL     1       1.448   8.584  19.965  0.00  0.00    +0.000 A 
ATOM      7  C   UNL     1       0.713   9.663  19.427  0.00  0.00    +0.000 A 
ATOM      8  C   UNL     1      -0.015  10.452  20.298  0.00  0.00    +0.000 A 
ATOM      9  C   UNL     1      -0.826  11.651  20.069  0.00  0.00    +0.000 C 
ATOM     10  O   UNL     1      -0.990  12.172  18.983  0.00  0.00    +0.000 OA
ATOM     11  N   UNL     1      -1.324  12.020  21.289  0.00  0.00    +0.000 N 
ENDROOT
BRANCH   6  12
ATOM     12  C   UNL     1       2.212   7.722  19.002  0.00  0.00    +0.000 C 
ATOM     13  O   UNL     1       2.555   8.317  17.978  0.00  0.00    +0.000 OA
ATOM     14  N   UNL     1       2.435   6.341  19.243  0.00  0.00    +0.000 N 
ATOM     15  C   UNL     1       1.840   5.608  20.372  0.00  0.00    +0.000 C 
ATOM     16  C   UNL     1       1.260   4.265  19.992  0.00  0.00    +0.000 C 
ATOM     17  C   UNL     1       2.332   3.382  19.402  0.00  0.00    +0.000 C 
ATOM     18  C   UNL     1       3.200   4.122  18.420  0.00  0.00    +0.000 A 
ATOM     19  C   UNL     1       3.990   3.336  17.557  0.00  0.00    +0.000 A 
ATOM     20  C   UNL     1       4.839   3.927  16.631  0.00  0.00    +0.000 A 
ATOM     21  C   UNL     1       4.920   5.309  16.570  0.00  0.00    +0.000 A 
ATOM     22  C   UNL     1       4.144   6.099  17.427  0.00  0.00    +0.000 A 
ATOM     23  C   UNL     1       3.257   5.533  18.359  0.00  0.00    +0.000 A 
ENDBRANCH   6  12
BRANCH  11  24
ATOM     24  C   UNL     1      -2.158  13.177  21.521  0.00  0.00    +0.000 C 
BRANCH  24  25
ATOM     25  C   UNL     1      -1.412  14.284  22.232  0.00  0.00    +0.000 A 
ATOM     26  C   UNL     1      -0.354  14.947  21.593  0.00  0.00    +0.000 A 
ATOM     27  C   UNL     1       0.334  15.975  22.244  0.00  0.00    +0.000 A 
ATOM     28  C   UNL     1      -0.022  16.342  23.540  0.00  0.00    +0.000 A 
ATOM     29  C   UNL     1      -1.059  15.677  24.192  0.00  0.00    +0.000 A 
ATOM     30  C   UNL     1      -1.748  14.649  23.543  0.00  0.00    +0.000 A 
ENDBRANCH  24  25
ENDBRANCH  11  24
TORSDOF 3
ENDMDL
