MODEL 1
REMARK VINA RESULT:      -8.2      0.000      0.000
REMARK  Name = 
REMARK  7 active torsions:
REMARK  status: ('A' for Active; 'I' for Inactive)
REMARK    1  A    between atoms: C_1  and  C_2
REMARK    2  A    between atoms: C_2  and  S_3
REMARK    3  A    between atoms: C_2  and  C_10
REMARK    4  A    between atoms: S_3  and  C_4
REMARK    5  A    between atoms: N_8  and  C_9
REMARK    6  A    between atoms: C_14  and  C_15
REMARK    7  A    between atoms: N_17  and  C_18
REMARK                            x       y       z     vdW  Elec       q    Type
REMARK                         _______ _______ _______ _____ _____    ______ ____
ROOT
ATOM      1  C   UNL     1       4.715   5.640  17.070  0.00  0.00    +0.000 A 
ATOM      2  C   UNL     1       4.004   4.431  17.019  0.00  0.00    +0.000 A 
ATOM      3  C   UNL     1       2.720   4.314  17.577  0.00  0.00    +0.000 A 
ATOM      4  C   UNL     1       2.111   5.410  18.189  0.00  0.00    +0.000 A 
ATOM      5  C   UNL     1       2.794   6.621  18.242  0.00  0.00    +0.000 A 
ATOM      6  C   UNL     1       4.085   6.730  17.691  0.00  0.00    +0.000 A 
ENDROOT
BRANCH   5   7
ATOM      7  C   UNL     1       2.186   7.857  18.789  0.00  0.00    +0.000 C 
ATOM      8  O   UNL     1       1.943   7.868  19.994  0.00  0.00    +0.000 OA
ATOM      9  N   UNL     1       1.880   8.868  17.884  0.00  0.00    +0.000 N 
ATOM     10  H   UNL     1       1.979   8.671  16.896  0.00  0.00    +0.000 HD
BRANCH   9  11
ATOM     11  C   UNL     1       1.105   9.993  18.241  0.00  0.00    +0.000 A 
ATOM     12  C   UNL     1       1.666  11.208  18.628  0.00  0.00    +0.000 A 
ATOM     13  C   UNL     1       0.787  12.159  19.130  0.00  0.00    +0.000 A 
ATOM     14  C   UNL     1      -0.483  11.939  19.615  0.00  0.00    +0.000 A 
ATOM     15  C   UNL     1      -0.957  11.032  18.718  0.00  0.00    +0.000 A 
ATOM     16  C   UNL     1      -0.280   9.974  18.108  0.00  0.00    +0.000 A 
ATOM     17  N   UNL     1      -1.756  12.056  18.195  0.00  0.00    +0.000 NA
ATOM     18  C   UNL     1      -1.101  13.014  18.827  0.00  0.00    +0.000 C 
ATOM     19  C   UNL     1       0.414  13.596  18.887  0.00  0.00    +0.000 C 
ENDBRANCH   9  11
ENDBRANCH   5   7
BRANCH   1  21
ATOM     20  C   UNL     1       7.165   6.273  17.529  0.00  0.00    +0.000 C 
ATOM     21  C   UNL     1       6.124   5.822  16.497  0.00  0.00    +0.000 C 
BRANCH  21  22
ATOM     22  S   UNL     1       6.698   4.253  15.720  0.00  0.00    +0.000 S 
BRANCH  22  23
ATOM     23  C   UNL     1       7.249   4.800  14.176  0.00  0.00    +0.000 A 
ATOM     24  N   UNL     1       8.201   5.671  13.930  0.00  0.00    +0.000 NA
ATOM     25  N   UNL     1       8.338   5.767  12.561  0.00  0.00    +0.000 NA
ATOM     26  C   UNL     1       7.457   4.960  12.014  0.00  0.00    +0.000 A 
ATOM     27  N   UNL     1       6.745   4.334  12.997  0.00  0.00    +0.000 N 
ATOM     28  C   UNL     1       5.706   3.358  12.801  0.00  0.00    +0.000 C 
ENDBRANCH  22  23
ENDBRANCH  21  22
ENDBRANCH   1  21
TORSDOF 5
ENDMDL
MODEL 2
REMARK VINA RESULT:      -8.1      5.436      7.036
REMARK  Name = 
REMARK  7 active torsions:
REMARK  status: ('A' for Active; 'I' for Inactive)
REMARK    1  A    between atoms: C_1  and  C_2
REMARK    2  A    between atoms: C_2  and  S_3
REMARK    3  A    between atoms: C_2  and  C_10
REMARK    4  A    between atoms: S_3  and  C_4
REMARK    5  A    between atoms: N_8  and  C_9
REMARK    6  A    between atoms: C_14  and  C_15
REMARK    7  A    between atoms: N_17  and  C_18
REMARK                            x       y       z     vdW  Elec       q    Type
REMARK                         _______ _______ _______ _____ _____    ______ ____
ROOT
ATOM      1  C   UNL     1       6.442   5.916  17.414  0.00  0.00    +0.000 A 
ATOM      2  C   UNL     1       7.021   5.072  18.376  0.00  0.00    +0.000 A 
ATOM      3  C   UNL     1       8.018   5.537  19.248  0.00  0.00    +0.000 A 
ATOM      4  C   UNL     1       8.452   6.861  19.189  0.00  0.00    +0.000 A 
ATOM      5  C   UNL     1       7.884   7.717  18.250  0.00  0.00    +0.000 A 
ATOM      6  C   UNL     1       6.893   7.244  17.369  0.00  0.00    +0.000 A 
ENDROOT
BRANCH   5   7
ATOM      7  C   UNL     1       8.219   9.160  18.180  0.00  0.00    +0.000 C 
ATOM      8  O   UNL     1       7.586   9.836  17.372  0.00  0.00    +0.000 OA
ATOM      9  N   UNL     1       9.262   9.608  18.982  0.00  0.00    +0.000 N 
ATOM     10  H   UNL     1       9.812   8.920  19.482  0.00  0.00    +0.000 HD
BRANCH   9  11
ATOM     11  C   UNL     1       9.819  10.899  18.847  0.00  0.00    +0.000 A 
ATOM     12  C   UNL     1      10.726  11.232  17.843  0.00  0.00    +0.000 A 
ATOM     13  C   UNL     1      11.330  12.477  17.948  0.00  0.00    +0.000 A 
ATOM     14  C   UNL     1      11.416  13.264  19.076  0.00  0.00    +0.000 A 
ATOM     15  C   UNL     1      10.175  13.101  19.609  0.00  0.00    +0.000 A 
ATOM     16  C   UNL     1       9.391  11.947  19.656  0.00  0.00    +0.000 A 
ATOM     17  N   UNL     1       9.891  14.408  19.195  0.00  0.00    +0.000 NA
ATOM     18  C   UNL     1      10.949  14.486  18.407  0.00  0.00    +0.000 C 
ATOM     19  C   UNL     1      11.541  13.709  17.110  0.00  0.00    +0.000 C 
ENDBRANCH   9  11
ENDBRANCH   5   7
BRANCH   1  21
ATOM     20  C   UNL     1       4.971   6.530  15.396  0.00  0.00    +0.000 C 
ATOM     21  C   UNL     1       5.365   5.461  16.422  0.00  0.00    +0.000 C 
BRANCH  21  22
ATOM     22  S   UNL     1       5.928   3.954  15.525  0.00  0.00    +0.000 S 
BRANCH  22  23
ATOM     23  C   UNL     1       6.886   4.631  14.256  0.00  0.00    +0.000 A 
ATOM     24  N   UNL     1       7.877   5.486  14.372  0.00  0.00    +0.000 NA
ATOM     25  N   UNL     1       8.385   5.712  13.109  0.00  0.00    +0.000 NA
ATOM     26  C   UNL     1       7.680   4.998  12.261  0.00  0.00    +0.000 A 
ATOM     27  N   UNL     1       6.720   4.304  12.942  0.00  0.00    +0.000 N 
ATOM     28  C   UNL     1       5.766   3.393  12.369  0.00  0.00    +0.000 C 
ENDBRANCH  22  23
ENDBRANCH  21  22
ENDBRANCH   1  21
TORSDOF 5
ENDMDL
MODEL 3
REMARK VINA RESULT:      -8.1      4.649     10.646
REMARK  Name = 
REMARK  7 active torsions:
REMARK  status: ('A' for Active; 'I' for Inactive)
REMARK    1  A    between atoms: C_1  and  C_2
REMARK    2  A    between atoms: C_2  and  S_3
REMARK    3  A    between atoms: C_2  and  C_10
REMARK    4  A    between atoms: S_3  and  C_4
REMARK    5  A    between atoms: N_8  and  C_9
REMARK    6  A    between atoms: C_14  and  C_15
REMARK    7  A    between atoms: N_17  and  C_18
REMARK                            x       y       z     vdW  Elec       q    Type
REMARK                         _______ _______ _______ _____ _____    ______ ____
ROOT
ATOM      1  C   UNL     1      -0.004  10.477  20.889  0.00  0.00    +0.000 A 
ATOM      2  C   UNL     1       0.150  11.572  20.024  0.00  0.00    +0.000 A 
ATOM      3  C   UNL     1       0.937  11.482  18.864  0.00  0.00    +0.000 A 
ATOM      4  C   UNL     1       1.578  10.288  18.534  0.00  0.00    +0.000 A 
ATOM      5  C   UNL     1       1.431   9.187  19.372  0.00  0.00    +0.000 A 
ATOM      6  C   UNL     1       0.652   9.286  20.540  0.00  0.00    +0.000 A 
ENDROOT
BRANCH   5   7
ATOM      7  C   UNL     1       2.001   7.856  19.050  0.00  0.00    +0.000 C 
ATOM      8  O   UNL     1       2.223   7.622  17.864  0.00  0.00    +0.000 OA
ATOM      9  N   UNL     1       2.170   6.967  20.105  0.00  0.00    +0.000 N 
ATOM     10  H   UNL     1       1.795   7.221  21.010  0.00  0.00    +0.000 HD
BRANCH   9  11
ATOM     11  C   UNL     1       2.492   5.606  19.902  0.00  0.00    +0.000 A 
ATOM     12  C   UNL     1       1.547   4.586  19.976  0.00  0.00    +0.000 A 
ATOM     13  C   UNL     1       2.040   3.288  19.943  0.00  0.00    +0.000 A 
ATOM     14  C   UNL     1       3.333   2.886  20.199  0.00  0.00    +0.000 A 
ATOM     15  C   UNL     1       4.044   3.863  19.573  0.00  0.00    +0.000 A 
ATOM     16  C   UNL     1       3.769   5.230  19.500  0.00  0.00    +0.000 A 
ATOM     17  N   UNL     1       4.360   2.919  18.588  0.00  0.00    +0.000 NA
ATOM     18  C   UNL     1       3.443   2.057  18.991  0.00  0.00    +0.000 C 
ATOM     19  C   UNL     1       1.829   2.015  19.169  0.00  0.00    +0.000 C 
ENDBRANCH   9  11
ENDBRANCH   5   7
BRANCH   1  21
ATOM     20  C   UNL     1      -0.220   9.731  23.341  0.00  0.00    +0.000 C 
ATOM     21  C   UNL     1      -0.832  10.521  22.178  0.00  0.00    +0.000 C 
BRANCH  21  22
ATOM     22  S   UNL     1      -1.078  12.268  22.711  0.00  0.00    +0.000 S 
BRANCH  22  23
ATOM     23  C   UNL     1      -2.801  12.370  22.806  0.00  0.00    +0.000 A 
ATOM     24  N   UNL     1      -3.561  12.101  23.843  0.00  0.00    +0.000 NA
ATOM     25  N   UNL     1      -4.867  12.371  23.487  0.00  0.00    +0.000 NA
ATOM     26  C   UNL     1      -4.863  12.784  22.240  0.00  0.00    +0.000 A 
ATOM     27  N   UNL     1      -3.581  12.795  21.770  0.00  0.00    +0.000 N 
ATOM     28  C   UNL     1      -3.163  13.209  20.458  0.00  0.00    +0.000 C 
ENDBRANCH  22  23
ENDBRANCH  21  22
ENDBRANCH   1  21
TORSDOF 5
ENDMDL
MODEL 4
REMARK VINA RESULT:      -8.1      5.202      7.786
REMARK  Name = 
REMARK  7 active torsions:
REMARK  status: ('A' for Active; 'I' for Inactive)
REMARK    1  A    between atoms: C_1  and  C_2
REMARK    2  A    between atoms: C_2  and  S_3
REMARK    3  A    between atoms: C_2  and  C_10
REMARK    4  A    between atoms: S_3  and  C_4
REMARK    5  A    between atoms: N_8  and  C_9
REMARK    6  A    between atoms: C_14  and  C_15
REMARK    7  A    between atoms: N_17  and  C_18
REMARK                            x       y       z     vdW  Elec       q    Type
REMARK                         _______ _______ _______ _____ _____    ______ ____
ROOT
ATOM      1  C   UNL     1       6.357   5.714  17.133  0.00  0.00    +0.000 A 
ATOM      2  C   UNL     1       6.933   4.811  18.041  0.00  0.00    +0.000 A 
ATOM      3  C   UNL     1       7.914   5.224  18.957  0.00  0.00    +0.000 A 
ATOM      4  C   UNL     1       8.332   6.554  18.997  0.00  0.00    +0.000 A 
ATOM      5  C   UNL     1       7.767   7.467  18.112  0.00  0.00    +0.000 A 
ATOM      6  C   UNL     1       6.793   7.046  17.187  0.00  0.00    +0.000 A 
ENDROOT
BRANCH   5   7
ATOM      7  C   UNL     1       8.085   8.915  18.148  0.00  0.00    +0.000 C 
ATOM      8  O   UNL     1       7.465   9.637  17.371  0.00  0.00    +0.000 OA
ATOM      9  N   UNL     1       9.103   9.319  19.005  0.00  0.00    +0.000 N 
ATOM     10  H   UNL     1       9.648   8.604  19.471  0.00  0.00    +0.000 HD
BRANCH   9  11
ATOM     11  C   UNL     1       9.647  10.622  18.971  0.00  0.00    +0.000 A 
ATOM     12  C   UNL     1      10.438  11.085  17.923  0.00  0.00    +0.000 A 
ATOM     13  C   UNL     1      11.056  12.314  18.115  0.00  0.00    +0.000 A 
ATOM     14  C   UNL     1      11.270  12.955  19.315  0.00  0.00    +0.000 A 
ATOM     15  C   UNL     1      10.095  12.716  19.957  0.00  0.00    +0.000 A 
ATOM     16  C   UNL     1       9.315  11.557  19.946  0.00  0.00    +0.000 A 
ATOM     17  N   UNL     1       9.772  14.061  19.744  0.00  0.00    +0.000 NA
ATOM     18  C   UNL     1      10.737  14.246  18.859  0.00  0.00    +0.000 C 
ATOM     19  C   UNL     1      11.178  13.642  17.418  0.00  0.00    +0.000 C 
ENDBRANCH   9  11
ENDBRANCH   5   7
BRANCH   1  21
ATOM     20  C   UNL     1       5.879   4.870  14.750  0.00  0.00    +0.000 C 
ATOM     21  C   UNL     1       5.299   5.318  16.097  0.00  0.00    +0.000 C 
BRANCH  21  22
ATOM     22  S   UNL     1       4.235   3.969  16.764  0.00  0.00    +0.000 S 
BRANCH  22  23
ATOM     23  C   UNL     1       3.496   4.738  18.124  0.00  0.00    +0.000 A 
ATOM     24  N   UNL     1       2.848   5.880  18.141  0.00  0.00    +0.000 NA
ATOM     25  N   UNL     1       2.385   6.080  19.426  0.00  0.00    +0.000 NA
ATOM     26  C   UNL     1       2.776   5.059  20.154  0.00  0.00    +0.000 A 
ATOM     27  N   UNL     1       3.485   4.191  19.374  0.00  0.00    +0.000 N 
ATOM     28  C   UNL     1       4.059   2.943  19.800  0.00  0.00    +0.000 C 
ENDBRANCH  22  23
ENDBRANCH  21  22
ENDBRANCH   1  21
TORSDOF 5
ENDMDL
MODEL 5
REMARK VINA RESULT:      -8.0      3.099      4.307
REMARK  Name = 
REMARK  7 active torsions:
REMARK  status: ('A' for Active; 'I' for Inactive)
REMARK    1  A    between atoms: C_1  and  C_2
REMARK    2  A    between atoms: C_2  and  S_3
REMARK    3  A    between atoms: C_2  and  C_10
REMARK    4  A    between atoms: S_3  and  C_4
REMARK    5  A    between atoms: N_8  and  C_9
REMARK    6  A    between atoms: C_14  and  C_15
REMARK    7  A    between atoms: N_17  and  C_18
REMARK                            x       y       z     vdW  Elec       q    Type
REMARK                         _______ _______ _______ _____ _____    ______ ____
ROOT
ATOM      1  C   UNL     1       2.680   6.659  19.368  0.00  0.00    +0.000 A 
ATOM      2  C   UNL     1       3.004   7.157  18.096  0.00  0.00    +0.000 A 
ATOM      3  C   UNL     1       2.471   8.370  17.629  0.00  0.00    +0.000 A 
ATOM      4  C   UNL     1       1.610   9.121  18.429  0.00  0.00    +0.000 A 
ATOM      5  C   UNL     1       1.284   8.650  19.698  0.00  0.00    +0.000 A 
ATOM      6  C   UNL     1       1.811   7.429  20.157  0.00  0.00    +0.000 A 
ENDROOT
BRANCH   5   7
ATOM      7  C   UNL     1       0.453   9.429  20.648  0.00  0.00    +0.000 C 
ATOM      8  O   UNL     1      -0.060   8.804  21.574  0.00  0.00    +0.000 OA
ATOM      9  N   UNL     1       0.269  10.779  20.371  0.00  0.00    +0.000 N 
ATOM     10  H   UNL     1       0.610  11.137  19.487  0.00  0.00    +0.000 HD
BRANCH   9  11
ATOM     11  C   UNL     1      -0.669  11.572  21.067  0.00  0.00    +0.000 A 
ATOM     12  C   UNL     1      -0.461  12.027  22.367  0.00  0.00    +0.000 A 
ATOM     13  C   UNL     1      -1.546  12.633  22.987  0.00  0.00    +0.000 A 
ATOM     14  C   UNL     1      -2.871  12.529  22.626  0.00  0.00    +0.000 A 
ATOM     15  C   UNL     1      -2.783  12.595  21.271  0.00  0.00    +0.000 A 
ATOM     16  C   UNL     1      -1.815  12.040  20.431  0.00  0.00    +0.000 A 
ATOM     17  N   UNL     1      -3.314  13.888  21.359  0.00  0.00    +0.000 NA
ATOM     18  C   UNL     1      -3.121  13.976  22.663  0.00  0.00    +0.000 C 
ATOM     19  C   UNL     1      -1.871  13.918  23.699  0.00  0.00    +0.000 C 
ENDBRANCH   9  11
ENDBRANCH   5   7
BRANCH   1  21
ATOM     20  C   UNL     1       2.184   4.535  20.731  0.00  0.00    +0.000 C 
ATOM     21  C   UNL     1       3.214   5.334  19.923  0.00  0.00    +0.000 C 
BRANCH  21  22
ATOM     22  S   UNL     1       3.841   4.280  18.549  0.00  0.00    +0.000 S 
BRANCH  22  23
ATOM     23  C   UNL     1       5.531   4.636  18.569  0.00  0.00    +0.000 A 
ATOM     24  N   UNL     1       6.247   5.057  19.587  0.00  0.00    +0.000 NA
ATOM     25  N   UNL     1       7.557   5.160  19.164  0.00  0.00    +0.000 NA
ATOM     26  C   UNL     1       7.596   4.811  17.898  0.00  0.00    +0.000 A 
ATOM     27  N   UNL     1       6.339   4.477  17.481  0.00  0.00    +0.000 N 
ATOM     28  C   UNL     1       5.976   4.020  16.166  0.00  0.00    +0.000 C 
ENDBRANCH  22  23
ENDBRANCH  21  22
ENDBRANCH   1  21
TORSDOF 5
ENDMDL
MODEL 6
REMARK VINA RESULT:      -8.0      4.841      7.821
REMARK  Name = 
REMARK  7 active torsions:
REMARK  status: ('A' for Active; 'I' for Inactive)
REMARK    1  A    between atoms: C_1  and  C_2
REMARK    2  A    between atoms: C_2  and  S_3
REMARK    3  A    between atoms: C_2  and  C_10
REMARK    4  A    between atoms: S_3  and  C_4
REMARK    5  A    between atoms: N_8  and  C_9
REMARK    6  A    between atoms: C_14  and  C_15
REMARK    7  A    between atoms: N_17  and  C_18
REMARK                            x       y       z     vdW  Elec       q    Type
REMARK                         _______ _______ _______ _____ _____    ______ ____
ROOT
ATOM      1  C   UNL     1       4.447   5.765  17.602  0.00  0.00    +0.000 A 
ATOM      2  C   UNL     1       4.738   4.891  16.542  0.00  0.00    +0.000 A 
ATOM      3  C   UNL     1       5.987   4.912  15.900  0.00  0.00    +0.000 A 
ATOM      4  C   UNL     1       6.981   5.800  16.313  0.00  0.00    +0.000 A 
ATOM      5  C   UNL     1       6.717   6.667  17.368  0.00  0.00    +0.000 A 
ATOM      6  C   UNL     1       5.459   6.651  18.000  0.00  0.00    +0.000 A 
ENDROOT
BRANCH   5   7
ATOM      7  C   UNL     1       7.745   7.577  17.930  0.00  0.00    +0.000 C 
ATOM      8  O   UNL     1       8.486   7.109  18.792  0.00  0.00    +0.000 OA
ATOM      9  N   UNL     1       7.737   8.894  17.486  0.00  0.00    +0.000 N 
ATOM     10  H   UNL     1       6.970   9.196  16.897  0.00  0.00    +0.000 HD
BRANCH   9  11
ATOM     11  C   UNL     1       8.511   9.904  18.099  0.00  0.00    +0.000 A 
ATOM     12  C   UNL     1       8.693  11.165  17.538  0.00  0.00    +0.000 A 
ATOM     13  C   UNL     1       9.629  11.984  18.155  0.00  0.00    +0.000 A 
ATOM     14  C   UNL     1      10.632  11.594  19.015  0.00  0.00    +0.000 A 
ATOM     15  C   UNL     1       9.988  10.665  19.771  0.00  0.00    +0.000 A 
ATOM     16  C   UNL     1       9.044   9.718  19.371  0.00  0.00    +0.000 A 
ATOM     17  N   UNL     1       9.993  11.599  20.815  0.00  0.00    +0.000 NA
ATOM     18  C   UNL     1      10.323  12.610  20.030  0.00  0.00    +0.000 C 
ATOM     19  C   UNL     1       9.715  13.371  18.732  0.00  0.00    +0.000 C 
ENDBRANCH   9  11
ENDBRANCH   5   7
BRANCH   1  21
ATOM     20  C   UNL     1       2.213   6.994  17.940  0.00  0.00    +0.000 C 
ATOM     21  C   UNL     1       3.097   5.801  18.326  0.00  0.00    +0.000 C 
BRANCH  21  22
ATOM     22  S   UNL     1       2.166   4.244  18.008  0.00  0.00    +0.000 S 
BRANCH  22  23
ATOM     23  C   UNL     1       2.005   3.594  19.601  0.00  0.00    +0.000 A 
ATOM     24  N   UNL     1       0.938   3.611  20.367  0.00  0.00    +0.000 NA
ATOM     25  N   UNL     1       1.246   2.934  21.529  0.00  0.00    +0.000 NA
ATOM     26  C   UNL     1       2.494   2.536  21.441  0.00  0.00    +0.000 A 
ATOM     27  N   UNL     1       3.013   2.934  20.242  0.00  0.00    +0.000 N 
ATOM     28  C   UNL     1       4.343   2.669  19.764  0.00  0.00    +0.000 C 
ENDBRANCH  22  23
ENDBRANCH  21  22
ENDBRANCH   1  21
TORSDOF 5
ENDMDL
MODEL 7
REMARK VINA RESULT:      -8.0      1.259      1.628
REMARK  Name = 
REMARK  7 active torsions:
REMARK  status: ('A' for Active; 'I' for Inactive)
REMARK    1  A    between atoms: C_1  and  C_2
REMARK    2  A    between atoms: C_2  and  S_3
REMARK    3  A    between atoms: C_2  and  C_10
REMARK    4  A    between atoms: S_3  and  C_4
REMARK    5  A    between atoms: N_8  and  C_9
REMARK    6  A    between atoms: C_14  and  C_15
REMARK    7  A    between atoms: N_17  and  C_18
REMARK                            x       y       z     vdW  Elec       q    Type
REMARK                         _______ _______ _______ _____ _____    ______ ____
ROOT
ATOM      1  C   UNL     1       4.747   5.928  17.728  0.00  0.00    +0.000 A 
ATOM      2  C   UNL     1       4.340   4.916  18.611  0.00  0.00    +0.000 A 
ATOM      3  C   UNL     1       3.199   5.064  19.417  0.00  0.00    +0.000 A 
ATOM      4  C   UNL     1       2.429   6.225  19.348  0.00  0.00    +0.000 A 
ATOM      5  C   UNL     1       2.809   7.237  18.472  0.00  0.00    +0.000 A 
ATOM      6  C   UNL     1       3.960   7.089  17.675  0.00  0.00    +0.000 A 
ENDROOT
BRANCH   5   7
ATOM      7  C   UNL     1       1.998   8.462  18.268  0.00  0.00    +0.000 C 
ATOM      8  O   UNL     1       2.139   9.047  17.196  0.00  0.00    +0.000 OA
ATOM      9  N   UNL     1       1.203   8.881  19.329  0.00  0.00    +0.000 N 
ATOM     10  H   UNL     1       1.301   8.403  20.217  0.00  0.00    +0.000 HD
BRANCH   9  11
ATOM     11  C   UNL     1       0.561  10.138  19.343  0.00  0.00    +0.000 A 
ATOM     12  C   UNL     1      -0.814  10.288  19.180  0.00  0.00    +0.000 A 
ATOM     13  C   UNL     1      -1.277  11.588  19.026  0.00  0.00    +0.000 A 
ATOM     14  C   UNL     1      -0.538  12.694  18.668  0.00  0.00    +0.000 A 
ATOM     15  C   UNL     1       0.602  12.495  19.383  0.00  0.00    +0.000 A 
ATOM     16  C   UNL     1       1.271  11.297  19.641  0.00  0.00    +0.000 A 
ATOM     17  N   UNL     1       0.185  13.533  20.225  0.00  0.00    +0.000 NA
ATOM     18  C   UNL     1      -1.051  13.540  19.754  0.00  0.00    +0.000 C 
ATOM     19  C   UNL     1      -2.298  12.507  19.640  0.00  0.00    +0.000 C 
ENDBRANCH   9  11
ENDBRANCH   5   7
BRANCH   1  21
ATOM     20  C   UNL     1       7.314   5.820  17.617  0.00  0.00    +0.000 C 
ATOM     21  C   UNL     1       5.992   5.831  16.840  0.00  0.00    +0.000 C 
BRANCH  21  22
ATOM     22  S   UNL     1       5.905   4.319  15.792  0.00  0.00    +0.000 S 
BRANCH  22  23
ATOM     23  C   UNL     1       6.860   4.777  14.426  0.00  0.00    +0.000 A 
ATOM     24  N   UNL     1       7.901   5.577  14.411  0.00  0.00    +0.000 NA
ATOM     25  N   UNL     1       8.381   5.616  13.118  0.00  0.00    +0.000 NA
ATOM     26  C   UNL     1       7.611   4.848  12.383  0.00  0.00    +0.000 A 
ATOM     27  N   UNL     1       6.635   4.302  13.166  0.00  0.00    +0.000 N 
ATOM     28  C   UNL     1       5.612   3.388  12.733  0.00  0.00    +0.000 C 
ENDBRANCH  22  23
ENDBRANCH  21  22
ENDBRANCH   1  21
TORSDOF 5
ENDMDL
MODEL 8
REMARK VINA RESULT:      -7.9      4.271      9.657
REMARK  Name = 
REMARK  7 active torsions:
REMARK  status: ('A' for Active; 'I' for Inactive)
REMARK    1  A    between atoms: C_1  and  C_2
REMARK    2  A    between atoms: C_2  and  S_3
REMARK    3  A    between atoms: C_2  and  C_10
REMARK    4  A    between atoms: S_3  and  C_4
REMARK    5  A    between atoms: N_8  and  C_9
REMARK    6  A    between atoms: C_14  and  C_15
REMARK    7  A    between atoms: N_17  and  C_18
REMARK                            x       y       z     vdW  Elec       q    Type
REMARK                         _______ _______ _______ _____ _____    ______ ____
ROOT
ATOM      1  C   UNL     1      -0.709  10.951  21.110  0.00  0.00    +0.000 A 
ATOM      2  C   UNL     1      -0.678  10.815  22.507  0.00  0.00    +0.000 A 
ATOM      3  C   UNL     1       0.037   9.775  23.124  0.00  0.00    +0.000 A 
ATOM      4  C   UNL     1       0.749   8.853  22.358  0.00  0.00    +0.000 A 
ATOM      5  C   UNL     1       0.740   8.975  20.972  0.00  0.00    +0.000 A 
ATOM      6  C   UNL     1       0.013  10.012  20.358  0.00  0.00    +0.000 A 
ENDROOT
BRANCH   5   7
ATOM      7  C   UNL     1       1.543   8.096  20.088  0.00  0.00    +0.000 C 
ATOM      8  O   UNL     1       1.815   8.534  18.972  0.00  0.00    +0.000 OA
ATOM      9  N   UNL     1       1.860   6.831  20.570  0.00  0.00    +0.000 N 
ATOM     10  H   UNL     1       1.436   6.531  21.440  0.00  0.00    +0.000 HD
BRANCH   9  11
ATOM     11  C   UNL     1       2.423   5.829  19.750  0.00  0.00    +0.000 A 
ATOM     12  C   UNL     1       3.692   5.938  19.185  0.00  0.00    +0.000 A 
ATOM     13  C   UNL     1       4.035   4.967  18.253  0.00  0.00    +0.000 A 
ATOM     14  C   UNL     1       3.176   4.135  17.568  0.00  0.00    +0.000 A 
ATOM     15  C   UNL     1       2.288   3.807  18.545  0.00  0.00    +0.000 A 
ATOM     16  C   UNL     1       1.771   4.615  19.560  0.00  0.00    +0.000 A 
ATOM     17  N   UNL     1       2.875   2.536  18.568  0.00  0.00    +0.000 NA
ATOM     18  C   UNL     1       3.930   2.910  17.866  0.00  0.00    +0.000 C 
ATOM     19  C   UNL     1       5.143   3.982  17.999  0.00  0.00    +0.000 C 
ENDBRANCH   9  11
ENDBRANCH   5   7
BRANCH   1  21
ATOM     20  C   UNL     1      -0.990  13.471  20.681  0.00  0.00    +0.000 C 
ATOM     21  C   UNL     1      -1.487  12.052  20.381  0.00  0.00    +0.000 C 
BRANCH  21  22
ATOM     22  S   UNL     1      -1.422  11.771  18.561  0.00  0.00    +0.000 S 
BRANCH  22  23
ATOM     23  C   UNL     1      -3.100  11.673  18.157  0.00  0.00    +0.000 A 
ATOM     24  N   UNL     1      -4.125  11.963  18.924  0.00  0.00    +0.000 NA
ATOM     25  N   UNL     1      -5.271  11.789  18.176  0.00  0.00    +0.000 NA
ATOM     26  C   UNL     1      -4.909  11.386  16.979  0.00  0.00    +0.000 A 
ATOM     27  N   UNL     1      -3.548  11.294  16.924  0.00  0.00    +0.000 N 
ATOM     28  C   UNL     1      -2.770  10.910  15.777  0.00  0.00    +0.000 C 
ENDBRANCH  22  23
ENDBRANCH  21  22
ENDBRANCH   1  21
TORSDOF 5
ENDMDL
MODEL 9
REMARK VINA RESULT:      -7.9      4.321      9.676
REMARK  Name = 
REMARK  7 active torsions:
REMARK  status: ('A' for Active; 'I' for Inactive)
REMARK    1  A    between atoms: C_1  and  C_2
REMARK    2  A    between atoms: C_2  and  S_3
REMARK    3  A    between atoms: C_2  and  C_10
REMARK    4  A    between atoms: S_3  and  C_4
REMARK    5  A    between atoms: N_8  and  C_9
REMARK    6  A    between atoms: C_14  and  C_15
REMARK    7  A    between atoms: N_17  and  C_18
REMARK                            x       y       z     vdW  Elec       q    Type
REMARK                         _______ _______ _______ _____ _____    ______ ____
ROOT
ATOM      1  C   UNL     1      -0.325  10.640  20.517  0.00  0.00    +0.000 A 
ATOM      2  C   UNL     1      -0.295  10.757  21.916  0.00  0.00    +0.000 A 
ATOM      3  C   UNL     1       0.401   9.832  22.711  0.00  0.00    +0.000 A 
ATOM      4  C   UNL     1       1.095   8.773  22.124  0.00  0.00    +0.000 A 
ATOM      5  C   UNL     1       1.086   8.645  20.739  0.00  0.00    +0.000 A 
ATOM      6  C   UNL     1       0.378   9.568  19.947  0.00  0.00    +0.000 A 
ENDROOT
BRANCH   5   7
ATOM      7  C   UNL     1       1.872   7.607  20.028  0.00  0.00    +0.000 C 
ATOM      8  O   UNL     1       2.508   7.972  19.042  0.00  0.00    +0.000 OA
ATOM      9  N   UNL     1       1.767   6.302  20.497  0.00  0.00    +0.000 N 
ATOM     10  H   UNL     1       1.081   6.105  21.215  0.00  0.00    +0.000 HD
BRANCH   9  11
ATOM     11  C   UNL     1       2.283   5.198  19.782  0.00  0.00    +0.000 A 
ATOM     12  C   UNL     1       3.338   4.419  20.250  0.00  0.00    +0.000 A 
ATOM     13  C   UNL     1       3.861   3.491  19.359  0.00  0.00    +0.000 A 
ATOM     14  C   UNL     1       3.712   3.483  17.989  0.00  0.00    +0.000 A 
ATOM     15  C   UNL     1       2.404   3.836  17.862  0.00  0.00    +0.000 A 
ATOM     16  C   UNL     1       1.674   4.762  18.610  0.00  0.00    +0.000 A 
ATOM     17  N   UNL     1       2.143   2.507  17.506  0.00  0.00    +0.000 NA
ATOM     18  C   UNL     1       3.320   2.069  17.919  0.00  0.00    +0.000 C 
ATOM     19  C   UNL     1       4.164   2.019  19.305  0.00  0.00    +0.000 C 
ENDBRANCH   9  11
ENDBRANCH   5   7
BRANCH   1  21
ATOM     20  C   UNL     1      -0.290  12.865  19.227  0.00  0.00    +0.000 C 
ATOM     21  C   UNL     1      -1.083  11.607  19.600  0.00  0.00    +0.000 C 
BRANCH  21  22
ATOM     22  S   UNL     1      -1.591  10.743  18.054  0.00  0.00    +0.000 S 
BRANCH  22  23
ATOM     23  C   UNL     1      -3.217  11.294  17.857  0.00  0.00    +0.000 A 
ATOM     24  N   UNL     1      -4.004  11.806  18.775  0.00  0.00    +0.000 NA
ATOM     25  N   UNL     1      -5.191  12.153  18.164  0.00  0.00    +0.000 NA
ATOM     26  C   UNL     1      -5.096  11.830  16.894  0.00  0.00    +0.000 A 
ATOM     27  N   UNL     1      -3.868  11.281  16.657  0.00  0.00    +0.000 N 
ATOM     28  C   UNL     1      -3.375  10.823  15.386  0.00  0.00    +0.000 C 
ENDBRANCH  22  23
ENDBRANCH  21  22
ENDBRANCH   1  21
TORSDOF 5
ENDMDL
