MODEL 1
REMARK VINA RESULT:      -8.4      0.000      0.000
REMARK  Name = 
REMARK  3 active torsions:
REMARK  status: ('A' for Active; 'I' for Inactive)
REMARK    1  A    between atoms: C_2  and  C_19
REMARK    2  A    between atoms: N_3  and  C_4
REMARK    3  A    between atoms: C_5  and  C_6
REMARK                            x       y       z     vdW  Elec       q    Type
REMARK                         _______ _______ _______ _____ _____    ______ ____
ROOT
ATOM      1  C   UNL     1       6.024   4.194  15.425  0.00  0.00    +0.000 A 
ATOM      2  C   UNL     1       6.987   5.155  15.689  0.00  0.00    +0.000 A 
ATOM      3  N   UNL     1       7.662   5.502  14.539  0.00  0.00    +0.000 NA
ATOM      4  C   UNL     1       7.159   4.744  13.590  0.00  0.00    +0.000 A 
ATOM      5  C   UNL     1       7.483   4.653  12.205  0.00  0.00    +0.000 A 
ATOM      6  C   UNL     1       6.774   3.835  11.404  0.00  0.00    +0.000 A 
ATOM      7  C   UNL     1       5.672   3.040  11.921  0.00  0.00    +0.000 A 
ATOM      8  C   UNL     1       5.380   3.099  13.232  0.00  0.00    +0.000 A 
ATOM      9  N   UNL     1       6.135   3.930  14.066  0.00  0.00    +0.000 N 
ENDROOT
BRANCH   2  10
ATOM     10  C   UNL     1       7.376   5.696  16.982  0.00  0.00    +0.000 A 
ATOM     11  C   UNL     1       7.681   4.871  18.074  0.00  0.00    +0.000 A 
ATOM     12  C   UNL     1       8.119   5.419  19.282  0.00  0.00    +0.000 A 
ATOM     13  C   UNL     1       8.274   6.797  19.404  0.00  0.00    +0.000 A 
ATOM     14  C   UNL     1       7.992   7.628  18.322  0.00  0.00    +0.000 A 
ATOM     15  C   UNL     1       7.546   7.081  17.118  0.00  0.00    +0.000 A 
ENDBRANCH   2  10
BRANCH   1  18
ATOM     16  O   UNL     1       4.108   5.655  16.774  0.00  0.00    +0.000 OA
ATOM     17  C   UNL     1       4.149   4.452  16.984  0.00  0.00    +0.000 C 
ATOM     18  N   UNL     1       5.138   3.634  16.340  0.00  0.00    +0.000 N 
ATOM     19  H   UNL     1       5.005   2.625  16.371  0.00  0.00    +0.000 HD
BRANCH  17  20
ATOM     20  C   UNL     1       3.166   3.726  17.837  0.00  0.00    +0.000 A 
ATOM     21  C   UNL     1       1.991   4.361  18.222  0.00  0.00    +0.000 A 
ATOM     22  C   UNL     1       1.119   3.674  19.059  0.00  0.00    +0.000 A 
ATOM     23  C   UNL     1       1.448   2.388  19.477  0.00  0.00    +0.000 A 
ATOM     24  C   UNL     1       2.634   1.824  19.022  0.00  0.00    +0.000 A 
ATOM     25  N   UNL     1       3.504   2.455  18.197  0.00  0.00    +0.000 NA
ENDBRANCH  17  20
ENDBRANCH   1  18
TORSDOF 3
ENDMDL
MODEL 2
REMARK VINA RESULT:      -8.4      3.541      5.792
REMARK  Name = 
REMARK  3 active torsions:
REMARK  status: ('A' for Active; 'I' for Inactive)
REMARK    1  A    between atoms: C_2  and  C_19
REMARK    2  A    between atoms: N_3  and  C_4
REMARK    3  A    between atoms: C_5  and  C_6
REMARK                            x       y       z     vdW  Elec       q    Type
REMARK                         _______ _______ _______ _____ _____    ______ ____
ROOT
ATOM      1  C   UNL     1       3.288   5.203  19.156  0.00  0.00    +0.000 A 
ATOM      2  C   UNL     1       4.489   4.919  18.527  0.00  0.00    +0.000 A 
ATOM      3  N   UNL     1       4.509   3.620  18.071  0.00  0.00    +0.000 NA
ATOM      4  C   UNL     1       3.364   3.095  18.443  0.00  0.00    +0.000 A 
ATOM      5  C   UNL     1       2.842   1.780  18.264  0.00  0.00    +0.000 A 
ATOM      6  C   UNL     1       1.595   1.492  18.684  0.00  0.00    +0.000 A 
ATOM      7  C   UNL     1       0.758   2.500  19.315  0.00  0.00    +0.000 A 
ATOM      8  C   UNL     1       1.254   3.733  19.513  0.00  0.00    +0.000 A 
ATOM      9  N   UNL     1       2.559   4.022  19.100  0.00  0.00    +0.000 N 
ENDROOT
BRANCH   2  10
ATOM     10  C   UNL     1       5.663   5.773  18.418  0.00  0.00    +0.000 A 
ATOM     11  C   UNL     1       6.813   5.562  19.192  0.00  0.00    +0.000 A 
ATOM     12  C   UNL     1       7.948   6.356  19.013  0.00  0.00    +0.000 A 
ATOM     13  C   UNL     1       7.951   7.358  18.046  0.00  0.00    +0.000 A 
ATOM     14  C   UNL     1       6.821   7.567  17.257  0.00  0.00    +0.000 A 
ATOM     15  C   UNL     1       5.684   6.779  17.442  0.00  0.00    +0.000 A 
ENDBRANCH   2  10
BRANCH   1  18
ATOM     16  O   UNL     1       1.966   7.170  17.739  0.00  0.00    +0.000 OA
ATOM     17  C   UNL     1       2.200   7.388  18.918  0.00  0.00    +0.000 C 
ATOM     18  N   UNL     1       2.909   6.422  19.709  0.00  0.00    +0.000 N 
ATOM     19  H   UNL     1       2.893   6.541  20.721  0.00  0.00    +0.000 HD
BRANCH  17  20
ATOM     20  C   UNL     1       1.723   8.596  19.649  0.00  0.00    +0.000 A 
ATOM     21  C   UNL     1       1.513   8.529  21.022  0.00  0.00    +0.000 A 
ATOM     22  C   UNL     1       1.021   9.660  21.665  0.00  0.00    +0.000 A 
ATOM     23  C   UNL     1       0.757  10.805  20.921  0.00  0.00    +0.000 A 
ATOM     24  C   UNL     1       1.019  10.787  19.556  0.00  0.00    +0.000 A 
ATOM     25  N   UNL     1       1.510   9.711  18.894  0.00  0.00    +0.000 NA
ENDBRANCH  17  20
ENDBRANCH   1  18
TORSDOF 3
ENDMDL
MODEL 3
REMARK VINA RESULT:      -8.3      1.031      1.106
REMARK  Name = 
REMARK  3 active torsions:
REMARK  status: ('A' for Active; 'I' for Inactive)
REMARK    1  A    between atoms: C_2  and  C_19
REMARK    2  A    between atoms: N_3  and  C_4
REMARK    3  A    between atoms: C_5  and  C_6
REMARK                            x       y       z     vdW  Elec       q    Type
REMARK                         _______ _______ _______ _____ _____    ______ ____
ROOT
ATOM      1  C   UNL     1       5.537   4.742  15.354  0.00  0.00    +0.000 A 
ATOM      2  C   UNL     1       6.770   5.312  15.627  0.00  0.00    +0.000 A 
ATOM      3  N   UNL     1       7.619   5.182  14.550  0.00  0.00    +0.000 NA
ATOM      4  C   UNL     1       6.945   4.510  13.645  0.00  0.00    +0.000 A 
ATOM      5  C   UNL     1       7.323   4.068  12.343  0.00  0.00    +0.000 A 
ATOM      6  C   UNL     1       6.423   3.442  11.562  0.00  0.00    +0.000 A 
ATOM      7  C   UNL     1       5.061   3.208  12.014  0.00  0.00    +0.000 A 
ATOM      8  C   UNL     1       4.706   3.597  13.251  0.00  0.00    +0.000 A 
ATOM      9  N   UNL     1       5.651   4.224  14.070  0.00  0.00    +0.000 N 
ENDROOT
BRANCH   2  10
ATOM     10  C   UNL     1       7.228   5.888  16.882  0.00  0.00    +0.000 A 
ATOM     11  C   UNL     1       7.498   5.099  18.009  0.00  0.00    +0.000 A 
ATOM     12  C   UNL     1       8.003   5.674  19.177  0.00  0.00    +0.000 A 
ATOM     13  C   UNL     1       8.261   7.042  19.224  0.00  0.00    +0.000 A 
ATOM     14  C   UNL     1       8.016   7.835  18.105  0.00  0.00    +0.000 A 
ATOM     15  C   UNL     1       7.503   7.262  16.941  0.00  0.00    +0.000 A 
ENDBRANCH   2  10
BRANCH   1  18
ATOM     16  O   UNL     1       4.899   2.582  16.953  0.00  0.00    +0.000 OA
ATOM     17  C   UNL     1       4.177   3.565  17.022  0.00  0.00    +0.000 C 
ATOM     18  N   UNL     1       4.431   4.714  16.198  0.00  0.00    +0.000 N 
ATOM     19  H   UNL     1       3.948   5.578  16.436  0.00  0.00    +0.000 HD
BRANCH  17  20
ATOM     20  C   UNL     1       3.049   3.699  17.986  0.00  0.00    +0.000 A 
ATOM     21  C   UNL     1       3.101   4.678  18.971  0.00  0.00    +0.000 A 
ATOM     22  C   UNL     1       2.056   4.744  19.886  0.00  0.00    +0.000 A 
ATOM     23  C   UNL     1       1.005   3.837  19.785  0.00  0.00    +0.000 A 
ATOM     24  C   UNL     1       1.027   2.907  18.753  0.00  0.00    +0.000 A 
ATOM     25  N   UNL     1       2.019   2.818  17.834  0.00  0.00    +0.000 NA
ENDBRANCH  17  20
ENDBRANCH   1  18
TORSDOF 3
ENDMDL
MODEL 4
REMARK VINA RESULT:      -8.3      3.492      5.735
REMARK  Name = 
REMARK  3 active torsions:
REMARK  status: ('A' for Active; 'I' for Inactive)
REMARK    1  A    between atoms: C_2  and  C_19
REMARK    2  A    between atoms: N_3  and  C_4
REMARK    3  A    between atoms: C_5  and  C_6
REMARK                            x       y       z     vdW  Elec       q    Type
REMARK                         _______ _______ _______ _____ _____    ______ ____
ROOT
ATOM      1  C   UNL     1       3.324   5.228  18.251  0.00  0.00    +0.000 A 
ATOM      2  C   UNL     1       4.659   4.870  18.159  0.00  0.00    +0.000 A 
ATOM      3  N   UNL     1       4.809   3.504  18.264  0.00  0.00    +0.000 NA
ATOM      4  C   UNL     1       3.600   3.028  18.458  0.00  0.00    +0.000 A 
ATOM      5  C   UNL     1       3.148   1.690  18.655  0.00  0.00    +0.000 A 
ATOM      6  C   UNL     1       1.830   1.440  18.770  0.00  0.00    +0.000 A 
ATOM      7  C   UNL     1       0.847   2.508  18.693  0.00  0.00    +0.000 A 
ATOM      8  C   UNL     1       1.268   3.775  18.537  0.00  0.00    +0.000 A 
ATOM      9  N   UNL     1       2.638   4.036  18.443  0.00  0.00    +0.000 N 
ENDROOT
BRANCH   2  10
ATOM     10  C   UNL     1       5.816   5.749  18.076  0.00  0.00    +0.000 A 
ATOM     11  C   UNL     1       5.852   6.854  17.214  0.00  0.00    +0.000 A 
ATOM     12  C   UNL     1       6.949   7.718  17.208  0.00  0.00    +0.000 A 
ATOM     13  C   UNL     1       8.013   7.497  18.078  0.00  0.00    +0.000 A 
ATOM     14  C   UNL     1       7.983   6.414  18.954  0.00  0.00    +0.000 A 
ATOM     15  C   UNL     1       6.891   5.545  18.952  0.00  0.00    +0.000 A 
ENDBRANCH   2  10
BRANCH   1  18
ATOM     16  O   UNL     1       2.172   6.559  20.378  0.00  0.00    +0.000 OA
ATOM     17  C   UNL     1       2.243   7.155  19.314  0.00  0.00    +0.000 C 
ATOM     18  N   UNL     1       2.803   6.514  18.157  0.00  0.00    +0.000 N 
ATOM     19  H   UNL     1       3.039   7.106  17.363  0.00  0.00    +0.000 HD
BRANCH  17  20
ATOM     20  C   UNL     1       1.842   8.579  19.133  0.00  0.00    +0.000 A 
ATOM     21  C   UNL     1       2.240   9.264  17.991  0.00  0.00    +0.000 A 
ATOM     22  C   UNL     1       1.892  10.606  17.877  0.00  0.00    +0.000 A 
ATOM     23  C   UNL     1       1.166  11.210  18.898  0.00  0.00    +0.000 A 
ATOM     24  C   UNL     1       0.791  10.440  19.993  0.00  0.00    +0.000 A 
ATOM     25  N   UNL     1       1.099   9.128  20.136  0.00  0.00    +0.000 NA
ENDBRANCH  17  20
ENDBRANCH   1  18
TORSDOF 3
ENDMDL
MODEL 5
REMARK VINA RESULT:      -8.2      3.516      5.771
REMARK  Name = 
REMARK  3 active torsions:
REMARK  status: ('A' for Active; 'I' for Inactive)
REMARK    1  A    between atoms: C_2  and  C_19
REMARK    2  A    between atoms: N_3  and  C_4
REMARK    3  A    between atoms: C_5  and  C_6
REMARK                            x       y       z     vdW  Elec       q    Type
REMARK                         _______ _______ _______ _____ _____    ______ ____
ROOT
ATOM      1  C   UNL     1       3.302   5.265  19.109  0.00  0.00    +0.000 A 
ATOM      2  C   UNL     1       4.526   4.949  18.543  0.00  0.00    +0.000 A 
ATOM      3  N   UNL     1       4.563   3.628  18.157  0.00  0.00    +0.000 NA
ATOM      4  C   UNL     1       3.404   3.122  18.513  0.00  0.00    +0.000 A 
ATOM      5  C   UNL     1       2.888   1.799  18.385  0.00  0.00    +0.000 A 
ATOM      6  C   UNL     1       1.626   1.532  18.771  0.00  0.00    +0.000 A 
ATOM      7  C   UNL     1       0.767   2.570  19.316  0.00  0.00    +0.000 A 
ATOM      8  C   UNL     1       1.255   3.813  19.466  0.00  0.00    +0.000 A 
ATOM      9  N   UNL     1       2.575   4.081  19.088  0.00  0.00    +0.000 N 
ENDROOT
BRANCH   2  10
ATOM     10  C   UNL     1       5.703   5.798  18.433  0.00  0.00    +0.000 A 
ATOM     11  C   UNL     1       6.851   5.585  19.210  0.00  0.00    +0.000 A 
ATOM     12  C   UNL     1       7.990   6.374  19.032  0.00  0.00    +0.000 A 
ATOM     13  C   UNL     1       7.999   7.372  18.061  0.00  0.00    +0.000 A 
ATOM     14  C   UNL     1       6.872   7.583  17.268  0.00  0.00    +0.000 A 
ATOM     15  C   UNL     1       5.731   6.800  17.454  0.00  0.00    +0.000 A 
ENDBRANCH   2  10
BRANCH   1  18
ATOM     16  O   UNL     1       2.020   7.145  17.545  0.00  0.00    +0.000 OA
ATOM     17  C   UNL     1       2.216   7.428  18.717  0.00  0.00    +0.000 C 
ATOM     18  N   UNL     1       2.903   6.511  19.582  0.00  0.00    +0.000 N 
ATOM     19  H   UNL     1       2.855   6.686  20.584  0.00  0.00    +0.000 HD
BRANCH  17  20
ATOM     20  C   UNL     1       1.713   8.673  19.364  0.00  0.00    +0.000 A 
ATOM     21  C   UNL     1       1.559   9.827  18.604  0.00  0.00    +0.000 A 
ATOM     22  C   UNL     1       1.135  10.984  19.248  0.00  0.00    +0.000 A 
ATOM     23  C   UNL     1       0.884  10.948  20.616  0.00  0.00    +0.000 A 
ATOM     24  C   UNL     1       1.044   9.743  21.290  0.00  0.00    +0.000 A 
ATOM     25  N   UNL     1       1.442   8.591  20.698  0.00  0.00    +0.000 NA
ENDBRANCH  17  20
ENDBRANCH   1  18
TORSDOF 3
ENDMDL
MODEL 6
REMARK VINA RESULT:      -8.1      3.458      5.658
REMARK  Name = 
REMARK  3 active torsions:
REMARK  status: ('A' for Active; 'I' for Inactive)
REMARK    1  A    between atoms: C_2  and  C_19
REMARK    2  A    between atoms: N_3  and  C_4
REMARK    3  A    between atoms: C_5  and  C_6
REMARK                            x       y       z     vdW  Elec       q    Type
REMARK                         _______ _______ _______ _____ _____    ______ ____
ROOT
ATOM      1  C   UNL     1       3.332   5.248  18.373  0.00  0.00    +0.000 A 
ATOM      2  C   UNL     1       4.671   4.897  18.312  0.00  0.00    +0.000 A 
ATOM      3  N   UNL     1       4.824   3.530  18.387  0.00  0.00    +0.000 NA
ATOM      4  C   UNL     1       3.612   3.045  18.532  0.00  0.00    +0.000 A 
ATOM      5  C   UNL     1       3.161   1.700  18.682  0.00  0.00    +0.000 A 
ATOM      6  C   UNL     1       1.841   1.442  18.751  0.00  0.00    +0.000 A 
ATOM      7  C   UNL     1       0.856   2.508  18.671  0.00  0.00    +0.000 A 
ATOM      8  C   UNL     1       1.275   3.780  18.560  0.00  0.00    +0.000 A 
ATOM      9  N   UNL     1       2.647   4.048  18.514  0.00  0.00    +0.000 N 
ENDROOT
BRANCH   2  10
ATOM     10  C   UNL     1       5.826   5.782  18.286  0.00  0.00    +0.000 A 
ATOM     11  C   UNL     1       6.926   5.598  19.137  0.00  0.00    +0.000 A 
ATOM     12  C   UNL     1       8.048   6.423  19.040  0.00  0.00    +0.000 A 
ATOM     13  C   UNL     1       8.090   7.430  18.079  0.00  0.00    +0.000 A 
ATOM     14  C   UNL     1       7.013   7.613  17.215  0.00  0.00    +0.000 A 
ATOM     15  C   UNL     1       5.887   6.794  17.318  0.00  0.00    +0.000 A 
ENDBRANCH   2  10
BRANCH   1  18
ATOM     16  O   UNL     1       2.076   6.505  20.486  0.00  0.00    +0.000 OA
ATOM     17  C   UNL     1       2.192   7.135  19.446  0.00  0.00    +0.000 C 
ATOM     18  N   UNL     1       2.808   6.534  18.296  0.00  0.00    +0.000 N 
ATOM     19  H   UNL     1       3.078   7.152  17.533  0.00  0.00    +0.000 HD
BRANCH  17  20
ATOM     20  C   UNL     1       1.791   8.562  19.292  0.00  0.00    +0.000 A 
ATOM     21  C   UNL     1       1.054   9.179  20.297  0.00  0.00    +0.000 A 
ATOM     22  C   UNL     1       0.654  10.497  20.100  0.00  0.00    +0.000 A 
ATOM     23  C   UNL     1       1.000  11.144  18.918  0.00  0.00    +0.000 A 
ATOM     24  C   UNL     1       1.759  10.455  17.980  0.00  0.00    +0.000 A 
ATOM     25  N   UNL     1       2.180   9.176  18.139  0.00  0.00    +0.000 NA
ENDBRANCH  17  20
ENDBRANCH   1  18
TORSDOF 3
ENDMDL
MODEL 7
REMARK VINA RESULT:      -8.0      1.084      1.588
REMARK  Name = 
REMARK  3 active torsions:
REMARK  status: ('A' for Active; 'I' for Inactive)
REMARK    1  A    between atoms: C_2  and  C_19
REMARK    2  A    between atoms: N_3  and  C_4
REMARK    3  A    between atoms: C_5  and  C_6
REMARK                            x       y       z     vdW  Elec       q    Type
REMARK                         _______ _______ _______ _____ _____    ______ ____
ROOT
ATOM      1  C   UNL     1       5.566   4.717  15.322  0.00  0.00    +0.000 A 
ATOM      2  C   UNL     1       6.817   5.267  15.549  0.00  0.00    +0.000 A 
ATOM      3  N   UNL     1       7.623   5.127  14.441  0.00  0.00    +0.000 NA
ATOM      4  C   UNL     1       6.905   4.469  13.560  0.00  0.00    +0.000 A 
ATOM      5  C   UNL     1       7.226   4.025  12.244  0.00  0.00    +0.000 A 
ATOM      6  C   UNL     1       6.287   3.416  11.495  0.00  0.00    +0.000 A 
ATOM      7  C   UNL     1       4.940   3.203  11.998  0.00  0.00    +0.000 A 
ATOM      8  C   UNL     1       4.638   3.592  13.249  0.00  0.00    +0.000 A 
ATOM      9  N   UNL     1       5.623   4.201  14.033  0.00  0.00    +0.000 N 
ENDROOT
BRANCH   2  10
ATOM     10  C   UNL     1       7.332   5.831  16.788  0.00  0.00    +0.000 A 
ATOM     11  C   UNL     1       7.508   7.212  16.961  0.00  0.00    +0.000 A 
ATOM     12  C   UNL     1       7.938   7.727  18.186  0.00  0.00    +0.000 A 
ATOM     13  C   UNL     1       8.181   6.869  19.255  0.00  0.00    +0.000 A 
ATOM     14  C   UNL     1       7.992   5.497  19.103  0.00  0.00    +0.000 A 
ATOM     15  C   UNL     1       7.571   4.981  17.876  0.00  0.00    +0.000 A 
ENDBRANCH   2  10
BRANCH   1  18
ATOM     16  O   UNL     1       5.011   2.599  17.005  0.00  0.00    +0.000 OA
ATOM     17  C   UNL     1       4.281   3.577  17.073  0.00  0.00    +0.000 C 
ATOM     18  N   UNL     1       4.493   4.703  16.207  0.00  0.00    +0.000 N 
ATOM     19  H   UNL     1       4.010   5.569  16.438  0.00  0.00    +0.000 HD
BRANCH  17  20
ATOM     20  C   UNL     1       3.188   3.729  18.074  0.00  0.00    +0.000 A 
ATOM     21  C   UNL     1       2.034   2.964  17.951  0.00  0.00    +0.000 A 
ATOM     22  C   UNL     1       1.013   3.165  18.873  0.00  0.00    +0.000 A 
ATOM     23  C   UNL     1       1.179   4.114  19.876  0.00  0.00    +0.000 A 
ATOM     24  C   UNL     1       2.378   4.816  19.935  0.00  0.00    +0.000 A 
ATOM     25  N   UNL     1       3.401   4.641  19.065  0.00  0.00    +0.000 NA
ENDBRANCH  17  20
ENDBRANCH   1  18
TORSDOF 3
ENDMDL
MODEL 8
REMARK VINA RESULT:      -8.0      3.418      5.678
REMARK  Name = 
REMARK  3 active torsions:
REMARK  status: ('A' for Active; 'I' for Inactive)
REMARK    1  A    between atoms: C_2  and  C_19
REMARK    2  A    between atoms: N_3  and  C_4
REMARK    3  A    between atoms: C_5  and  C_6
REMARK                            x       y       z     vdW  Elec       q    Type
REMARK                         _______ _______ _______ _____ _____    ______ ____
ROOT
ATOM      1  C   UNL     1       3.905   5.449  18.138  0.00  0.00    +0.000 A 
ATOM      2  C   UNL     1       3.720   4.110  18.440  0.00  0.00    +0.000 A 
ATOM      3  N   UNL     1       4.352   3.307  17.516  0.00  0.00    +0.000 NA
ATOM      4  C   UNL     1       4.882   4.127  16.637  0.00  0.00    +0.000 A 
ATOM      5  C   UNL     1       5.634   3.862  15.455  0.00  0.00    +0.000 A 
ATOM      6  C   UNL     1       6.135   4.886  14.738  0.00  0.00    +0.000 A 
ATOM      7  C   UNL     1       5.932   6.266  15.146  0.00  0.00    +0.000 A 
ATOM      8  C   UNL     1       5.200   6.524  16.243  0.00  0.00    +0.000 A 
ATOM      9  N   UNL     1       4.658   5.460  16.972  0.00  0.00    +0.000 N 
ENDROOT
BRANCH   2  10
ATOM     10  C   UNL     1       2.898   3.538  19.496  0.00  0.00    +0.000 A 
ATOM     11  C   UNL     1       3.457   2.898  20.612  0.00  0.00    +0.000 A 
ATOM     12  C   UNL     1       2.644   2.421  21.642  0.00  0.00    +0.000 A 
ATOM     13  C   UNL     1       1.263   2.595  21.576  0.00  0.00    +0.000 A 
ATOM     14  C   UNL     1       0.695   3.245  20.482  0.00  0.00    +0.000 A 
ATOM     15  C   UNL     1       1.508   3.714  19.448  0.00  0.00    +0.000 A 
ENDBRANCH   2  10
BRANCH   1  18
ATOM     16  O   UNL     1       1.658   6.893  17.438  0.00  0.00    +0.000 OA
ATOM     17  C   UNL     1       2.243   7.223  18.459  0.00  0.00    +0.000 C 
ATOM     18  N   UNL     1       3.435   6.536  18.869  0.00  0.00    +0.000 N 
ATOM     19  H   UNL     1       3.764   6.694  19.819  0.00  0.00    +0.000 HD
BRANCH  17  20
ATOM     20  C   UNL     1       1.754   8.281  19.389  0.00  0.00    +0.000 A 
ATOM     21  C   UNL     1       1.610   7.991  20.741  0.00  0.00    +0.000 A 
ATOM     22  C   UNL     1       1.105   8.985  21.573  0.00  0.00    +0.000 A 
ATOM     23  C   UNL     1       0.765  10.220  21.030  0.00  0.00    +0.000 A 
ATOM     24  C   UNL     1       0.966  10.426  19.670  0.00  0.00    +0.000 A 
ATOM     25  N   UNL     1       1.467   9.490  18.828  0.00  0.00    +0.000 NA
ENDBRANCH  17  20
ENDBRANCH   1  18
TORSDOF 3
ENDMDL
MODEL 9
REMARK VINA RESULT:      -7.8      3.453      6.030
REMARK  Name = 
REMARK  3 active torsions:
REMARK  status: ('A' for Active; 'I' for Inactive)
REMARK    1  A    between atoms: C_2  and  C_19
REMARK    2  A    between atoms: N_3  and  C_4
REMARK    3  A    between atoms: C_5  and  C_6
REMARK                            x       y       z     vdW  Elec       q    Type
REMARK                         _______ _______ _______ _____ _____    ______ ____
ROOT
ATOM      1  C   UNL     1       4.211   5.700  18.717  0.00  0.00    +0.000 A 
ATOM      2  C   UNL     1       3.894   4.353  18.655  0.00  0.00    +0.000 A 
ATOM      3  N   UNL     1       4.804   3.669  17.879  0.00  0.00    +0.000 NA
ATOM      4  C   UNL     1       5.644   4.577  17.435  0.00  0.00    +0.000 A 
ATOM      5  C   UNL     1       6.776   4.454  16.576  0.00  0.00    +0.000 A 
ATOM      6  C   UNL     1       7.534   5.535  16.310  0.00  0.00    +0.000 A 
ATOM      7  C   UNL     1       7.228   6.834  16.887  0.00  0.00    +0.000 A 
ATOM      8  C   UNL     1       6.146   6.963  17.674  0.00  0.00    +0.000 A 
ATOM      9  N   UNL     1       5.346   5.844  17.928  0.00  0.00    +0.000 N 
ENDROOT
BRANCH   2  10
ATOM     10  C   UNL     1       2.724   3.686  19.205  0.00  0.00    +0.000 A 
ATOM     11  C   UNL     1       2.487   3.613  20.585  0.00  0.00    +0.000 A 
ATOM     12  C   UNL     1       1.320   3.026  21.079  0.00  0.00    +0.000 A 
ATOM     13  C   UNL     1       0.368   2.522  20.196  0.00  0.00    +0.000 A 
ATOM     14  C   UNL     1       0.580   2.605  18.822  0.00  0.00    +0.000 A 
ATOM     15  C   UNL     1       1.752   3.183  18.329  0.00  0.00    +0.000 A 
ENDBRANCH   2  10
BRANCH   1  18
ATOM     16  O   UNL     1       2.157   7.206  17.652  0.00  0.00    +0.000 OA
ATOM     17  C   UNL     1       2.453   7.406  18.820  0.00  0.00    +0.000 C 
ATOM     18  N   UNL     1       3.531   6.680  19.431  0.00  0.00    +0.000 N 
ATOM     19  H   UNL     1       3.604   6.717  20.446  0.00  0.00    +0.000 HD
BRANCH  17  20
ATOM     20  C   UNL     1       1.706   8.331  19.718  0.00  0.00    +0.000 A 
ATOM     21  C   UNL     1       1.469   7.964  21.038  0.00  0.00    +0.000 A 
ATOM     22  C   UNL     1       0.726   8.828  21.835  0.00  0.00    +0.000 A 
ATOM     23  C   UNL     1       0.249  10.016  21.290  0.00  0.00    +0.000 A 
ATOM     24  C   UNL     1       0.555  10.311  19.967  0.00  0.00    +0.000 A 
ATOM     25  N   UNL     1       1.286   9.503  19.161  0.00  0.00    +0.000 NA
ENDBRANCH  17  20
ENDBRANCH   1  18
TORSDOF 3
ENDMDL
