MODEL 1
REMARK VINA RESULT:      -8.1      0.000      0.000
REMARK  Name = 
REMARK  4 active torsions:
REMARK  status: ('A' for Active; 'I' for Inactive)
REMARK    1  A    between atoms: C_2  and  C_15
REMARK    2  A    between atoms: N_3  and  C_4
REMARK    3  A    between atoms: C_4  and  C_5
REMARK    4  A    between atoms: C_5  and  C_6
REMARK                            x       y       z     vdW  Elec       q    Type
REMARK                         _______ _______ _______ _____ _____    ______ ____
ROOT
ATOM      1  O   UNL     1       5.554   4.958  17.993  0.00  0.00    +0.000 OA
ATOM      2  C   UNL     1       5.519   5.689  17.005  0.00  0.00    +0.000 C 
ATOM      3  N   UNL     1       4.669   6.773  16.918  0.00  0.00    +0.000 N 
ATOM      4  H   UNL     1       4.715   7.323  16.065  0.00  0.00    +0.000 HD
ENDROOT
BRANCH   2   5
ATOM      5  C   UNL     1       6.364   5.470  15.823  0.00  0.00    +0.000 A 
ATOM      6  N   UNL     1       7.611   5.981  15.709  0.00  0.00    +0.000 NA
ATOM      7  N   UNL     1       8.021   5.548  14.499  0.00  0.00    +0.000 N 
ATOM      8  C   UNL     1       7.100   4.799  13.818  0.00  0.00    +0.000 A 
ATOM      9  C   UNL     1       7.131   4.190  12.558  0.00  0.00    +0.000 A 
ATOM     10  C   UNL     1       5.986   3.491  12.158  0.00  0.00    +0.000 A 
ATOM     11  C   UNL     1       4.867   3.401  12.984  0.00  0.00    +0.000 A 
ATOM     12  C   UNL     1       4.862   4.011  14.242  0.00  0.00    +0.000 A 
ATOM     13  C   UNL     1       6.000   4.725  14.663  0.00  0.00    +0.000 A 
ATOM     14  H   UNL     1       8.949   5.805  14.186  0.00  0.00    +0.000 HD
ENDBRANCH   2   5
BRANCH   3  15
ATOM     15  C   UNL     1       3.766   7.074  18.007  0.00  0.00    +0.000 C 
BRANCH  15  16
ATOM     16  C   UNL     1       2.410   6.391  17.883  0.00  0.00    +0.000 C 
BRANCH  16  17
ATOM     17  C   UNL     1       2.285   5.255  18.875  0.00  0.00    +0.000 A 
ATOM     18  C   UNL     1       2.013   5.544  20.229  0.00  0.00    +0.000 A 
ATOM     19  C   UNL     1       1.867   4.532  21.177  0.00  0.00    +0.000 A 
ATOM     20  C   UNL     1       1.978   3.189  20.818  0.00  0.00    +0.000 A 
ATOM     21  C   UNL     1       2.228   2.901  19.472  0.00  0.00    +0.000 A 
ATOM     22  N   UNL     1       2.369   1.684  18.844  0.00  0.00    +0.000 N 
ATOM     23  C   UNL     1       2.585   1.865  17.504  0.00  0.00    +0.000 A 
ATOM     24  C   UNL     1       2.595   3.219  17.261  0.00  0.00    +0.000 A 
ATOM     25  C   UNL     1       2.377   3.891  18.499  0.00  0.00    +0.000 A 
ATOM     26  H   UNL     1       2.310   0.789  19.310  0.00  0.00    +0.000 HD
ENDBRANCH  16  17
ENDBRANCH  15  16
ENDBRANCH   3  15
TORSDOF 4
ENDMDL
MODEL 2
REMARK VINA RESULT:      -7.9      5.636      8.654
REMARK  Name = 
REMARK  4 active torsions:
REMARK  status: ('A' for Active; 'I' for Inactive)
REMARK    1  A    between atoms: C_2  and  C_15
REMARK    2  A    between atoms: N_3  and  C_4
REMARK    3  A    between atoms: C_4  and  C_5
REMARK    4  A    between atoms: C_5  and  C_6
REMARK                            x       y       z     vdW  Elec       q    Type
REMARK                         _______ _______ _______ _____ _____    ______ ____
ROOT
ATOM      1  O   UNL     1       7.715   6.551  16.224  0.00  0.00    +0.000 OA
ATOM      2  C   UNL     1       7.202   6.672  17.336  0.00  0.00    +0.000 C 
ATOM      3  N   UNL     1       7.382   7.798  18.113  0.00  0.00    +0.000 N 
ATOM      4  H   UNL     1       6.914   7.811  19.015  0.00  0.00    +0.000 HD
ENDROOT
BRANCH   2   5
ATOM      5  C   UNL     1       6.365   5.628  17.943  0.00  0.00    +0.000 A 
ATOM      6  N   UNL     1       6.875   4.480  18.443  0.00  0.00    +0.000 NA
ATOM      7  N   UNL     1       5.787   3.820  18.892  0.00  0.00    +0.000 N 
ATOM      8  C   UNL     1       4.601   4.474  18.695  0.00  0.00    +0.000 A 
ATOM      9  C   UNL     1       3.278   4.130  18.997  0.00  0.00    +0.000 A 
ATOM     10  C   UNL     1       2.282   5.048  18.640  0.00  0.00    +0.000 A 
ATOM     11  C   UNL     1       2.600   6.254  18.018  0.00  0.00    +0.000 A 
ATOM     12  C   UNL     1       3.929   6.579  17.732  0.00  0.00    +0.000 A 
ATOM     13  C   UNL     1       4.946   5.668  18.076  0.00  0.00    +0.000 A 
ATOM     14  H   UNL     1       5.919   2.914  19.324  0.00  0.00    +0.000 HD
ENDBRANCH   2   5
BRANCH   3  15
ATOM     15  C   UNL     1       8.212   8.883  17.635  0.00  0.00    +0.000 C 
BRANCH  15  16
ATOM     16  C   UNL     1       9.005   9.575  18.736  0.00  0.00    +0.000 C 
BRANCH  16  17
ATOM     17  C   UNL     1       9.193  11.044  18.423  0.00  0.00    +0.000 A 
ATOM     18  C   UNL     1       8.161  11.752  17.773  0.00  0.00    +0.000 A 
ATOM     19  C   UNL     1       8.276  13.111  17.482  0.00  0.00    +0.000 A 
ATOM     20  C   UNL     1       9.422  13.826  17.832  0.00  0.00    +0.000 A 
ATOM     21  C   UNL     1      10.439  13.129  18.494  0.00  0.00    +0.000 A 
ATOM     22  N   UNL     1      11.653  13.577  18.962  0.00  0.00    +0.000 N 
ATOM     23  C   UNL     1      12.333  12.557  19.571  0.00  0.00    +0.000 A 
ATOM     24  C   UNL     1      11.553  11.427  19.487  0.00  0.00    +0.000 A 
ATOM     25  C   UNL     1      10.350  11.770  18.801  0.00  0.00    +0.000 A 
ATOM     26  H   UNL     1      11.984  14.528  18.874  0.00  0.00    +0.000 HD
ENDBRANCH  16  17
ENDBRANCH  15  16
ENDBRANCH   3  15
TORSDOF 4
ENDMDL
MODEL 3
REMARK VINA RESULT:      -7.7      5.857      7.448
REMARK  Name = 
REMARK  4 active torsions:
REMARK  status: ('A' for Active; 'I' for Inactive)
REMARK    1  A    between atoms: C_2  and  C_15
REMARK    2  A    between atoms: N_3  and  C_4
REMARK    3  A    between atoms: C_4  and  C_5
REMARK    4  A    between atoms: C_5  and  C_6
REMARK                            x       y       z     vdW  Elec       q    Type
REMARK                         _______ _______ _______ _____ _____    ______ ____
ROOT
ATOM      1  O   UNL     1       7.972   9.977  17.553  0.00  0.00    +0.000 OA
ATOM      2  C   UNL     1       8.638   9.605  18.518  0.00  0.00    +0.000 C 
ATOM      3  N   UNL     1       8.710   8.281  18.900  0.00  0.00    +0.000 N 
ATOM      4  H   UNL     1       9.291   8.068  19.706  0.00  0.00    +0.000 HD
ENDROOT
BRANCH   2   5
ATOM      5  C   UNL     1       9.406  10.534  19.359  0.00  0.00    +0.000 A 
ATOM      6  N   UNL     1       9.241  10.615  20.699  0.00  0.00    +0.000 NA
ATOM      7  N   UNL     1      10.120  11.570  21.068  0.00  0.00    +0.000 N 
ATOM      8  C   UNL     1      10.832  12.121  20.036  0.00  0.00    +0.000 A 
ATOM      9  C   UNL     1      11.807  13.124  19.999  0.00  0.00    +0.000 A 
ATOM     10  C   UNL     1      12.333  13.458  18.745  0.00  0.00    +0.000 A 
ATOM     11  C   UNL     1      11.906  12.811  17.587  0.00  0.00    +0.000 A 
ATOM     12  C   UNL     1      10.936  11.806  17.649  0.00  0.00    +0.000 A 
ATOM     13  C   UNL     1      10.388  11.459  18.899  0.00  0.00    +0.000 A 
ATOM     14  H   UNL     1      10.186  11.810  22.050  0.00  0.00    +0.000 HD
ENDBRANCH   2   5
BRANCH   3  15
ATOM     15  C   UNL     1       7.973   7.275  18.167  0.00  0.00    +0.000 C 
BRANCH  15  16
ATOM     16  C   UNL     1       7.759   5.985  18.948  0.00  0.00    +0.000 C 
BRANCH  16  17
ATOM     17  C   UNL     1       6.515   5.265  18.473  0.00  0.00    +0.000 A 
ATOM     18  C   UNL     1       5.433   5.091  19.361  0.00  0.00    +0.000 A 
ATOM     19  C   UNL     1       4.257   4.454  18.965  0.00  0.00    +0.000 A 
ATOM     20  C   UNL     1       4.105   3.969  17.666  0.00  0.00    +0.000 A 
ATOM     21  C   UNL     1       5.170   4.159  16.779  0.00  0.00    +0.000 A 
ATOM     22  N   UNL     1       5.287   3.801  15.455  0.00  0.00    +0.000 N 
ATOM     23  C   UNL     1       6.499   4.202  14.961  0.00  0.00    +0.000 A 
ATOM     24  C   UNL     1       7.184   4.819  15.982  0.00  0.00    +0.000 A 
ATOM     25  C   UNL     1       6.358   4.794  17.145  0.00  0.00    +0.000 A 
ATOM     26  H   UNL     1       4.571   3.321  14.927  0.00  0.00    +0.000 HD
ENDBRANCH  16  17
ENDBRANCH  15  16
ENDBRANCH   3  15
TORSDOF 4
ENDMDL
MODEL 4
REMARK VINA RESULT:      -7.6      3.101      7.060
REMARK  Name = 
REMARK  4 active torsions:
REMARK  status: ('A' for Active; 'I' for Inactive)
REMARK    1  A    between atoms: C_2  and  C_15
REMARK    2  A    between atoms: N_3  and  C_4
REMARK    3  A    between atoms: C_4  and  C_5
REMARK    4  A    between atoms: C_5  and  C_6
REMARK                            x       y       z     vdW  Elec       q    Type
REMARK                         _______ _______ _______ _____ _____    ______ ____
ROOT
ATOM      1  O   UNL     1       2.530   6.433  20.310  0.00  0.00    +0.000 OA
ATOM      2  C   UNL     1       2.209   6.744  19.164  0.00  0.00    +0.000 C 
ATOM      3  N   UNL     1       2.151   5.823  18.138  0.00  0.00    +0.000 N 
ATOM      4  H   UNL     1       1.871   6.172  17.226  0.00  0.00    +0.000 HD
ENDROOT
BRANCH   2   5
ATOM      5  C   UNL     1       1.874   8.122  18.778  0.00  0.00    +0.000 A 
ATOM      6  N   UNL     1       2.251   8.665  17.599  0.00  0.00    +0.000 NA
ATOM      7  N   UNL     1       1.747   9.915  17.650  0.00  0.00    +0.000 N 
ATOM      8  C   UNL     1       1.079  10.214  18.807  0.00  0.00    +0.000 A 
ATOM      9  C   UNL     1       0.438  11.378  19.246  0.00  0.00    +0.000 A 
ATOM     10  C   UNL     1      -0.150  11.343  20.517  0.00  0.00    +0.000 A 
ATOM     11  C   UNL     1      -0.103  10.193  21.303  0.00  0.00    +0.000 A 
ATOM     12  C   UNL     1       0.536   9.040  20.840  0.00  0.00    +0.000 A 
ATOM     13  C   UNL     1       1.141   9.055  19.569  0.00  0.00    +0.000 A 
ATOM     14  H   UNL     1       1.900  10.528  16.858  0.00  0.00    +0.000 HD
ENDBRANCH   2   5
BRANCH   3  15
ATOM     15  C   UNL     1       2.490   4.439  18.388  0.00  0.00    +0.000 C 
BRANCH  15  16
ATOM     16  C   UNL     1       3.412   3.836  17.336  0.00  0.00    +0.000 C 
BRANCH  16  17
ATOM     17  C   UNL     1       4.813   4.395  17.462  0.00  0.00    +0.000 A 
ATOM     18  C   UNL     1       5.329   4.690  18.742  0.00  0.00    +0.000 A 
ATOM     19  C   UNL     1       6.621   5.185  18.913  0.00  0.00    +0.000 A 
ATOM     20  C   UNL     1       7.458   5.403  17.818  0.00  0.00    +0.000 A 
ATOM     21  C   UNL     1       6.954   5.092  16.551  0.00  0.00    +0.000 A 
ATOM     22  N   UNL     1       7.555   5.192  15.316  0.00  0.00    +0.000 N 
ATOM     23  C   UNL     1       6.702   4.758  14.337  0.00  0.00    +0.000 A 
ATOM     24  C   UNL     1       5.527   4.381  14.945  0.00  0.00    +0.000 A 
ATOM     25  C   UNL     1       5.666   4.593  16.348  0.00  0.00    +0.000 A 
ATOM     26  H   UNL     1       8.496   5.529  15.163  0.00  0.00    +0.000 HD
ENDBRANCH  16  17
ENDBRANCH  15  16
ENDBRANCH   3  15
TORSDOF 4
ENDMDL
MODEL 5
REMARK VINA RESULT:      -7.6      1.353      2.129
REMARK  Name = 
REMARK  4 active torsions:
REMARK  status: ('A' for Active; 'I' for Inactive)
REMARK    1  A    between atoms: C_2  and  C_15
REMARK    2  A    between atoms: N_3  and  C_4
REMARK    3  A    between atoms: C_4  and  C_5
REMARK    4  A    between atoms: C_5  and  C_6
REMARK                            x       y       z     vdW  Elec       q    Type
REMARK                         _______ _______ _______ _____ _____    ______ ____
ROOT
ATOM      1  O   UNL     1       5.154   3.465  17.008  0.00  0.00    +0.000 OA
ATOM      2  C   UNL     1       5.835   4.483  16.893  0.00  0.00    +0.000 C 
ATOM      3  N   UNL     1       5.953   5.411  17.908  0.00  0.00    +0.000 N 
ATOM      4  H   UNL     1       6.542   6.218  17.724  0.00  0.00    +0.000 HD
ENDROOT
BRANCH   2   5
ATOM      5  C   UNL     1       6.572   4.813  15.665  0.00  0.00    +0.000 A 
ATOM      6  N   UNL     1       7.602   5.688  15.642  0.00  0.00    +0.000 NA
ATOM      7  N   UNL     1       7.982   5.696  14.347  0.00  0.00    +0.000 N 
ATOM      8  C   UNL     1       7.241   4.885  13.530  0.00  0.00    +0.000 A 
ATOM      9  C   UNL     1       7.304   4.627  12.156  0.00  0.00    +0.000 A 
ATOM     10  C   UNL     1       6.366   3.729  11.631  0.00  0.00    +0.000 A 
ATOM     11  C   UNL     1       5.418   3.115  12.446  0.00  0.00    +0.000 A 
ATOM     12  C   UNL     1       5.379   3.382  13.818  0.00  0.00    +0.000 A 
ATOM     13  C   UNL     1       6.307   4.287  14.367  0.00  0.00    +0.000 A 
ATOM     14  H   UNL     1       8.758   6.287  14.077  0.00  0.00    +0.000 HD
ENDBRANCH   2   5
BRANCH   3  15
ATOM     15  C   UNL     1       5.249   5.212  19.156  0.00  0.00    +0.000 C 
BRANCH  15  16
ATOM     16  C   UNL     1       3.909   5.934  19.223  0.00  0.00    +0.000 C 
BRANCH  16  17
ATOM     17  C   UNL     1       2.763   4.965  19.026  0.00  0.00    +0.000 A 
ATOM     18  C   UNL     1       2.195   4.814  17.743  0.00  0.00    +0.000 A 
ATOM     19  C   UNL     1       1.153   3.919  17.505  0.00  0.00    +0.000 A 
ATOM     20  C   UNL     1       0.634   3.130  18.533  0.00  0.00    +0.000 A 
ATOM     21  C   UNL     1       1.210   3.265  19.801  0.00  0.00    +0.000 A 
ATOM     22  N   UNL     1       0.912   2.613  20.976  0.00  0.00    +0.000 N 
ATOM     23  C   UNL     1       1.742   3.039  21.978  0.00  0.00    +0.000 A 
ATOM     24  C   UNL     1       2.584   3.989  21.448  0.00  0.00    +0.000 A 
ATOM     25  C   UNL     1       2.256   4.150  20.069  0.00  0.00    +0.000 A 
ATOM     26  H   UNL     1       0.189   1.914  21.075  0.00  0.00    +0.000 HD
ENDBRANCH  16  17
ENDBRANCH  15  16
ENDBRANCH   3  15
TORSDOF 4
ENDMDL
MODEL 6
REMARK VINA RESULT:      -7.5      0.945      1.168
REMARK  Name = 
REMARK  4 active torsions:
REMARK  status: ('A' for Active; 'I' for Inactive)
REMARK    1  A    between atoms: C_2  and  C_15
REMARK    2  A    between atoms: N_3  and  C_4
REMARK    3  A    between atoms: C_4  and  C_5
REMARK    4  A    between atoms: C_5  and  C_6
REMARK                            x       y       z     vdW  Elec       q    Type
REMARK                         _______ _______ _______ _____ _____    ______ ____
ROOT
ATOM      1  O   UNL     1       5.125   5.495  19.181  0.00  0.00    +0.000 OA
ATOM      2  C   UNL     1       5.010   6.096  18.114  0.00  0.00    +0.000 C 
ATOM      3  N   UNL     1       3.904   6.865  17.816  0.00  0.00    +0.000 N 
ATOM      4  H   UNL     1       3.899   7.330  16.913  0.00  0.00    +0.000 HD
ENDROOT
BRANCH   2   5
ATOM      5  C   UNL     1       6.027   6.039  17.055  0.00  0.00    +0.000 A 
ATOM      6  N   UNL     1       7.168   6.763  17.097  0.00  0.00    +0.000 NA
ATOM      7  N   UNL     1       7.803   6.420  15.957  0.00  0.00    +0.000 N 
ATOM      8  C   UNL     1       7.124   5.526  15.172  0.00  0.00    +0.000 A 
ATOM      9  C   UNL     1       7.426   4.944  13.936  0.00  0.00    +0.000 A 
ATOM     10  C   UNL     1       6.484   4.058  13.400  0.00  0.00    +0.000 A 
ATOM     11  C   UNL     1       5.301   3.765  14.076  0.00  0.00    +0.000 A 
ATOM     12  C   UNL     1       5.024   4.353  15.313  0.00  0.00    +0.000 A 
ATOM     13  C   UNL     1       5.954   5.253  15.868  0.00  0.00    +0.000 A 
ATOM     14  H   UNL     1       8.704   6.839  15.763  0.00  0.00    +0.000 HD
ENDBRANCH   2   5
BRANCH   3  15
ATOM     15  C   UNL     1       2.820   6.974  18.768  0.00  0.00    +0.000 C 
BRANCH  15  16
ATOM     16  C   UNL     1       1.648   6.049  18.467  0.00  0.00    +0.000 C 
BRANCH  16  17
ATOM     17  C   UNL     1       1.766   4.756  19.247  0.00  0.00    +0.000 A 
ATOM     18  C   UNL     1       1.350   4.719  20.594  0.00  0.00    +0.000 A 
ATOM     19  C   UNL     1       1.419   3.548  21.349  0.00  0.00    +0.000 A 
ATOM     20  C   UNL     1       1.898   2.362  20.793  0.00  0.00    +0.000 A 
ATOM     21  C   UNL     1       2.293   2.394  19.451  0.00  0.00    +0.000 A 
ATOM     22  N   UNL     1       2.783   1.384  18.654  0.00  0.00    +0.000 N 
ATOM     23  C   UNL     1       3.021   1.851  17.389  0.00  0.00    +0.000 A 
ATOM     24  C   UNL     1       2.691   3.187  17.368  0.00  0.00    +0.000 A 
ATOM     25  C   UNL     1       2.233   3.549  18.670  0.00  0.00    +0.000 A 
ATOM     26  H   UNL     1       2.933   0.433  18.962  0.00  0.00    +0.000 HD
ENDBRANCH  16  17
ENDBRANCH  15  16
ENDBRANCH   3  15
TORSDOF 4
ENDMDL
MODEL 7
REMARK VINA RESULT:      -7.5      3.031      6.925
REMARK  Name = 
REMARK  4 active torsions:
REMARK  status: ('A' for Active; 'I' for Inactive)
REMARK    1  A    between atoms: C_2  and  C_15
REMARK    2  A    between atoms: N_3  and  C_4
REMARK    3  A    between atoms: C_4  and  C_5
REMARK    4  A    between atoms: C_5  and  C_6
REMARK                            x       y       z     vdW  Elec       q    Type
REMARK                         _______ _______ _______ _____ _____    ______ ____
ROOT
ATOM      1  O   UNL     1       3.302   6.857  17.458  0.00  0.00    +0.000 OA
ATOM      2  C   UNL     1       2.618   6.413  18.379  0.00  0.00    +0.000 C 
ATOM      3  N   UNL     1       2.292   5.076  18.477  0.00  0.00    +0.000 N 
ATOM      4  H   UNL     1       1.728   4.800  19.276  0.00  0.00    +0.000 HD
ENDROOT
BRANCH   2   5
ATOM      5  C   UNL     1       2.074   7.263  19.447  0.00  0.00    +0.000 A 
ATOM      6  N   UNL     1       1.903   6.826  20.715  0.00  0.00    +0.000 NA
ATOM      7  N   UNL     1       1.392   7.899  21.354  0.00  0.00    +0.000 N 
ATOM      8  C   UNL     1       1.209   9.001  20.561  0.00  0.00    +0.000 A 
ATOM      9  C   UNL     1       0.703  10.277  20.832  0.00  0.00    +0.000 A 
ATOM     10  C   UNL     1       0.646  11.181  19.764  0.00  0.00    +0.000 A 
ATOM     11  C   UNL     1       1.081  10.823  18.489  0.00  0.00    +0.000 A 
ATOM     12  C   UNL     1       1.590   9.544  18.245  0.00  0.00    +0.000 A 
ATOM     13  C   UNL     1       1.651   8.617  19.302  0.00  0.00    +0.000 A 
ATOM     14  H   UNL     1       1.181   7.816  22.340  0.00  0.00    +0.000 HD
ENDBRANCH   2   5
BRANCH   3  15
ATOM     15  C   UNL     1       2.744   4.143  17.468  0.00  0.00    +0.000 C 
BRANCH  15  16
ATOM     16  C   UNL     1       3.977   3.349  17.878  0.00  0.00    +0.000 C 
BRANCH  16  17
ATOM     17  C   UNL     1       5.214   4.221  17.856  0.00  0.00    +0.000 A 
ATOM     18  C   UNL     1       5.726   4.728  19.069  0.00  0.00    +0.000 A 
ATOM     19  C   UNL     1       6.875   5.517  19.103  0.00  0.00    +0.000 A 
ATOM     20  C   UNL     1       7.567   5.831  17.933  0.00  0.00    +0.000 A 
ATOM     21  C   UNL     1       7.070   5.313  16.733  0.00  0.00    +0.000 A 
ATOM     22  N   UNL     1       7.551   5.448  15.450  0.00  0.00    +0.000 N 
ATOM     23  C   UNL     1       6.764   4.752  14.573  0.00  0.00    +0.000 A 
ATOM     24  C   UNL     1       5.750   4.167  15.295  0.00  0.00    +0.000 A 
ATOM     25  C   UNL     1       5.925   4.518  16.667  0.00  0.00    +0.000 A 
ATOM     26  H   UNL     1       8.376   5.977  15.201  0.00  0.00    +0.000 HD
ENDBRANCH  16  17
ENDBRANCH  15  16
ENDBRANCH   3  15
TORSDOF 4
ENDMDL
MODEL 8
REMARK VINA RESULT:      -7.5      4.732      7.679
REMARK  Name = 
REMARK  4 active torsions:
REMARK  status: ('A' for Active; 'I' for Inactive)
REMARK    1  A    between atoms: C_2  and  C_15
REMARK    2  A    between atoms: N_3  and  C_4
REMARK    3  A    between atoms: C_4  and  C_5
REMARK    4  A    between atoms: C_5  and  C_6
REMARK                            x       y       z     vdW  Elec       q    Type
REMARK                         _______ _______ _______ _____ _____    ______ ____
ROOT
ATOM      1  O   UNL     1       2.058  10.273  17.552  0.00  0.00    +0.000 OA
ATOM      2  C   UNL     1       1.256   9.912  18.413  0.00  0.00    +0.000 C 
ATOM      3  N   UNL     1       1.389   8.719  19.092  0.00  0.00    +0.000 N 
ATOM      4  H   UNL     1       0.681   8.508  19.790  0.00  0.00    +0.000 HD
ENDROOT
BRANCH   2   5
ATOM      5  C   UNL     1       0.078  10.708  18.785  0.00  0.00    +0.000 A 
ATOM      6  N   UNL     1       0.102  11.636  19.767  0.00  0.00    +0.000 NA
ATOM      7  N   UNL     1      -1.158  12.119  19.779  0.00  0.00    +0.000 N 
ATOM      8  C   UNL     1      -1.999  11.539  18.867  0.00  0.00    +0.000 A 
ATOM      9  C   UNL     1      -3.353  11.743  18.577  0.00  0.00    +0.000 A 
ATOM     10  C   UNL     1      -3.916  10.954  17.566  0.00  0.00    +0.000 A 
ATOM     11  C   UNL     1      -3.154  10.013  16.876  0.00  0.00    +0.000 A 
ATOM     12  C   UNL     1      -1.802   9.832  17.177  0.00  0.00    +0.000 A 
ATOM     13  C   UNL     1      -1.216  10.610  18.195  0.00  0.00    +0.000 A 
ATOM     14  H   UNL     1      -1.388  12.847  20.443  0.00  0.00    +0.000 HD
ENDBRANCH   2   5
BRANCH   3  15
ATOM     15  C   UNL     1       2.493   7.833  18.792  0.00  0.00    +0.000 C 
BRANCH  15  16
ATOM     16  C   UNL     1       2.425   6.501  19.526  0.00  0.00    +0.000 C 
BRANCH  16  17
ATOM     17  C   UNL     1       2.941   5.376  18.654  0.00  0.00    +0.000 A 
ATOM     18  C   UNL     1       4.101   5.579  17.877  0.00  0.00    +0.000 A 
ATOM     19  C   UNL     1       4.629   4.568  17.074  0.00  0.00    +0.000 A 
ATOM     20  C   UNL     1       4.029   3.310  17.015  0.00  0.00    +0.000 A 
ATOM     21  C   UNL     1       2.890   3.103  17.801  0.00  0.00    +0.000 A 
ATOM     22  N   UNL     1       2.115   1.974  17.947  0.00  0.00    +0.000 N 
ATOM     23  C   UNL     1       1.103   2.206  18.839  0.00  0.00    +0.000 A 
ATOM     24  C   UNL     1       1.216   3.508  19.269  0.00  0.00    +0.000 A 
ATOM     25  C   UNL     1       2.340   4.094  18.616  0.00  0.00    +0.000 A 
ATOM     26  H   UNL     1       2.283   1.099  17.469  0.00  0.00    +0.000 HD
ENDBRANCH  16  17
ENDBRANCH  15  16
ENDBRANCH   3  15
TORSDOF 4
ENDMDL
MODEL 9
REMARK VINA RESULT:      -7.3      4.711      7.662
REMARK  Name = 
REMARK  4 active torsions:
REMARK  status: ('A' for Active; 'I' for Inactive)
REMARK    1  A    between atoms: C_2  and  C_15
REMARK    2  A    between atoms: N_3  and  C_4
REMARK    3  A    between atoms: C_4  and  C_5
REMARK    4  A    between atoms: C_5  and  C_6
REMARK                            x       y       z     vdW  Elec       q    Type
REMARK                         _______ _______ _______ _____ _____    ______ ____
ROOT
ATOM      1  O   UNL     1       2.243  10.350  17.556  0.00  0.00    +0.000 OA
ATOM      2  C   UNL     1       1.375   9.906  18.306  0.00  0.00    +0.000 C 
ATOM      3  N   UNL     1       1.419   8.621  18.807  0.00  0.00    +0.000 N 
ATOM      4  H   UNL     1       0.660   8.344  19.424  0.00  0.00    +0.000 HD
ENDROOT
BRANCH   2   5
ATOM      5  C   UNL     1       0.208  10.694  18.726  0.00  0.00    +0.000 A 
ATOM      6  N   UNL     1       0.263  11.616  19.712  0.00  0.00    +0.000 NA
ATOM      7  N   UNL     1      -0.998  12.093  19.772  0.00  0.00    +0.000 N 
ATOM      8  C   UNL     1      -1.869  11.515  18.887  0.00  0.00    +0.000 A 
ATOM      9  C   UNL     1      -3.233  11.713  18.648  0.00  0.00    +0.000 A 
ATOM     10  C   UNL     1      -3.828  10.928  17.653  0.00  0.00    +0.000 A 
ATOM     11  C   UNL     1      -3.088   9.995  16.930  0.00  0.00    +0.000 A 
ATOM     12  C   UNL     1      -1.725   9.819  17.181  0.00  0.00    +0.000 A 
ATOM     13  C   UNL     1      -1.107  10.593  18.182  0.00  0.00    +0.000 A 
ATOM     14  H   UNL     1      -1.207  12.816  20.449  0.00  0.00    +0.000 HD
ENDBRANCH   2   5
BRANCH   3  15
ATOM     15  C   UNL     1       2.504   7.737  18.441  0.00  0.00    +0.000 C 
BRANCH  15  16
ATOM     16  C   UNL     1       2.742   6.614  19.442  0.00  0.00    +0.000 C 
BRANCH  16  17
ATOM     17  C   UNL     1       2.806   5.273  18.744  0.00  0.00    +0.000 A 
ATOM     18  C   UNL     1       1.674   4.430  18.758  0.00  0.00    +0.000 A 
ATOM     19  C   UNL     1       1.675   3.194  18.112  0.00  0.00    +0.000 A 
ATOM     20  C   UNL     1       2.800   2.747  17.418  0.00  0.00    +0.000 A 
ATOM     21  C   UNL     1       3.915   3.590  17.388  0.00  0.00    +0.000 A 
ATOM     22  N   UNL     1       5.136   3.413  16.777  0.00  0.00    +0.000 N 
ATOM     23  C   UNL     1       5.934   4.507  16.986  0.00  0.00    +0.000 A 
ATOM     24  C   UNL     1       5.224   5.401  17.753  0.00  0.00    +0.000 A 
ATOM     25  C   UNL     1       3.944   4.834  18.023  0.00  0.00    +0.000 A 
ATOM     26  H   UNL     1       5.396   2.595  16.244  0.00  0.00    +0.000 HD
ENDBRANCH  16  17
ENDBRANCH  15  16
ENDBRANCH   3  15
TORSDOF 4
ENDMDL
