MODEL 1
REMARK VINA RESULT:      -9.7      0.000      0.000
REMARK  Name = 
REMARK  5 active torsions:
REMARK  status: ('A' for Active; 'I' for Inactive)
REMARK    1  A    between atoms: C_2  and  C_13
REMARK    2  A    between atoms: N_3  and  C_4
REMARK    3  A    between atoms: C_4  and  C_5
REMARK    4  A    between atoms: N_15  and  C_16
REMARK    5  A    between atoms: C_20  and  C_21
REMARK                            x       y       z     vdW  Elec       q    Type
REMARK                         _______ _______ _______ _____ _____    ______ ____
ROOT
ATOM      1  C   UNL     1       1.337   8.125  20.942  0.00  0.00    +0.000 C 
ATOM      2  O   UNL     1       1.355   8.592  19.808  0.00  0.00    +0.000 OA
ATOM      3  N   UNL     1       1.529   6.813  21.346  0.00  0.00    +0.000 N 
ATOM      4  H   UNL     1       1.363   6.638  22.333  0.00  0.00    +0.000 HD
ENDROOT
BRANCH   3   5
ATOM      5  C   UNL     1       1.847   5.718  20.514  0.00  0.00    +0.000 A 
ATOM      6  C   UNL     1       1.050   4.578  20.426  0.00  0.00    +0.000 A 
ATOM      7  C   UNL     1       1.417   3.518  19.598  0.00  0.00    +0.000 A 
ATOM      8  C   UNL     1       2.579   3.597  18.834  0.00  0.00    +0.000 A 
ATOM      9  C   UNL     1       3.399   4.737  18.870  0.00  0.00    +0.000 A 
ATOM     10  C   UNL     1       3.008   5.792  19.729  0.00  0.00    +0.000 A 
BRANCH   9  11
ATOM     11  C   UNL     1       4.583   4.840  17.983  0.00  0.00    +0.000 A 
ATOM     12  C   UNL     1       5.901   4.892  18.505  0.00  0.00    +0.000 A 
ATOM     13  C   UNL     1       7.029   4.851  17.674  0.00  0.00    +0.000 A 
ATOM     14  C   UNL     1       6.825   4.754  16.317  0.00  0.00    +0.000 A 
ATOM     15  C   UNL     1       5.557   4.730  15.777  0.00  0.00    +0.000 A 
ATOM     16  C   UNL     1       4.433   4.797  16.583  0.00  0.00    +0.000 A 
ATOM     17  C   UNL     1       5.632   4.578  14.311  0.00  0.00    +0.000 C 
ATOM     18  C   UNL     1       7.145   4.426  14.138  0.00  0.00    +0.000 C 
ATOM     19  O   UNL     1       7.827   4.653  15.394  0.00  0.00    +0.000 OA
ENDBRANCH   9  11
ENDBRANCH   3   5
BRANCH   1  21
ATOM     20  O   UNL     1       1.919   9.447  22.856  0.00  0.00    +0.000 OA
ATOM     21  C   UNL     1       1.019   9.086  22.108  0.00  0.00    +0.000 C 
ATOM     22  N   UNL     1      -0.309   9.447  22.208  0.00  0.00    +0.000 N 
ATOM     23  H   UNL     1      -0.953   8.991  21.563  0.00  0.00    +0.000 HD
BRANCH  22  24
ATOM     24  C   UNL     1      -0.827  10.313  23.255  0.00  0.00    +0.000 C 
BRANCH  24  25
ATOM     25  C   UNL     1      -1.072  11.700  22.669  0.00  0.00    +0.000 C 
ATOM     26  C   UNL     1      -1.291  11.814  21.113  0.00  0.00    +0.000 C 
ATOM     27  C   UNL     1      -2.654  12.355  21.433  0.00  0.00    +0.000 A 
ATOM     28  C   UNL     1      -3.806  12.861  20.873  0.00  0.00    +0.000 A 
ATOM     29  C   UNL     1      -4.848  13.189  21.743  0.00  0.00    +0.000 A 
ATOM     30  C   UNL     1      -4.709  13.005  23.129  0.00  0.00    +0.000 A 
ATOM     31  C   UNL     1      -3.517  12.501  23.668  0.00  0.00    +0.000 A 
ATOM     32  C   UNL     1      -2.505  12.188  22.784  0.00  0.00    +0.000 A 
ENDBRANCH  24  25
ENDBRANCH  22  24
ENDBRANCH   1  21
TORSDOF 5
ENDMDL
MODEL 2
REMARK VINA RESULT:      -9.1      6.540     11.126
REMARK  Name = 
REMARK  5 active torsions:
REMARK  status: ('A' for Active; 'I' for Inactive)
REMARK    1  A    between atoms: C_2  and  C_13
REMARK    2  A    between atoms: N_3  and  C_4
REMARK    3  A    between atoms: C_4  and  C_5
REMARK    4  A    between atoms: N_15  and  C_16
REMARK    5  A    between atoms: C_20  and  C_21
REMARK                            x       y       z     vdW  Elec       q    Type
REMARK                         _______ _______ _______ _____ _____    ______ ____
ROOT
ATOM      1  C   UNL     1       8.163   8.800  18.164  0.00  0.00    +0.000 C 
ATOM      2  O   UNL     1       7.511   9.503  17.401  0.00  0.00    +0.000 OA
ATOM      3  N   UNL     1       9.133   9.175  19.080  0.00  0.00    +0.000 N 
ATOM      4  H   UNL     1       9.619   8.406  19.533  0.00  0.00    +0.000 HD
ENDROOT
BRANCH   3   5
ATOM      5  C   UNL     1       9.545  10.494  19.371  0.00  0.00    +0.000 A 
ATOM      6  C   UNL     1      10.230  11.291  18.456  0.00  0.00    +0.000 A 
ATOM      7  C   UNL     1      10.626  12.583  18.798  0.00  0.00    +0.000 A 
ATOM      8  C   UNL     1      10.323  13.098  20.057  0.00  0.00    +0.000 A 
ATOM      9  C   UNL     1       9.610  12.341  21.001  0.00  0.00    +0.000 A 
ATOM     10  C   UNL     1       9.232  11.029  20.630  0.00  0.00    +0.000 A 
BRANCH   9  11
ATOM     11  C   UNL     1       9.217  12.937  22.301  0.00  0.00    +0.000 A 
ATOM     12  C   UNL     1       9.323  14.332  22.541  0.00  0.00    +0.000 A 
ATOM     13  C   UNL     1       8.828  14.921  23.712  0.00  0.00    +0.000 A 
ATOM     14  C   UNL     1       8.223  14.103  24.638  0.00  0.00    +0.000 A 
ATOM     15  C   UNL     1       8.130  12.740  24.447  0.00  0.00    +0.000 A 
ATOM     16  C   UNL     1       8.638  12.140  23.307  0.00  0.00    +0.000 A 
ATOM     17  C   UNL     1       7.401  12.119  25.569  0.00  0.00    +0.000 C 
ATOM     18  C   UNL     1       7.022  13.370  26.364  0.00  0.00    +0.000 C 
ATOM     19  O   UNL     1       7.652  14.544  25.797  0.00  0.00    +0.000 OA
ENDBRANCH   9  11
ENDBRANCH   3   5
BRANCH   1  21
ATOM     20  O   UNL     1       8.169   6.588  19.090  0.00  0.00    +0.000 OA
ATOM     21  C   UNL     1       7.938   7.273  18.101  0.00  0.00    +0.000 C 
ATOM     22  N   UNL     1       7.495   6.807  16.881  0.00  0.00    +0.000 N 
ATOM     23  H   UNL     1       7.435   7.493  16.128  0.00  0.00    +0.000 HD
BRANCH  22  24
ATOM     24  C   UNL     1       7.256   5.401  16.598  0.00  0.00    +0.000 C 
BRANCH  24  25
ATOM     25  C   UNL     1       5.886   5.259  15.943  0.00  0.00    +0.000 C 
ATOM     26  C   UNL     1       5.299   3.807  15.768  0.00  0.00    +0.000 C 
ATOM     27  C   UNL     1       4.174   4.248  16.658  0.00  0.00    +0.000 A 
ATOM     28  C   UNL     1       2.986   3.845  17.227  0.00  0.00    +0.000 A 
ATOM     29  C   UNL     1       2.343   4.752  18.071  0.00  0.00    +0.000 A 
ATOM     30  C   UNL     1       2.898   6.020  18.318  0.00  0.00    +0.000 A 
ATOM     31  C   UNL     1       4.102   6.404  17.711  0.00  0.00    +0.000 A 
ATOM     32  C   UNL     1       4.713   5.487  16.880  0.00  0.00    +0.000 A 
ENDBRANCH  24  25
ENDBRANCH  22  24
ENDBRANCH   1  21
TORSDOF 5
ENDMDL
MODEL 3
REMARK VINA RESULT:      -9.1      1.217      1.945
REMARK  Name = 
REMARK  5 active torsions:
REMARK  status: ('A' for Active; 'I' for Inactive)
REMARK    1  A    between atoms: C_2  and  C_13
REMARK    2  A    between atoms: N_3  and  C_4
REMARK    3  A    between atoms: C_4  and  C_5
REMARK    4  A    between atoms: N_15  and  C_16
REMARK    5  A    between atoms: C_20  and  C_21
REMARK                            x       y       z     vdW  Elec       q    Type
REMARK                         _______ _______ _______ _____ _____    ______ ____
ROOT
ATOM      1  C   UNL     1       1.291   8.321  20.865  0.00  0.00    +0.000 C 
ATOM      2  O   UNL     1       1.177   8.770  19.730  0.00  0.00    +0.000 OA
ATOM      3  N   UNL     1       1.632   7.039  21.264  0.00  0.00    +0.000 N 
ATOM      4  H   UNL     1       1.561   6.865  22.263  0.00  0.00    +0.000 HD
ENDROOT
BRANCH   3   5
ATOM      5  C   UNL     1       1.981   5.964  20.419  0.00  0.00    +0.000 A 
ATOM      6  C   UNL     1       1.302   4.747  20.422  0.00  0.00    +0.000 A 
ATOM      7  C   UNL     1       1.696   3.712  19.576  0.00  0.00    +0.000 A 
ATOM      8  C   UNL     1       2.766   3.891  18.702  0.00  0.00    +0.000 A 
ATOM      9  C   UNL     1       3.463   5.110  18.644  0.00  0.00    +0.000 A 
ATOM     10  C   UNL     1       3.048   6.138  19.524  0.00  0.00    +0.000 A 
BRANCH   9  11
ATOM     11  C   UNL     1       4.540   5.313  17.645  0.00  0.00    +0.000 A 
ATOM     12  C   UNL     1       5.745   5.985  17.978  0.00  0.00    +0.000 A 
ATOM     13  C   UNL     1       6.821   6.062  17.083  0.00  0.00    +0.000 A 
ATOM     14  C   UNL     1       6.682   5.456  15.856  0.00  0.00    +0.000 A 
ATOM     15  C   UNL     1       5.514   4.819  15.492  0.00  0.00    +0.000 A 
ATOM     16  C   UNL     1       4.432   4.759  16.356  0.00  0.00    +0.000 A 
ATOM     17  C   UNL     1       5.656   4.226  14.149  0.00  0.00    +0.000 C 
ATOM     18  C   UNL     1       7.124   4.555  13.868  0.00  0.00    +0.000 C 
ATOM     19  O   UNL     1       7.663   5.406  14.907  0.00  0.00    +0.000 OA
ENDBRANCH   9  11
ENDBRANCH   3   5
BRANCH   1  21
ATOM     20  O   UNL     1       1.851   9.510  22.871  0.00  0.00    +0.000 OA
ATOM     21  C   UNL     1       0.980   9.268  22.045  0.00  0.00    +0.000 C 
ATOM     22  N   UNL     1      -0.309   9.759  22.063  0.00  0.00    +0.000 N 
ATOM     23  H   UNL     1      -0.944   9.393  21.353  0.00  0.00    +0.000 HD
BRANCH  22  24
ATOM     24  C   UNL     1      -0.819  10.635  23.106  0.00  0.00    +0.000 C 
BRANCH  24  25
ATOM     25  C   UNL     1      -1.728  11.680  22.467  0.00  0.00    +0.000 C 
ATOM     26  C   UNL     1      -1.571  13.178  22.932  0.00  0.00    +0.000 C 
ATOM     27  C   UNL     1      -1.200  13.489  21.512  0.00  0.00    +0.000 A 
ATOM     28  C   UNL     1      -0.863  14.511  20.652  0.00  0.00    +0.000 A 
ATOM     29  C   UNL     1      -0.558  14.163  19.335  0.00  0.00    +0.000 A 
ATOM     30  C   UNL     1      -0.598  12.820  18.921  0.00  0.00    +0.000 A 
ATOM     31  C   UNL     1      -0.958  11.806  19.819  0.00  0.00    +0.000 A 
ATOM     32  C   UNL     1      -1.257  12.181  21.112  0.00  0.00    +0.000 A 
ENDBRANCH  24  25
ENDBRANCH  22  24
ENDBRANCH   1  21
TORSDOF 5
ENDMDL
MODEL 4
REMARK VINA RESULT:      -9.0      2.969     10.810
REMARK  Name = 
REMARK  5 active torsions:
REMARK  status: ('A' for Active; 'I' for Inactive)
REMARK    1  A    between atoms: C_2  and  C_13
REMARK    2  A    between atoms: N_3  and  C_4
REMARK    3  A    between atoms: C_4  and  C_5
REMARK    4  A    between atoms: N_15  and  C_16
REMARK    5  A    between atoms: C_20  and  C_21
REMARK                            x       y       z     vdW  Elec       q    Type
REMARK                         _______ _______ _______ _____ _____    ______ ____
ROOT
ATOM      1  C   UNL     1       1.878   8.575  18.613  0.00  0.00    +0.000 C 
ATOM      2  O   UNL     1       2.078   9.130  17.538  0.00  0.00    +0.000 OA
ATOM      3  N   UNL     1       1.217   9.058  19.731  0.00  0.00    +0.000 N 
ATOM      4  H   UNL     1       1.264   8.459  20.552  0.00  0.00    +0.000 HD
ENDROOT
BRANCH   3   5
ATOM      5  C   UNL     1       0.571  10.307  19.849  0.00  0.00    +0.000 A 
ATOM      6  C   UNL     1       1.177  11.420  20.428  0.00  0.00    +0.000 A 
ATOM      7  C   UNL     1       0.489  12.629  20.531  0.00  0.00    +0.000 A 
ATOM      8  C   UNL     1      -0.809  12.740  20.038  0.00  0.00    +0.000 A 
ATOM      9  C   UNL     1      -1.450  11.652  19.421  0.00  0.00    +0.000 A 
ATOM     10  C   UNL     1      -0.732  10.436  19.342  0.00  0.00    +0.000 A 
BRANCH   9  11
ATOM     11  C   UNL     1      -2.796  11.815  18.822  0.00  0.00    +0.000 A 
ATOM     12  C   UNL     1      -3.088  11.348  17.513  0.00  0.00    +0.000 A 
ATOM     13  C   UNL     1      -4.388  11.374  16.991  0.00  0.00    +0.000 A 
ATOM     14  C   UNL     1      -5.393  11.865  17.792  0.00  0.00    +0.000 A 
ATOM     15  C   UNL     1      -5.138  12.351  19.057  0.00  0.00    +0.000 A 
ATOM     16  C   UNL     1      -3.853  12.358  19.576  0.00  0.00    +0.000 A 
ATOM     17  C   UNL     1      -6.395  12.771  19.703  0.00  0.00    +0.000 C 
ATOM     18  C   UNL     1      -7.399  12.350  18.628  0.00  0.00    +0.000 C 
ATOM     19  O   UNL     1      -6.711  11.903  17.436  0.00  0.00    +0.000 OA
ENDBRANCH   9  11
ENDBRANCH   3   5
BRANCH   1  21
ATOM     20  O   UNL     1       2.601   6.715  19.942  0.00  0.00    +0.000 OA
ATOM     21  C   UNL     1       2.461   7.159  18.809  0.00  0.00    +0.000 C 
ATOM     22  N   UNL     1       2.796   6.508  17.640  0.00  0.00    +0.000 N 
ATOM     23  H   UNL     1       2.702   7.047  16.778  0.00  0.00    +0.000 HD
BRANCH  22  24
ATOM     24  C   UNL     1       3.393   5.183  17.602  0.00  0.00    +0.000 C 
BRANCH  24  25
ATOM     25  C   UNL     1       4.737   5.271  16.886  0.00  0.00    +0.000 C 
ATOM     26  C   UNL     1       5.104   6.625  16.169  0.00  0.00    +0.000 C 
ATOM     27  C   UNL     1       6.268   6.708  17.113  0.00  0.00    +0.000 A 
ATOM     28  C   UNL     1       7.374   7.459  17.447  0.00  0.00    +0.000 A 
ATOM     29  C   UNL     1       8.132   7.028  18.538  0.00  0.00    +0.000 A 
ATOM     30  C   UNL     1       7.767   5.873  19.252  0.00  0.00    +0.000 A 
ATOM     31  C   UNL     1       6.644   5.125  18.877  0.00  0.00    +0.000 A 
ATOM     32  C   UNL     1       5.916   5.574  17.794  0.00  0.00    +0.000 A 
ENDBRANCH  24  25
ENDBRANCH  22  24
ENDBRANCH   1  21
TORSDOF 5
ENDMDL
MODEL 5
REMARK VINA RESULT:      -8.9      6.480      8.765
REMARK  Name = 
REMARK  5 active torsions:
REMARK  status: ('A' for Active; 'I' for Inactive)
REMARK    1  A    between atoms: C_2  and  C_13
REMARK    2  A    between atoms: N_3  and  C_4
REMARK    3  A    between atoms: C_4  and  C_5
REMARK    4  A    between atoms: N_15  and  C_16
REMARK    5  A    between atoms: C_20  and  C_21
REMARK                            x       y       z     vdW  Elec       q    Type
REMARK                         _______ _______ _______ _____ _____    ______ ____
ROOT
ATOM      1  C   UNL     1       7.976   7.930  18.156  0.00  0.00    +0.000 C 
ATOM      2  O   UNL     1       8.428   7.108  18.945  0.00  0.00    +0.000 OA
ATOM      3  N   UNL     1       7.092   7.734  17.107  0.00  0.00    +0.000 N 
ATOM      4  H   UNL     1       6.938   8.546  16.516  0.00  0.00    +0.000 HD
ENDROOT
BRANCH   3   5
ATOM      5  C   UNL     1       6.467   6.518  16.754  0.00  0.00    +0.000 A 
ATOM      6  C   UNL     1       6.932   5.700  15.726  0.00  0.00    +0.000 A 
ATOM      7  C   UNL     1       6.270   4.514  15.408  0.00  0.00    +0.000 A 
ATOM      8  C   UNL     1       5.144   4.126  16.131  0.00  0.00    +0.000 A 
ATOM      9  C   UNL     1       4.656   4.906  17.193  0.00  0.00    +0.000 A 
ATOM     10  C   UNL     1       5.341   6.109  17.484  0.00  0.00    +0.000 A 
BRANCH   9  11
ATOM     11  C   UNL     1       3.511   4.432  18.008  0.00  0.00    +0.000 A 
ATOM     12  C   UNL     1       2.352   3.876  17.409  0.00  0.00    +0.000 A 
ATOM     13  C   UNL     1       1.326   3.302  18.172  0.00  0.00    +0.000 A 
ATOM     14  C   UNL     1       1.475   3.286  19.540  0.00  0.00    +0.000 A 
ATOM     15  C   UNL     1       2.576   3.843  20.154  0.00  0.00    +0.000 A 
ATOM     16  C   UNL     1       3.585   4.438  19.414  0.00  0.00    +0.000 A 
ATOM     17  C   UNL     1       2.497   3.648  21.614  0.00  0.00    +0.000 C 
ATOM     18  C   UNL     1       1.220   2.808  21.700  0.00  0.00    +0.000 C 
ATOM     19  O   UNL     1       0.583   2.716  20.404  0.00  0.00    +0.000 OA
ENDBRANCH   9  11
ENDBRANCH   3   5
BRANCH   1  21
ATOM     20  O   UNL     1       8.018  10.243  17.524  0.00  0.00    +0.000 OA
ATOM     21  C   UNL     1       8.465   9.390  18.281  0.00  0.00    +0.000 C 
ATOM     22  N   UNL     1       9.407   9.597  19.266  0.00  0.00    +0.000 N 
ATOM     23  H   UNL     1       9.744   8.767  19.755  0.00  0.00    +0.000 HD
BRANCH  22  24
ATOM     24  C   UNL     1      10.024  10.888  19.527  0.00  0.00    +0.000 C 
BRANCH  24  25
ATOM     25  C   UNL     1       9.088  11.710  20.408  0.00  0.00    +0.000 C 
ATOM     26  C   UNL     1       9.695  12.393  21.692  0.00  0.00    +0.000 C 
ATOM     27  C   UNL     1       9.305  13.703  21.073  0.00  0.00    +0.000 A 
ATOM     28  C   UNL     1       9.290  15.065  21.276  0.00  0.00    +0.000 A 
ATOM     29  C   UNL     1       8.799  15.860  20.239  0.00  0.00    +0.000 A 
ATOM     30  C   UNL     1       8.341  15.278  19.045  0.00  0.00    +0.000 A 
ATOM     31  C   UNL     1       8.356  13.886  18.876  0.00  0.00    +0.000 A 
ATOM     32  C   UNL     1       8.845  13.127  19.918  0.00  0.00    +0.000 A 
ENDBRANCH  24  25
ENDBRANCH  22  24
ENDBRANCH   1  21
TORSDOF 5
ENDMDL
MODEL 6
REMARK VINA RESULT:      -8.9      0.815      1.068
REMARK  Name = 
REMARK  5 active torsions:
REMARK  status: ('A' for Active; 'I' for Inactive)
REMARK    1  A    between atoms: C_2  and  C_13
REMARK    2  A    between atoms: N_3  and  C_4
REMARK    3  A    between atoms: C_4  and  C_5
REMARK    4  A    between atoms: N_15  and  C_16
REMARK    5  A    between atoms: C_20  and  C_21
REMARK                            x       y       z     vdW  Elec       q    Type
REMARK                         _______ _______ _______ _____ _____    ______ ____
ROOT
ATOM      1  C   UNL     1       1.343   8.555  20.525  0.00  0.00    +0.000 C 
ATOM      2  O   UNL     1       1.411   8.833  19.333  0.00  0.00    +0.000 OA
ATOM      3  N   UNL     1       1.546   7.333  21.147  0.00  0.00    +0.000 N 
ATOM      4  H   UNL     1       1.331   7.314  22.140  0.00  0.00    +0.000 HD
ENDROOT
BRANCH   3   5
ATOM      5  C   UNL     1       1.940   6.130  20.521  0.00  0.00    +0.000 A 
ATOM      6  C   UNL     1       1.239   4.935  20.673  0.00  0.00    +0.000 A 
ATOM      7  C   UNL     1       1.677   3.771  20.043  0.00  0.00    +0.000 A 
ATOM      8  C   UNL     1       2.815   3.796  19.238  0.00  0.00    +0.000 A 
ATOM      9  C   UNL     1       3.537   4.984  19.035  0.00  0.00    +0.000 A 
ATOM     10  C   UNL     1       3.075   6.146  19.697  0.00  0.00    +0.000 A 
BRANCH   9  11
ATOM     11  C   UNL     1       4.691   5.012  18.105  0.00  0.00    +0.000 A 
ATOM     12  C   UNL     1       6.027   4.911  18.574  0.00  0.00    +0.000 A 
ATOM     13  C   UNL     1       7.113   4.798  17.696  0.00  0.00    +0.000 A 
ATOM     14  C   UNL     1       6.851   4.783  16.346  0.00  0.00    +0.000 A 
ATOM     15  C   UNL     1       5.567   4.908  15.858  0.00  0.00    +0.000 A 
ATOM     16  C   UNL     1       4.486   5.047  16.713  0.00  0.00    +0.000 A 
ATOM     17  C   UNL     1       5.573   4.816  14.386  0.00  0.00    +0.000 C 
ATOM     18  C   UNL     1       7.056   4.525  14.144  0.00  0.00    +0.000 C 
ATOM     19  O   UNL     1       7.803   4.628  15.379  0.00  0.00    +0.000 OA
ENDBRANCH   9  11
ENDBRANCH   3   5
BRANCH   1  21
ATOM     20  O   UNL     1       1.574   9.844  22.534  0.00  0.00    +0.000 OA
ATOM     21  C   UNL     1       0.935   9.679  21.502  0.00  0.00    +0.000 C 
ATOM     22  N   UNL     1      -0.167  10.410  21.109  0.00  0.00    +0.000 N 
ATOM     23  H   UNL     1      -0.645  10.092  20.266  0.00  0.00    +0.000 HD
BRANCH  22  24
ATOM     24  C   UNL     1      -0.738  11.488  21.900  0.00  0.00    +0.000 C 
BRANCH  24  25
ATOM     25  C   UNL     1      -1.388  12.497  20.958  0.00  0.00    +0.000 C 
ATOM     26  C   UNL     1      -1.702  12.034  19.485  0.00  0.00    +0.000 C 
ATOM     27  C   UNL     1      -3.145  12.291  19.806  0.00  0.00    +0.000 A 
ATOM     28  C   UNL     1      -4.418  12.280  19.278  0.00  0.00    +0.000 A 
ATOM     29  C   UNL     1      -5.469  12.605  20.138  0.00  0.00    +0.000 A 
ATOM     30  C   UNL     1      -5.219  12.929  21.483  0.00  0.00    +0.000 A 
ATOM     31  C   UNL     1      -3.910  12.944  21.985  0.00  0.00    +0.000 A 
ATOM     32  C   UNL     1      -2.894  12.621  21.110  0.00  0.00    +0.000 A 
ENDBRANCH  24  25
ENDBRANCH  22  24
ENDBRANCH   1  21
TORSDOF 5
ENDMDL
MODEL 7
REMARK VINA RESULT:      -8.9      6.754     11.117
REMARK  Name = 
REMARK  5 active torsions:
REMARK  status: ('A' for Active; 'I' for Inactive)
REMARK    1  A    between atoms: C_2  and  C_13
REMARK    2  A    between atoms: N_3  and  C_4
REMARK    3  A    between atoms: C_4  and  C_5
REMARK    4  A    between atoms: N_15  and  C_16
REMARK    5  A    between atoms: C_20  and  C_21
REMARK                            x       y       z     vdW  Elec       q    Type
REMARK                         _______ _______ _______ _____ _____    ______ ____
ROOT
ATOM      1  C   UNL     1       8.105   8.598  18.055  0.00  0.00    +0.000 C 
ATOM      2  O   UNL     1       7.535   9.284  17.215  0.00  0.00    +0.000 OA
ATOM      3  N   UNL     1       9.010   8.989  19.030  0.00  0.00    +0.000 N 
ATOM      4  H   UNL     1       9.438   8.229  19.551  0.00  0.00    +0.000 HD
ENDROOT
BRANCH   3   5
ATOM      5  C   UNL     1       9.433  10.309  19.299  0.00  0.00    +0.000 A 
ATOM      6  C   UNL     1      10.165  11.068  18.388  0.00  0.00    +0.000 A 
ATOM      7  C   UNL     1      10.570  12.364  18.708  0.00  0.00    +0.000 A 
ATOM      8  C   UNL     1      10.229  12.919  19.940  0.00  0.00    +0.000 A 
ATOM      9  C   UNL     1       9.470  12.200  20.878  0.00  0.00    +0.000 A 
ATOM     10  C   UNL     1       9.084  10.884  20.530  0.00  0.00    +0.000 A 
BRANCH   9  11
ATOM     11  C   UNL     1       9.040  12.839  22.145  0.00  0.00    +0.000 A 
ATOM     12  C   UNL     1       8.450  12.088  23.194  0.00  0.00    +0.000 A 
ATOM     13  C   UNL     1       8.168  12.655  24.444  0.00  0.00    +0.000 A 
ATOM     14  C   UNL     1       8.486  13.980  24.635  0.00  0.00    +0.000 A 
ATOM     15  C   UNL     1       9.034  14.745  23.628  0.00  0.00    +0.000 A 
ATOM     16  C   UNL     1       9.293  14.204  22.379  0.00  0.00    +0.000 A 
ATOM     17  C   UNL     1       9.311  16.108  24.118  0.00  0.00    +0.000 C 
ATOM     18  C   UNL     1       8.917  15.946  25.588  0.00  0.00    +0.000 C 
ATOM     19  O   UNL     1       8.315  14.649  25.814  0.00  0.00    +0.000 OA
ENDBRANCH   9  11
ENDBRANCH   3   5
BRANCH   1  21
ATOM     20  O   UNL     1       8.048   6.416  19.049  0.00  0.00    +0.000 OA
ATOM     21  C   UNL     1       7.845   7.076  18.037  0.00  0.00    +0.000 C 
ATOM     22  N   UNL     1       7.403   6.583  16.826  0.00  0.00    +0.000 N 
ATOM     23  H   UNL     1       7.368   7.247  16.052  0.00  0.00    +0.000 HD
BRANCH  22  24
ATOM     24  C   UNL     1       7.134   5.175  16.584  0.00  0.00    +0.000 C 
BRANCH  24  25
ATOM     25  C   UNL     1       5.726   5.036  16.013  0.00  0.00    +0.000 C 
ATOM     26  C   UNL     1       4.973   3.669  16.231  0.00  0.00    +0.000 C 
ATOM     27  C   UNL     1       3.950   4.454  16.997  0.00  0.00    +0.000 A 
ATOM     28  C   UNL     1       2.753   4.355  17.672  0.00  0.00    +0.000 A 
ATOM     29  C   UNL     1       2.257   5.518  18.265  0.00  0.00    +0.000 A 
ATOM     30  C   UNL     1       2.961   6.731  18.165  0.00  0.00    +0.000 A 
ATOM     31  C   UNL     1       4.169   6.800  17.457  0.00  0.00    +0.000 A 
ATOM     32  C   UNL     1       4.633   5.635  16.881  0.00  0.00    +0.000 A 
ENDBRANCH  24  25
ENDBRANCH  22  24
ENDBRANCH   1  21
TORSDOF 5
ENDMDL
MODEL 8
REMARK VINA RESULT:      -8.8      6.433      8.855
REMARK  Name = 
REMARK  5 active torsions:
REMARK  status: ('A' for Active; 'I' for Inactive)
REMARK    1  A    between atoms: C_2  and  C_13
REMARK    2  A    between atoms: N_3  and  C_4
REMARK    3  A    between atoms: C_4  and  C_5
REMARK    4  A    between atoms: N_15  and  C_16
REMARK    5  A    between atoms: C_20  and  C_21
REMARK                            x       y       z     vdW  Elec       q    Type
REMARK                         _______ _______ _______ _____ _____    ______ ____
ROOT
ATOM      1  C   UNL     1       7.943   8.107  17.963  0.00  0.00    +0.000 C 
ATOM      2  O   UNL     1       8.483   7.423  18.825  0.00  0.00    +0.000 OA
ATOM      3  N   UNL     1       7.097   7.710  16.940  0.00  0.00    +0.000 N 
ATOM      4  H   UNL     1       6.852   8.438  16.275  0.00  0.00    +0.000 HD
ENDROOT
BRANCH   3   5
ATOM      5  C   UNL     1       6.624   6.401  16.705  0.00  0.00    +0.000 A 
ATOM      6  C   UNL     1       7.260   5.510  15.843  0.00  0.00    +0.000 A 
ATOM      7  C   UNL     1       6.743   4.231  15.636  0.00  0.00    +0.000 A 
ATOM      8  C   UNL     1       5.592   3.825  16.307  0.00  0.00    +0.000 A 
ATOM      9  C   UNL     1       4.932   4.679  17.206  0.00  0.00    +0.000 A 
ATOM     10  C   UNL     1       5.473   5.975  17.386  0.00  0.00    +0.000 A 
BRANCH   9  11
ATOM     11  C   UNL     1       3.762   4.199  17.978  0.00  0.00    +0.000 A 
ATOM     12  C   UNL     1       2.741   3.420  17.373  0.00  0.00    +0.000 A 
ATOM     13  C   UNL     1       1.704   2.848  18.122  0.00  0.00    +0.000 A 
ATOM     14  C   UNL     1       1.701   3.057  19.482  0.00  0.00    +0.000 A 
ATOM     15  C   UNL     1       2.662   3.832  20.096  0.00  0.00    +0.000 A 
ATOM     16  C   UNL     1       3.677   4.427  19.365  0.00  0.00    +0.000 A 
ATOM     17  C   UNL     1       2.442   3.852  21.554  0.00  0.00    +0.000 C 
ATOM     18  C   UNL     1       1.261   2.886  21.658  0.00  0.00    +0.000 C 
ATOM     19  O   UNL     1       0.785   2.521  20.341  0.00  0.00    +0.000 OA
ENDBRANCH   9  11
ENDBRANCH   3   5
BRANCH   1  21
ATOM     20  O   UNL     1       7.450  10.397  17.447  0.00  0.00    +0.000 OA
ATOM     21  C   UNL     1       8.255   9.620  17.948  0.00  0.00    +0.000 C 
ATOM     22  N   UNL     1       9.466   9.963  18.510  0.00  0.00    +0.000 N 
ATOM     23  H   UNL     1      10.065   9.191  18.805  0.00  0.00    +0.000 HD
BRANCH  22  24
ATOM     24  C   UNL     1       9.967  11.327  18.566  0.00  0.00    +0.000 C 
BRANCH  24  25
ATOM     25  C   UNL     1      10.569  11.573  19.945  0.00  0.00    +0.000 C 
ATOM     26  C   UNL     1      11.119  13.015  20.264  0.00  0.00    +0.000 C 
ATOM     27  C   UNL     1      10.088  13.072  21.353  0.00  0.00    +0.000 A 
ATOM     28  C   UNL     1       9.600  13.852  22.378  0.00  0.00    +0.000 A 
ATOM     29  C   UNL     1       8.503  13.359  23.089  0.00  0.00    +0.000 A 
ATOM     30  C   UNL     1       7.936  12.116  22.759  0.00  0.00    +0.000 A 
ATOM     31  C   UNL     1       8.467  11.341  21.719  0.00  0.00    +0.000 A 
ATOM     32  C   UNL     1       9.550  11.853  21.036  0.00  0.00    +0.000 A 
ENDBRANCH  24  25
ENDBRANCH  22  24
ENDBRANCH   1  21
TORSDOF 5
ENDMDL
MODEL 9
REMARK VINA RESULT:      -8.8      1.977      2.610
REMARK  Name = 
REMARK  5 active torsions:
REMARK  status: ('A' for Active; 'I' for Inactive)
REMARK    1  A    between atoms: C_2  and  C_13
REMARK    2  A    between atoms: N_3  and  C_4
REMARK    3  A    between atoms: C_4  and  C_5
REMARK    4  A    between atoms: N_15  and  C_16
REMARK    5  A    between atoms: C_20  and  C_21
REMARK                            x       y       z     vdW  Elec       q    Type
REMARK                         _______ _______ _______ _____ _____    ______ ____
ROOT
ATOM      1  C   UNL     1       1.364   9.026  21.711  0.00  0.00    +0.000 C 
ATOM      2  O   UNL     1       2.049   8.832  22.709  0.00  0.00    +0.000 OA
ATOM      3  N   UNL     1       1.210   8.223  20.592  0.00  0.00    +0.000 N 
ATOM      4  H   UNL     1       0.671   8.636  19.836  0.00  0.00    +0.000 HD
ENDROOT
BRANCH   3   5
ATOM      5  C   UNL     1       1.787   6.950  20.389  0.00  0.00    +0.000 A 
ATOM      6  C   UNL     1       1.266   5.786  20.951  0.00  0.00    +0.000 A 
ATOM      7  C   UNL     1       1.882   4.555  20.728  0.00  0.00    +0.000 A 
ATOM      8  C   UNL     1       3.017   4.474  19.924  0.00  0.00    +0.000 A 
ATOM      9  C   UNL     1       3.560   5.618  19.315  0.00  0.00    +0.000 A 
ATOM     10  C   UNL     1       2.922   6.855  19.569  0.00  0.00    +0.000 A 
BRANCH   9  11
ATOM     11  C   UNL     1       4.714   5.500  18.391  0.00  0.00    +0.000 A 
ATOM     12  C   UNL     1       6.033   5.292  18.871  0.00  0.00    +0.000 A 
ATOM     13  C   UNL     1       7.106   5.044  18.005  0.00  0.00    +0.000 A 
ATOM     14  C   UNL     1       6.845   5.001  16.654  0.00  0.00    +0.000 A 
ATOM     15  C   UNL     1       5.580   5.227  16.155  0.00  0.00    +0.000 A 
ATOM     16  C   UNL     1       4.515   5.501  16.997  0.00  0.00    +0.000 A 
ATOM     17  C   UNL     1       5.580   5.079  14.687  0.00  0.00    +0.000 C 
ATOM     18  C   UNL     1       7.029   4.640  14.465  0.00  0.00    +0.000 C 
ATOM     19  O   UNL     1       7.780   4.720  15.699  0.00  0.00    +0.000 OA
ENDBRANCH   9  11
ENDBRANCH   3   5
BRANCH   1  21
ATOM     20  O   UNL     1       0.309  10.963  22.652  0.00  0.00    +0.000 OA
ATOM     21  C   UNL     1       0.582  10.355  21.624  0.00  0.00    +0.000 C 
ATOM     22  N   UNL     1       0.238  10.736  20.344  0.00  0.00    +0.000 N 
ATOM     23  H   UNL     1       0.460  10.076  19.599  0.00  0.00    +0.000 HD
BRANCH  22  24
ATOM     24  C   UNL     1      -0.531  11.934  20.044  0.00  0.00    +0.000 C 
BRANCH  24  25
ATOM     25  C   UNL     1      -1.116  11.802  18.642  0.00  0.00    +0.000 C 
ATOM     26  C   UNL     1      -1.047  10.391  17.943  0.00  0.00    +0.000 C 
ATOM     27  C   UNL     1      -2.547  10.423  17.927  0.00  0.00    +0.000 A 
ATOM     28  C   UNL     1      -3.667   9.729  17.524  0.00  0.00    +0.000 A 
ATOM     29  C   UNL     1      -4.909  10.279  17.848  0.00  0.00    +0.000 A 
ATOM     30  C   UNL     1      -4.994  11.491  18.555  0.00  0.00    +0.000 A 
ATOM     31  C   UNL     1      -3.834  12.178  18.939  0.00  0.00    +0.000 A 
ATOM     32  C   UNL     1      -2.622  11.612  18.603  0.00  0.00    +0.000 A 
ENDBRANCH  24  25
ENDBRANCH  22  24
ENDBRANCH   1  21
TORSDOF 5
ENDMDL
