MODEL 1
REMARK VINA RESULT:      -8.6      0.000      0.000
REMARK  Name = 
REMARK  8 active torsions:
REMARK  status: ('A' for Active; 'I' for Inactive)
REMARK    1  A    between atoms: C_1  and  C_2
REMARK    2  A    between atoms: C_2  and  C_3
REMARK    3  A    between atoms: C_6  and  C_7
REMARK    4  A    between atoms: C_8  and  C_9
REMARK    5  A    between atoms: N_11  and  C_12
REMARK    6  A    between atoms: C_16  and  C_17
REMARK    7  A    between atoms: N_19  and  C_20
REMARK    8  A    between atoms: C_24  and  C_25
REMARK                            x       y       z     vdW  Elec       q    Type
REMARK                         _______ _______ _______ _____ _____    ______ ____
ROOT
ATOM      1  C   UNL     1       2.103   7.713  19.374  0.00  0.00    +0.000 A 
ATOM      2  C   UNL     1       2.093   8.207  18.069  0.00  0.00    +0.000 A 
ATOM      3  C   UNL     1       1.543   9.462  17.779  0.00  0.00    +0.000 A 
ATOM      4  C   UNL     1       0.984  10.238  18.793  0.00  0.00    +0.000 A 
ATOM      5  C   UNL     1       0.956   9.739  20.097  0.00  0.00    +0.000 A 
ATOM      6  C   UNL     1       1.515   8.482  20.383  0.00  0.00    +0.000 A 
ENDROOT
BRANCH   1   9
ATOM      7  C   UNL     1       2.462   5.246  19.129  0.00  0.00    +0.000 C 
ATOM      8  O   UNL     1       1.772   5.109  18.123  0.00  0.00    +0.000 OA
ATOM      9  N   UNL     1       2.678   6.471  19.746  0.00  0.00    +0.000 N 
ATOM     10  H   UNL     1       3.384   6.519  20.461  0.00  0.00    +0.000 HD
BRANCH   7  16
ATOM     11  C   UNL     1       4.450   3.637  19.425  0.00  0.00    +0.000 A 
ATOM     12  N   UNL     1       4.757   2.523  20.098  0.00  0.00    +0.000 NA
ATOM     13  O   UNL     1       3.654   2.231  20.860  0.00  0.00    +0.000 OA
ATOM     14  C   UNL     1       2.682   3.159  20.653  0.00  0.00    +0.000 A 
ATOM     15  C   UNL     1       1.463   2.936  21.456  0.00  0.00    +0.000 C 
ATOM     16  C   UNL     1       3.120   4.086  19.721  0.00  0.00    +0.000 A 
BRANCH  11  18
ATOM     17  C   UNL     1       6.213   5.408  19.157  0.00  0.00    +0.000 C 
ATOM     18  C   UNL     1       5.480   4.236  18.522  0.00  0.00    +0.000 C 
ENDBRANCH  11  18
ENDBRANCH   7  16
ENDBRANCH   1   9
BRANCH   5  19
ATOM     19  C   UNL     1       0.407  10.531  21.236  0.00  0.00    +0.000 C 
ATOM     20  O   UNL     1       0.466  10.018  22.351  0.00  0.00    +0.000 OA
ATOM     21  N   UNL     1      -0.183  11.740  20.912  0.00  0.00    +0.000 N 
ATOM     22  H   UNL     1      -0.312  11.950  19.933  0.00  0.00    +0.000 HD
BRANCH  21  23
ATOM     23  C   UNL     1      -0.793  12.632  21.830  0.00  0.00    +0.000 A 
ATOM     24  C   UNL     1      -0.168  13.787  22.305  0.00  0.00    +0.000 A 
ATOM     25  C   UNL     1      -0.798  14.610  23.241  0.00  0.00    +0.000 A 
ATOM     26  C   UNL     1      -2.068  14.291  23.710  0.00  0.00    +0.000 A 
ATOM     27  C   UNL     1      -2.730  13.153  23.231  0.00  0.00    +0.000 A 
ATOM     28  C   UNL     1      -2.085  12.332  22.283  0.00  0.00    +0.000 A 
BRANCH  27  29
ATOM     29  C   UNL     1      -4.113  12.805  23.724  0.00  0.00    +0.000 C 
ATOM     30  F   UNL     1      -4.770  13.851  24.299  0.00  0.00    +0.000 F 
ATOM     31  F   UNL     1      -4.924  12.360  22.724  0.00  0.00    +0.000 F 
ATOM     32  F   UNL     1      -4.098  11.814  24.660  0.00  0.00    +0.000 F 
ENDBRANCH  27  29
ENDBRANCH  21  23
ENDBRANCH   5  19
TORSDOF 6
ENDMDL
MODEL 2
REMARK VINA RESULT:      -8.4      0.837      1.053
REMARK  Name = 
REMARK  8 active torsions:
REMARK  status: ('A' for Active; 'I' for Inactive)
REMARK    1  A    between atoms: C_1  and  C_2
REMARK    2  A    between atoms: C_2  and  C_3
REMARK    3  A    between atoms: C_6  and  C_7
REMARK    4  A    between atoms: C_8  and  C_9
REMARK    5  A    between atoms: N_11  and  C_12
REMARK    6  A    between atoms: C_16  and  C_17
REMARK    7  A    between atoms: N_19  and  C_20
REMARK    8  A    between atoms: C_24  and  C_25
REMARK                            x       y       z     vdW  Elec       q    Type
REMARK                         _______ _______ _______ _____ _____    ______ ____
ROOT
ATOM      1  C   UNL     1       2.200   7.659  19.355  0.00  0.00    +0.000 A 
ATOM      2  C   UNL     1       2.395   8.273  18.116  0.00  0.00    +0.000 A 
ATOM      3  C   UNL     1       1.820   9.518  17.831  0.00  0.00    +0.000 A 
ATOM      4  C   UNL     1       1.028  10.162  18.780  0.00  0.00    +0.000 A 
ATOM      5  C   UNL     1       0.794   9.542  20.009  0.00  0.00    +0.000 A 
ATOM      6  C   UNL     1       1.380   8.296  20.292  0.00  0.00    +0.000 A 
ENDROOT
BRANCH   1   9
ATOM      7  C   UNL     1       2.548   5.189  19.132  0.00  0.00    +0.000 C 
ATOM      8  O   UNL     1       1.828   5.040  18.149  0.00  0.00    +0.000 OA
ATOM      9  N   UNL     1       2.784   6.422  19.726  0.00  0.00    +0.000 N 
ATOM     10  H   UNL     1       3.511   6.478  20.419  0.00  0.00    +0.000 HD
BRANCH   7  16
ATOM     11  C   UNL     1       4.549   3.593  19.404  0.00  0.00    +0.000 A 
ATOM     12  N   UNL     1       4.873   2.484  20.079  0.00  0.00    +0.000 NA
ATOM     13  O   UNL     1       3.784   2.190  20.860  0.00  0.00    +0.000 OA
ATOM     14  C   UNL     1       2.804   3.112  20.664  0.00  0.00    +0.000 A 
ATOM     15  C   UNL     1       1.600   2.887  21.488  0.00  0.00    +0.000 C 
ATOM     16  C   UNL     1       3.222   4.036  19.719  0.00  0.00    +0.000 A 
BRANCH  11  18
ATOM     17  C   UNL     1       6.289   5.379  19.094  0.00  0.00    +0.000 C 
ATOM     18  C   UNL     1       5.561   4.192  18.481  0.00  0.00    +0.000 C 
ENDBRANCH  11  18
ENDBRANCH   7  16
ENDBRANCH   1   9
BRANCH   5  19
ATOM     19  C   UNL     1      -0.012  10.190  21.083  0.00  0.00    +0.000 C 
ATOM     20  O   UNL     1      -0.221   9.532  22.098  0.00  0.00    +0.000 OA
ATOM     21  N   UNL     1      -0.510  11.450  20.798  0.00  0.00    +0.000 N 
ATOM     22  H   UNL     1      -0.401  11.793  19.854  0.00  0.00    +0.000 HD
BRANCH  21  23
ATOM     23  C   UNL     1      -1.322  12.230  21.659  0.00  0.00    +0.000 A 
ATOM     24  C   UNL     1      -0.822  12.927  22.761  0.00  0.00    +0.000 A 
ATOM     25  C   UNL     1      -1.673  13.647  23.601  0.00  0.00    +0.000 A 
ATOM     26  C   UNL     1      -3.041  13.685  23.345  0.00  0.00    +0.000 A 
ATOM     27  C   UNL     1      -3.567  13.017  22.232  0.00  0.00    +0.000 A 
ATOM     28  C   UNL     1      -2.696  12.297  21.389  0.00  0.00    +0.000 A 
BRANCH  27  29
ATOM     29  C   UNL     1      -5.047  13.062  21.939  0.00  0.00    +0.000 C 
ATOM     30  F   UNL     1      -5.441  14.186  21.278  0.00  0.00    +0.000 F 
ATOM     31  F   UNL     1      -5.456  12.015  21.170  0.00  0.00    +0.000 F 
ATOM     32  F   UNL     1      -5.803  13.011  23.071  0.00  0.00    +0.000 F 
ENDBRANCH  27  29
ENDBRANCH  21  23
ENDBRANCH   5  19
TORSDOF 6
ENDMDL
MODEL 3
REMARK VINA RESULT:      -8.3      1.671      2.173
REMARK  Name = 
REMARK  8 active torsions:
REMARK  status: ('A' for Active; 'I' for Inactive)
REMARK    1  A    between atoms: C_1  and  C_2
REMARK    2  A    between atoms: C_2  and  C_3
REMARK    3  A    between atoms: C_6  and  C_7
REMARK    4  A    between atoms: C_8  and  C_9
REMARK    5  A    between atoms: N_11  and  C_12
REMARK    6  A    between atoms: C_16  and  C_17
REMARK    7  A    between atoms: N_19  and  C_20
REMARK    8  A    between atoms: C_24  and  C_25
REMARK                            x       y       z     vdW  Elec       q    Type
REMARK                         _______ _______ _______ _____ _____    ______ ____
ROOT
ATOM      1  C   UNL     1       1.995   7.825  19.671  0.00  0.00    +0.000 A 
ATOM      2  C   UNL     1       2.025   8.424  18.411  0.00  0.00    +0.000 A 
ATOM      3  C   UNL     1       1.463   9.689  18.202  0.00  0.00    +0.000 A 
ATOM      4  C   UNL     1       0.849  10.370  19.251  0.00  0.00    +0.000 A 
ATOM      5  C   UNL     1       0.779   9.766  20.508  0.00  0.00    +0.000 A 
ATOM      6  C   UNL     1       1.352   8.499  20.714  0.00  0.00    +0.000 A 
ENDROOT
BRANCH   1   9
ATOM      7  C   UNL     1       2.577   5.446  19.144  0.00  0.00    +0.000 C 
ATOM      8  O   UNL     1       2.104   5.440  18.012  0.00  0.00    +0.000 OA
ATOM      9  N   UNL     1       2.579   6.566  19.964  0.00  0.00    +0.000 N 
ATOM     10  H   UNL     1       3.130   6.532  20.806  0.00  0.00    +0.000 HD
BRANCH   7  16
ATOM     11  C   UNL     1       4.505   3.754  19.354  0.00  0.00    +0.000 A 
ATOM     12  N   UNL     1       4.774   2.600  19.975  0.00  0.00    +0.000 NA
ATOM     13  O   UNL     1       3.666   2.315  20.732  0.00  0.00    +0.000 OA
ATOM     14  C   UNL     1       2.728   3.287  20.573  0.00  0.00    +0.000 A 
ATOM     15  C   UNL     1       1.506   3.073  21.374  0.00  0.00    +0.000 C 
ATOM     16  C   UNL     1       3.195   4.237  19.679  0.00  0.00    +0.000 A 
BRANCH  11  18
ATOM     17  C   UNL     1       6.384   5.413  19.177  0.00  0.00    +0.000 C 
ATOM     18  C   UNL     1       5.552   4.354  18.470  0.00  0.00    +0.000 C 
ENDBRANCH  11  18
ENDBRANCH   7  16
ENDBRANCH   1   9
BRANCH   5  19
ATOM     19  C   UNL     1       0.170  10.452  21.684  0.00  0.00    +0.000 C 
ATOM     20  O   UNL     1       0.414   9.982  22.792  0.00  0.00    +0.000 OA
ATOM     21  N   UNL     1      -0.673  11.513  21.404  0.00  0.00    +0.000 N 
ATOM     22  H   UNL     1      -0.915  11.676  20.436  0.00  0.00    +0.000 HD
BRANCH  21  23
ATOM     23  C   UNL     1      -1.378  12.282  22.363  0.00  0.00    +0.000 A 
ATOM     24  C   UNL     1      -2.591  11.878  22.927  0.00  0.00    +0.000 A 
ATOM     25  C   UNL     1      -3.265  12.694  23.837  0.00  0.00    +0.000 A 
ATOM     26  C   UNL     1      -2.730  13.925  24.204  0.00  0.00    +0.000 A 
ATOM     27  C   UNL     1      -1.501  14.344  23.676  0.00  0.00    +0.000 A 
ATOM     28  C   UNL     1      -0.829  13.509  22.760  0.00  0.00    +0.000 A 
BRANCH  27  29
ATOM     29  C   UNL     1      -0.906  15.671  24.076  0.00  0.00    +0.000 C 
ATOM     30  F   UNL     1      -1.718  16.735  23.823  0.00  0.00    +0.000 F 
ATOM     31  F   UNL     1      -0.617  15.730  25.406  0.00  0.00    +0.000 F 
ATOM     32  F   UNL     1       0.264  15.933  23.429  0.00  0.00    +0.000 F 
ENDBRANCH  27  29
ENDBRANCH  21  23
ENDBRANCH   5  19
TORSDOF 6
ENDMDL
MODEL 4
REMARK VINA RESULT:      -8.2      3.355      4.914
REMARK  Name = 
REMARK  8 active torsions:
REMARK  status: ('A' for Active; 'I' for Inactive)
REMARK    1  A    between atoms: C_1  and  C_2
REMARK    2  A    between atoms: C_2  and  C_3
REMARK    3  A    between atoms: C_6  and  C_7
REMARK    4  A    between atoms: C_8  and  C_9
REMARK    5  A    between atoms: N_11  and  C_12
REMARK    6  A    between atoms: C_16  and  C_17
REMARK    7  A    between atoms: N_19  and  C_20
REMARK    8  A    between atoms: C_24  and  C_25
REMARK                            x       y       z     vdW  Elec       q    Type
REMARK                         _______ _______ _______ _____ _____    ______ ____
ROOT
ATOM      1  C   UNL     1       3.598   5.818  18.924  0.00  0.00    +0.000 A 
ATOM      2  C   UNL     1       3.320   4.721  19.741  0.00  0.00    +0.000 A 
ATOM      3  C   UNL     1       2.323   4.788  20.721  0.00  0.00    +0.000 A 
ATOM      4  C   UNL     1       1.595   5.962  20.908  0.00  0.00    +0.000 A 
ATOM      5  C   UNL     1       1.888   7.078  20.123  0.00  0.00    +0.000 A 
ATOM      6  C   UNL     1       2.885   7.003  19.135  0.00  0.00    +0.000 A 
ENDROOT
BRANCH   1   9
ATOM      7  C   UNL     1       4.679   4.861  16.877  0.00  0.00    +0.000 C 
ATOM      8  O   UNL     1       3.894   3.928  16.735  0.00  0.00    +0.000 OA
ATOM      9  N   UNL     1       4.564   5.808  17.886  0.00  0.00    +0.000 N 
ATOM     10  H   UNL     1       5.148   6.626  17.831  0.00  0.00    +0.000 HD
BRANCH   7  16
ATOM     11  C   UNL     1       7.037   5.670  16.234  0.00  0.00    +0.000 A 
ATOM     12  N   UNL     1       7.840   5.696  15.165  0.00  0.00    +0.000 NA
ATOM     13  O   UNL     1       7.153   5.054  14.166  0.00  0.00    +0.000 OA
ATOM     14  C   UNL     1       5.940   4.641  14.622  0.00  0.00    +0.000 A 
ATOM     15  C   UNL     1       5.140   3.915  13.615  0.00  0.00    +0.000 C 
ATOM     16  C   UNL     1       5.790   5.024  15.945  0.00  0.00    +0.000 A 
BRANCH  11  18
ATOM     17  C   UNL     1       7.613   7.786  17.462  0.00  0.00    +0.000 C 
ATOM     18  C   UNL     1       7.527   6.268  17.514  0.00  0.00    +0.000 C 
ENDBRANCH  11  18
ENDBRANCH   7  16
ENDBRANCH   1   9
BRANCH   5  19
ATOM     19  C   UNL     1       1.125   8.354  20.242  0.00  0.00    +0.000 C 
ATOM     20  O   UNL     1       0.605   8.593  21.328  0.00  0.00    +0.000 OA
ATOM     21  N   UNL     1       1.015   9.111  19.089  0.00  0.00    +0.000 N 
ATOM     22  H   UNL     1       1.348   8.702  18.227  0.00  0.00    +0.000 HD
BRANCH  21  23
ATOM     23  C   UNL     1       0.311  10.335  18.969  0.00  0.00    +0.000 A 
ATOM     24  C   UNL     1       0.887  11.579  19.238  0.00  0.00    +0.000 A 
ATOM     25  C   UNL     1       0.135  12.752  19.145  0.00  0.00    +0.000 A 
ATOM     26  C   UNL     1      -1.204  12.697  18.773  0.00  0.00    +0.000 A 
ATOM     27  C   UNL     1      -1.801  11.466  18.472  0.00  0.00    +0.000 A 
ATOM     28  C   UNL     1      -1.031  10.289  18.566  0.00  0.00    +0.000 A 
BRANCH  27  29
ATOM     29  C   UNL     1      -3.250  11.397  18.056  0.00  0.00    +0.000 C 
ATOM     30  F   UNL     1      -3.779  10.143  18.119  0.00  0.00    +0.000 F 
ATOM     31  F   UNL     1      -4.050  12.179  18.832  0.00  0.00    +0.000 F 
ATOM     32  F   UNL     1      -3.445  11.820  16.775  0.00  0.00    +0.000 F 
ENDBRANCH  27  29
ENDBRANCH  21  23
ENDBRANCH   5  19
TORSDOF 6
ENDMDL
MODEL 5
REMARK VINA RESULT:      -8.1      0.826      1.930
REMARK  Name = 
REMARK  8 active torsions:
REMARK  status: ('A' for Active; 'I' for Inactive)
REMARK    1  A    between atoms: C_1  and  C_2
REMARK    2  A    between atoms: C_2  and  C_3
REMARK    3  A    between atoms: C_6  and  C_7
REMARK    4  A    between atoms: C_8  and  C_9
REMARK    5  A    between atoms: N_11  and  C_12
REMARK    6  A    between atoms: C_16  and  C_17
REMARK    7  A    between atoms: N_19  and  C_20
REMARK    8  A    between atoms: C_24  and  C_25
REMARK                            x       y       z     vdW  Elec       q    Type
REMARK                         _______ _______ _______ _____ _____    ______ ____
ROOT
ATOM      1  C   UNL     1       1.927   8.077  19.354  0.00  0.00    +0.000 A 
ATOM      2  C   UNL     1       1.785   8.599  18.068  0.00  0.00    +0.000 A 
ATOM      3  C   UNL     1       1.130   9.818  17.855  0.00  0.00    +0.000 A 
ATOM      4  C   UNL     1       0.596  10.529  18.928  0.00  0.00    +0.000 A 
ATOM      5  C   UNL     1       0.699  10.000  20.216  0.00  0.00    +0.000 A 
ATOM      6  C   UNL     1       1.364   8.779  20.425  0.00  0.00    +0.000 A 
ENDROOT
BRANCH   1   9
ATOM      7  C   UNL     1       2.564   5.695  18.910  0.00  0.00    +0.000 C 
ATOM      8  O   UNL     1       1.948   5.586  17.854  0.00  0.00    +0.000 OA
ATOM      9  N   UNL     1       2.613   6.870  19.648  0.00  0.00    +0.000 N 
ATOM     10  H   UNL     1       3.270   6.921  20.408  0.00  0.00    +0.000 HD
BRANCH   7  16
ATOM     11  C   UNL     1       2.740   3.386  20.035  0.00  0.00    +0.000 A 
ATOM     12  N   UNL     1       3.684   2.536  20.454  0.00  0.00    +0.000 NA
ATOM     13  O   UNL     1       4.883   3.114  20.122  0.00  0.00    +0.000 OA
ATOM     14  C   UNL     1       4.673   4.308  19.506  0.00  0.00    +0.000 A 
ATOM     15  C   UNL     1       5.914   4.991  19.090  0.00  0.00    +0.000 C 
ATOM     16  C   UNL     1       3.312   4.557  19.435  0.00  0.00    +0.000 A 
BRANCH  11  18
ATOM     17  C   UNL     1       0.687   2.394  18.978  0.00  0.00    +0.000 C 
ATOM     18  C   UNL     1       1.304   3.015  20.223  0.00  0.00    +0.000 C 
ENDBRANCH  11  18
ENDBRANCH   7  16
ENDBRANCH   1   9
BRANCH   5  19
ATOM     19  C   UNL     1       0.185  10.724  21.414  0.00  0.00    +0.000 C 
ATOM     20  O   UNL     1       0.446  10.241  22.512  0.00  0.00    +0.000 OA
ATOM     21  N   UNL     1      -0.604  11.833  21.165  0.00  0.00    +0.000 N 
ATOM     22  H   UNL     1      -0.876  12.009  20.208  0.00  0.00    +0.000 HD
BRANCH  21  23
ATOM     23  C   UNL     1      -1.219  12.645  22.151  0.00  0.00    +0.000 A 
ATOM     24  C   UNL     1      -0.545  13.655  22.842  0.00  0.00    +0.000 A 
ATOM     25  C   UNL     1      -1.189  14.397  23.834  0.00  0.00    +0.000 A 
ATOM     26  C   UNL     1      -2.522  14.145  24.142  0.00  0.00    +0.000 A 
ATOM     27  C   UNL     1      -3.231  13.157  23.446  0.00  0.00    +0.000 A 
ATOM     28  C   UNL     1      -2.571  12.417  22.445  0.00  0.00    +0.000 A 
BRANCH  27  29
ATOM     29  C   UNL     1      -4.680  12.885  23.765  0.00  0.00    +0.000 C 
ATOM     30  F   UNL     1      -5.382  13.996  24.125  0.00  0.00    +0.000 F 
ATOM     31  F   UNL     1      -5.352  12.345  22.710  0.00  0.00    +0.000 F 
ATOM     32  F   UNL     1      -4.830  12.001  24.792  0.00  0.00    +0.000 F 
ENDBRANCH  27  29
ENDBRANCH  21  23
ENDBRANCH   5  19
TORSDOF 6
ENDMDL
MODEL 6
REMARK VINA RESULT:      -8.1      3.428      4.922
REMARK  Name = 
REMARK  8 active torsions:
REMARK  status: ('A' for Active; 'I' for Inactive)
REMARK    1  A    between atoms: C_1  and  C_2
REMARK    2  A    between atoms: C_2  and  C_3
REMARK    3  A    between atoms: C_6  and  C_7
REMARK    4  A    between atoms: C_8  and  C_9
REMARK    5  A    between atoms: N_11  and  C_12
REMARK    6  A    between atoms: C_16  and  C_17
REMARK    7  A    between atoms: N_19  and  C_20
REMARK    8  A    between atoms: C_24  and  C_25
REMARK                            x       y       z     vdW  Elec       q    Type
REMARK                         _______ _______ _______ _____ _____    ______ ____
ROOT
ATOM      1  C   UNL     1       3.547   5.874  19.178  0.00  0.00    +0.000 A 
ATOM      2  C   UNL     1       3.209   4.704  19.861  0.00  0.00    +0.000 A 
ATOM      3  C   UNL     1       2.136   4.682  20.761  0.00  0.00    +0.000 A 
ATOM      4  C   UNL     1       1.391   5.835  20.999  0.00  0.00    +0.000 A 
ATOM      5  C   UNL     1       1.742   7.020  20.350  0.00  0.00    +0.000 A 
ATOM      6  C   UNL     1       2.815   7.036  19.443  0.00  0.00    +0.000 A 
ENDROOT
BRANCH   1   9
ATOM      7  C   UNL     1       4.776   5.130  17.126  0.00  0.00    +0.000 C 
ATOM      8  O   UNL     1       3.992   4.238  16.815  0.00  0.00    +0.000 OA
ATOM      9  N   UNL     1       4.593   5.959  18.224  0.00  0.00    +0.000 N 
ATOM     10  H   UNL     1       5.191   6.764  18.310  0.00  0.00    +0.000 HD
BRANCH   7  16
ATOM     11  C   UNL     1       6.193   4.841  14.996  0.00  0.00    +0.000 A 
ATOM     12  N   UNL     1       7.387   5.211  14.519  0.00  0.00    +0.000 NA
ATOM     13  O   UNL     1       7.949   6.003  15.489  0.00  0.00    +0.000 OA
ATOM     14  C   UNL     1       7.105   6.115  16.549  0.00  0.00    +0.000 A 
ATOM     15  C   UNL     1       7.620   6.974  17.633  0.00  0.00    +0.000 C 
ATOM     16  C   UNL     1       5.960   5.372  16.308  0.00  0.00    +0.000 A 
BRANCH  11  18
ATOM     17  C   UNL     1       5.974   3.576  12.836  0.00  0.00    +0.000 C 
ATOM     18  C   UNL     1       5.311   3.989  14.141  0.00  0.00    +0.000 C 
ENDBRANCH  11  18
ENDBRANCH   7  16
ENDBRANCH   1   9
BRANCH   5  19
ATOM     19  C   UNL     1       0.967   8.282  20.529  0.00  0.00    +0.000 C 
ATOM     20  O   UNL     1       0.474   8.481  21.636  0.00  0.00    +0.000 OA
ATOM     21  N   UNL     1       0.816   9.072  19.403  0.00  0.00    +0.000 N 
ATOM     22  H   UNL     1       1.130   8.693  18.520  0.00  0.00    +0.000 HD
BRANCH  21  23
ATOM     23  C   UNL     1       0.094  10.290  19.340  0.00  0.00    +0.000 A 
ATOM     24  C   UNL     1       0.587  11.499  19.835  0.00  0.00    +0.000 A 
ATOM     25  C   UNL     1      -0.183  12.662  19.786  0.00  0.00    +0.000 A 
ATOM     26  C   UNL     1      -1.459  12.633  19.231  0.00  0.00    +0.000 A 
ATOM     27  C   UNL     1      -1.970  11.440  18.702  0.00  0.00    +0.000 A 
ATOM     28  C   UNL     1      -1.180  10.273  18.755  0.00  0.00    +0.000 A 
BRANCH  27  29
ATOM     29  C   UNL     1      -3.347  11.401  18.088  0.00  0.00    +0.000 C 
ATOM     30  F   UNL     1      -3.384  11.829  16.796  0.00  0.00    +0.000 F 
ATOM     31  F   UNL     1      -3.876  10.146  18.080  0.00  0.00    +0.000 F 
ATOM     32  F   UNL     1      -4.241  12.177  18.764  0.00  0.00    +0.000 F 
ENDBRANCH  27  29
ENDBRANCH  21  23
ENDBRANCH   5  19
TORSDOF 6
ENDMDL
MODEL 7
REMARK VINA RESULT:      -8.1      3.973      5.396
REMARK  Name = 
REMARK  8 active torsions:
REMARK  status: ('A' for Active; 'I' for Inactive)
REMARK    1  A    between atoms: C_1  and  C_2
REMARK    2  A    between atoms: C_2  and  C_3
REMARK    3  A    between atoms: C_6  and  C_7
REMARK    4  A    between atoms: C_8  and  C_9
REMARK    5  A    between atoms: N_11  and  C_12
REMARK    6  A    between atoms: C_16  and  C_17
REMARK    7  A    between atoms: N_19  and  C_20
REMARK    8  A    between atoms: C_24  and  C_25
REMARK                            x       y       z     vdW  Elec       q    Type
REMARK                         _______ _______ _______ _____ _____    ______ ____
ROOT
ATOM      1  C   UNL     1       3.490   5.920  18.823  0.00  0.00    +0.000 A 
ATOM      2  C   UNL     1       3.120   4.859  19.650  0.00  0.00    +0.000 A 
ATOM      3  C   UNL     1       2.119   5.015  20.616  0.00  0.00    +0.000 A 
ATOM      4  C   UNL     1       1.479   6.243  20.777  0.00  0.00    +0.000 A 
ATOM      5  C   UNL     1       1.866   7.323  19.981  0.00  0.00    +0.000 A 
ATOM      6  C   UNL     1       2.867   7.158  19.008  0.00  0.00    +0.000 A 
ENDROOT
BRANCH   1   9
ATOM      7  C   UNL     1       4.568   4.813  16.852  0.00  0.00    +0.000 C 
ATOM      8  O   UNL     1       3.761   3.892  16.757  0.00  0.00    +0.000 OA
ATOM      9  N   UNL     1       4.466   5.823  17.799  0.00  0.00    +0.000 N 
ATOM     10  H   UNL     1       5.071   6.621  17.701  0.00  0.00    +0.000 HD
BRANCH   7  16
ATOM     11  C   UNL     1       6.976   5.459  16.212  0.00  0.00    +0.000 A 
ATOM     12  N   UNL     1       7.784   5.418  15.147  0.00  0.00    +0.000 NA
ATOM     13  O   UNL     1       7.062   4.809  14.152  0.00  0.00    +0.000 OA
ATOM     14  C   UNL     1       5.823   4.481  14.607  0.00  0.00    +0.000 A 
ATOM     15  C   UNL     1       4.983   3.795  13.605  0.00  0.00    +0.000 C 
ATOM     16  C   UNL     1       5.691   4.891  15.924  0.00  0.00    +0.000 A 
BRANCH  11  18
ATOM     17  C   UNL     1       7.582   7.559  17.451  0.00  0.00    +0.000 C 
ATOM     18  C   UNL     1       7.498   6.041  17.487  0.00  0.00    +0.000 C 
ENDBRANCH  11  18
ENDBRANCH   7  16
ENDBRANCH   1   9
BRANCH   5  19
ATOM     19  C   UNL     1       1.199   8.654  20.073  0.00  0.00    +0.000 C 
ATOM     20  O   UNL     1       0.649   8.930  21.135  0.00  0.00    +0.000 OA
ATOM     21  N   UNL     1       1.203   9.420  18.920  0.00  0.00    +0.000 N 
ATOM     22  H   UNL     1       1.543   8.988  18.072  0.00  0.00    +0.000 HD
BRANCH  21  23
ATOM     23  C   UNL     1       0.603  10.696  18.776  0.00  0.00    +0.000 A 
ATOM     24  C   UNL     1      -0.769  10.880  18.590  0.00  0.00    +0.000 A 
ATOM     25  C   UNL     1      -1.303  12.158  18.411  0.00  0.00    +0.000 A 
ATOM     26  C   UNL     1      -0.470  13.272  18.424  0.00  0.00    +0.000 A 
ATOM     27  C   UNL     1       0.906  13.120  18.636  0.00  0.00    +0.000 A 
ATOM     28  C   UNL     1       1.433  11.825  18.819  0.00  0.00    +0.000 A 
BRANCH  27  29
ATOM     29  C   UNL     1       1.816  14.323  18.665  0.00  0.00    +0.000 C 
ATOM     30  F   UNL     1       2.511  14.458  19.828  0.00  0.00    +0.000 F 
ATOM     31  F   UNL     1       2.750  14.291  17.674  0.00  0.00    +0.000 F 
ATOM     32  F   UNL     1       1.137  15.493  18.498  0.00  0.00    +0.000 F 
ENDBRANCH  27  29
ENDBRANCH  21  23
ENDBRANCH   5  19
TORSDOF 6
ENDMDL
MODEL 8
REMARK VINA RESULT:      -8.0      5.569     10.326
REMARK  Name = 
REMARK  8 active torsions:
REMARK  status: ('A' for Active; 'I' for Inactive)
REMARK    1  A    between atoms: C_1  and  C_2
REMARK    2  A    between atoms: C_2  and  C_3
REMARK    3  A    between atoms: C_6  and  C_7
REMARK    4  A    between atoms: C_8  and  C_9
REMARK    5  A    between atoms: N_11  and  C_12
REMARK    6  A    between atoms: C_16  and  C_17
REMARK    7  A    between atoms: N_19  and  C_20
REMARK    8  A    between atoms: C_24  and  C_25
REMARK                            x       y       z     vdW  Elec       q    Type
REMARK                         _______ _______ _______ _____ _____    ______ ____
ROOT
ATOM      1  C   UNL     1       0.851  12.075  19.170  0.00  0.00    +0.000 A 
ATOM      2  C   UNL     1      -0.065  11.828  20.194  0.00  0.00    +0.000 A 
ATOM      3  C   UNL     1      -0.311  10.523  20.640  0.00  0.00    +0.000 A 
ATOM      4  C   UNL     1       0.349   9.443  20.058  0.00  0.00    +0.000 A 
ATOM      5  C   UNL     1       1.241   9.673  19.008  0.00  0.00    +0.000 A 
ATOM      6  C   UNL     1       1.489  10.985  18.569  0.00  0.00    +0.000 A 
ENDROOT
BRANCH   1   9
ATOM      7  C   UNL     1       2.089  14.250  19.266  0.00  0.00    +0.000 C 
ATOM      8  O   UNL     1       2.777  13.969  20.243  0.00  0.00    +0.000 OA
ATOM      9  N   UNL     1       1.179  13.370  18.696  0.00  0.00    +0.000 N 
ATOM     10  H   UNL     1       0.780  13.618  17.806  0.00  0.00    +0.000 HD
BRANCH   7  16
ATOM     11  C   UNL     1       3.390  16.041  17.952  0.00  0.00    +0.000 A 
ATOM     12  N   UNL     1       3.222  17.294  17.513  0.00  0.00    +0.000 NA
ATOM     13  O   UNL     1       1.947  17.649  17.875  0.00  0.00    +0.000 OA
ATOM     14  C   UNL     1       1.342  16.622  18.530  0.00  0.00    +0.000 A 
ATOM     15  C   UNL     1      -0.048  16.909  18.936  0.00  0.00    +0.000 C 
ATOM     16  C   UNL     1       2.224  15.558  18.634  0.00  0.00    +0.000 A 
BRANCH  11  18
ATOM     17  C   UNL     1       5.765  15.686  18.692  0.00  0.00    +0.000 C 
ATOM     18  C   UNL     1       4.687  15.351  17.673  0.00  0.00    +0.000 C 
ENDBRANCH  11  18
ENDBRANCH   7  16
ENDBRANCH   1   9
BRANCH   5  19
ATOM     19  C   UNL     1       2.010   8.568  18.365  0.00  0.00    +0.000 C 
ATOM     20  O   UNL     1       2.318   8.716  17.186  0.00  0.00    +0.000 OA
ATOM     21  N   UNL     1       2.237   7.447  19.145  0.00  0.00    +0.000 N 
ATOM     22  H   UNL     1       1.773   7.399  20.041  0.00  0.00    +0.000 HD
BRANCH  21  23
ATOM     23  C   UNL     1       2.915   6.275  18.726  0.00  0.00    +0.000 A 
ATOM     24  C   UNL     1       4.245   6.271  18.297  0.00  0.00    +0.000 A 
ATOM     25  C   UNL     1       4.852   5.094  17.855  0.00  0.00    +0.000 A 
ATOM     26  C   UNL     1       4.137   3.900  17.843  0.00  0.00    +0.000 A 
ATOM     27  C   UNL     1       2.811   3.869  18.293  0.00  0.00    +0.000 A 
ATOM     28  C   UNL     1       2.210   5.063  18.740  0.00  0.00    +0.000 A 
BRANCH  27  29
ATOM     29  C   UNL     1       2.031   2.577  18.296  0.00  0.00    +0.000 C 
ATOM     30  F   UNL     1       2.268   1.792  17.208  0.00  0.00    +0.000 F 
ATOM     31  F   UNL     1       2.311   1.804  19.382  0.00  0.00    +0.000 F 
ATOM     32  F   UNL     1       0.684   2.782  18.321  0.00  0.00    +0.000 F 
ENDBRANCH  27  29
ENDBRANCH  21  23
ENDBRANCH   5  19
TORSDOF 6
ENDMDL
MODEL 9
REMARK VINA RESULT:      -8.0      2.831      4.297
REMARK  Name = 
REMARK  8 active torsions:
REMARK  status: ('A' for Active; 'I' for Inactive)
REMARK    1  A    between atoms: C_1  and  C_2
REMARK    2  A    between atoms: C_2  and  C_3
REMARK    3  A    between atoms: C_6  and  C_7
REMARK    4  A    between atoms: C_8  and  C_9
REMARK    5  A    between atoms: N_11  and  C_12
REMARK    6  A    between atoms: C_16  and  C_17
REMARK    7  A    between atoms: N_19  and  C_20
REMARK    8  A    between atoms: C_24  and  C_25
REMARK                            x       y       z     vdW  Elec       q    Type
REMARK                         _______ _______ _______ _____ _____    ______ ____
ROOT
ATOM      1  C   UNL     1       3.294   5.561  18.657  0.00  0.00    +0.000 A 
ATOM      2  C   UNL     1       2.704   4.378  19.105  0.00  0.00    +0.000 A 
ATOM      3  C   UNL     1       1.702   4.400  20.083  0.00  0.00    +0.000 A 
ATOM      4  C   UNL     1       1.284   5.607  20.638  0.00  0.00    +0.000 A 
ATOM      5  C   UNL     1       1.892   6.795  20.225  0.00  0.00    +0.000 A 
ATOM      6  C   UNL     1       2.892   6.768  19.238  0.00  0.00    +0.000 A 
ENDROOT
BRANCH   1   9
ATOM      7  C   UNL     1       4.657   4.582  16.798  0.00  0.00    +0.000 C 
ATOM      8  O   UNL     1       4.112   3.482  16.797  0.00  0.00    +0.000 OA
ATOM      9  N   UNL     1       4.283   5.618  17.642  0.00  0.00    +0.000 N 
ATOM     10  H   UNL     1       4.668   6.531  17.465  0.00  0.00    +0.000 HD
BRANCH   7  16
ATOM     11  C   UNL     1       6.968   5.531  16.175  0.00  0.00    +0.000 A 
ATOM     12  N   UNL     1       7.749   5.663  15.098  0.00  0.00    +0.000 NA
ATOM     13  O   UNL     1       7.070   5.063  14.068  0.00  0.00    +0.000 OA
ATOM     14  C   UNL     1       5.884   4.569  14.513  0.00  0.00    +0.000 A 
ATOM     15  C   UNL     1       5.096   3.881  13.471  0.00  0.00    +0.000 C 
ATOM     16  C   UNL     1       5.743   4.855  15.861  0.00  0.00    +0.000 A 
BRANCH  11  18
ATOM     17  C   UNL     1       7.523   7.580  17.521  0.00  0.00    +0.000 C 
ATOM     18  C   UNL     1       7.456   6.060  17.486  0.00  0.00    +0.000 C 
ENDBRANCH  11  18
ENDBRANCH   7  16
ENDBRANCH   1   9
BRANCH   5  19
ATOM     19  C   UNL     1       1.469   8.125  20.749  0.00  0.00    +0.000 C 
ATOM     20  O   UNL     1       1.496   8.281  21.967  0.00  0.00    +0.000 OA
ATOM     21  N   UNL     1       1.013   9.035  19.810  0.00  0.00    +0.000 N 
ATOM     22  H   UNL     1       0.884   8.705  18.864  0.00  0.00    +0.000 HD
BRANCH  21  23
ATOM     23  C   UNL     1       0.535  10.339  20.089  0.00  0.00    +0.000 A 
ATOM     24  C   UNL     1       0.891  11.463  19.340  0.00  0.00    +0.000 A 
ATOM     25  C   UNL     1       0.423  12.732  19.685  0.00  0.00    +0.000 A 
ATOM     26  C   UNL     1      -0.417  12.894  20.782  0.00  0.00    +0.000 A 
ATOM     27  C   UNL     1      -0.813  11.782  21.536  0.00  0.00    +0.000 A 
ATOM     28  C   UNL     1      -0.337  10.505  21.176  0.00  0.00    +0.000 A 
BRANCH  27  29
ATOM     29  C   UNL     1      -1.733  11.945  22.720  0.00  0.00    +0.000 C 
ATOM     30  F   UNL     1      -3.027  12.198  22.379  0.00  0.00    +0.000 F 
ATOM     31  F   UNL     1      -1.766  10.836  23.509  0.00  0.00    +0.000 F 
ATOM     32  F   UNL     1      -1.356  12.971  23.535  0.00  0.00    +0.000 F 
ENDBRANCH  27  29
ENDBRANCH  21  23
ENDBRANCH   5  19
TORSDOF 6
ENDMDL
