MODEL 1
REMARK VINA RESULT:      -8.8      0.000      0.000
REMARK  Name = 
REMARK  7 active torsions:
REMARK  status: ('A' for Active; 'I' for Inactive)
REMARK    1  A    between atoms: C_1  and  N_2
REMARK    2  A    between atoms: C_6  and  C_7
REMARK    3  A    between atoms: C_7  and  C_8
REMARK    4  A    between atoms: C_8  and  C_9
REMARK    5  A    between atoms: C_13  and  N_14
REMARK    6  A    between atoms: C_19  and  N_20
REMARK    7  A    between atoms: C_22  and  C_23
REMARK                            x       y       z     vdW  Elec       q    Type
REMARK                         _______ _______ _______ _____ _____    ______ ____
ROOT
ATOM      1  N   UNL     1       4.120   4.425  19.168  0.00  0.00    +0.000 N 
ATOM      2  C   UNL     1       5.442   5.092  19.282  0.00  0.00    +0.000 C 
ATOM      3  C   UNL     1       5.996   4.936  17.898  0.00  0.00    +0.000 A 
ATOM      4  C   UNL     1       5.407   3.798  17.336  0.00  0.00    +0.000 A 
ATOM      5  C   UNL     1       5.542   3.459  16.005  0.00  0.00    +0.000 A 
ATOM      6  C   UNL     1       6.320   4.286  15.194  0.00  0.00    +0.000 A 
ATOM      7  C   UNL     1       6.878   5.459  15.742  0.00  0.00    +0.000 A 
ATOM      8  C   UNL     1       6.743   5.801  17.107  0.00  0.00    +0.000 A 
ATOM      9  C   UNL     1       4.306   3.376  18.236  0.00  0.00    +0.000 C 
ATOM     10  O   UNL     1       3.597   2.401  18.033  0.00  0.00    +0.000 OA
ENDROOT
BRANCH   1  15
ATOM     11  C   UNL     1       1.876   7.160  19.946  0.00  0.00    +0.000 A 
ATOM     12  C   UNL     1       2.390   8.073  19.012  0.00  0.00    +0.000 A 
ATOM     13  C   UNL     1       3.054   7.620  17.876  0.00  0.00    +0.000 A 
ATOM     14  C   UNL     1       3.330   6.266  17.730  0.00  0.00    +0.000 A 
ATOM     15  C   UNL     1       3.095   5.405  18.812  0.00  0.00    +0.000 A 
ATOM     16  C   UNL     1       2.217   5.809  19.824  0.00  0.00    +0.000 A 
BRANCH  11  17
ATOM     17  C   UNL     1       1.079   7.637  21.137  0.00  0.00    +0.000 C 
BRANCH  17  18
ATOM     18  C   UNL     1       1.595   8.979  21.669  0.00  0.00    +0.000 C 
BRANCH  18  24
ATOM     19  C   UNL     1      -0.011  10.978  19.889  0.00  0.00    +0.000 C 
ATOM     20  N   UNL     1      -0.187  10.752  21.299  0.00  0.00    +0.000 N 
ATOM     21  C   UNL     1      -1.072  11.401  22.102  0.00  0.00    +0.000 A 
ATOM     22  N   UNL     1      -0.967  10.949  23.329  0.00  0.00    +0.000 NA
ATOM     23  N   UNL     1       0.014   9.988  23.332  0.00  0.00    +0.000 NA
ATOM     24  C   UNL     1       0.488   9.870  22.104  0.00  0.00    +0.000 A 
ENDBRANCH  18  24
ENDBRANCH  17  18
ENDBRANCH  11  17
ENDBRANCH   1  15
BRANCH   8  25
ATOM     25  C   UNL     1       7.299   7.114  17.593  0.00  0.00    +0.000 C 
ATOM     26  F   UNL     1       8.164   7.709  16.728  0.00  0.00    +0.000 F 
ATOM     27  F   UNL     1       6.318   8.032  17.817  0.00  0.00    +0.000 F 
ATOM     28  F   UNL     1       7.972   6.994  18.770  0.00  0.00    +0.000 F 
ENDBRANCH   8  25
BRANCH   6  29
ATOM     29  N   UNL     1       6.292   4.117  13.804  0.00  0.00    +0.000 N 
ATOM     30  H   UNL     1       5.748   3.318  13.491  0.00  0.00    +0.000 HD
ATOM     31  H   UNL     1       7.201   4.164  13.351  0.00  0.00    +0.000 HD
ENDBRANCH   6  29
TORSDOF 6
ENDMDL
MODEL 2
REMARK VINA RESULT:      -8.6      4.024      6.554
REMARK  Name = 
REMARK  7 active torsions:
REMARK  status: ('A' for Active; 'I' for Inactive)
REMARK    1  A    between atoms: C_1  and  N_2
REMARK    2  A    between atoms: C_6  and  C_7
REMARK    3  A    between atoms: C_7  and  C_8
REMARK    4  A    between atoms: C_8  and  C_9
REMARK    5  A    between atoms: C_13  and  N_14
REMARK    6  A    between atoms: C_19  and  N_20
REMARK    7  A    between atoms: C_22  and  C_23
REMARK                            x       y       z     vdW  Elec       q    Type
REMARK                         _______ _______ _______ _____ _____    ______ ____
ROOT
ATOM      1  N   UNL     1       6.034   5.302  15.563  0.00  0.00    +0.000 N 
ATOM      2  C   UNL     1       4.877   6.201  15.807  0.00  0.00    +0.000 C 
ATOM      3  C   UNL     1       4.098   5.442  16.838  0.00  0.00    +0.000 A 
ATOM      4  C   UNL     1       4.393   4.084  16.671  0.00  0.00    +0.000 A 
ATOM      5  C   UNL     1       3.999   3.111  17.567  0.00  0.00    +0.000 A 
ATOM      6  C   UNL     1       3.255   3.508  18.680  0.00  0.00    +0.000 A 
ATOM      7  C   UNL     1       2.995   4.879  18.879  0.00  0.00    +0.000 A 
ATOM      8  C   UNL     1       3.395   5.873  17.956  0.00  0.00    +0.000 A 
ATOM      9  C   UNL     1       5.532   3.989  15.726  0.00  0.00    +0.000 C 
ATOM     10  O   UNL     1       6.027   2.932  15.360  0.00  0.00    +0.000 OA
ENDROOT
BRANCH   1  15
ATOM     11  C   UNL     1       7.780   7.591  17.762  0.00  0.00    +0.000 A 
ATOM     12  C   UNL     1       7.772   6.772  18.902  0.00  0.00    +0.000 A 
ATOM     13  C   UNL     1       7.674   5.390  18.775  0.00  0.00    +0.000 A 
ATOM     14  C   UNL     1       7.447   4.823  17.527  0.00  0.00    +0.000 A 
ATOM     15  C   UNL     1       7.142   5.664  16.446  0.00  0.00    +0.000 A 
ATOM     16  C   UNL     1       7.485   7.019  16.520  0.00  0.00    +0.000 A 
BRANCH  11  17
ATOM     17  C   UNL     1       7.973   9.084  17.883  0.00  0.00    +0.000 C 
BRANCH  17  18
ATOM     18  C   UNL     1       8.948   9.444  19.011  0.00  0.00    +0.000 C 
BRANCH  18  24
ATOM     19  C   UNL     1       9.145  11.578  21.280  0.00  0.00    +0.000 C 
ATOM     20  N   UNL     1       9.514  11.755  19.901  0.00  0.00    +0.000 N 
ATOM     21  C   UNL     1       9.986  12.905  19.349  0.00  0.00    +0.000 A 
ATOM     22  N   UNL     1      10.222  12.715  18.072  0.00  0.00    +0.000 NA
ATOM     23  N   UNL     1       9.887  11.416  17.780  0.00  0.00    +0.000 NA
ATOM     24  C   UNL     1       9.457  10.835  18.886  0.00  0.00    +0.000 A 
ENDBRANCH  18  24
ENDBRANCH  17  18
ENDBRANCH  11  17
ENDBRANCH   1  15
BRANCH   8  25
ATOM     25  C   UNL     1       3.149   7.321  18.286  0.00  0.00    +0.000 C 
ATOM     26  F   UNL     1       4.206   8.141  18.031  0.00  0.00    +0.000 F 
ATOM     27  F   UNL     1       2.108   7.838  17.576  0.00  0.00    +0.000 F 
ATOM     28  F   UNL     1       2.837   7.514  19.597  0.00  0.00    +0.000 F 
ENDBRANCH   8  25
BRANCH   6  29
ATOM     29  N   UNL     1       3.039   2.603  19.727  0.00  0.00    +0.000 N 
ATOM     30  H   UNL     1       2.304   1.926  19.547  0.00  0.00    +0.000 HD
ATOM     31  H   UNL     1       2.954   3.028  20.646  0.00  0.00    +0.000 HD
ENDBRANCH   6  29
TORSDOF 6
ENDMDL
MODEL 3
REMARK VINA RESULT:      -8.5      0.828      1.210
REMARK  Name = 
REMARK  7 active torsions:
REMARK  status: ('A' for Active; 'I' for Inactive)
REMARK    1  A    between atoms: C_1  and  N_2
REMARK    2  A    between atoms: C_6  and  C_7
REMARK    3  A    between atoms: C_7  and  C_8
REMARK    4  A    between atoms: C_8  and  C_9
REMARK    5  A    between atoms: C_13  and  N_14
REMARK    6  A    between atoms: C_19  and  N_20
REMARK    7  A    between atoms: C_22  and  C_23
REMARK                            x       y       z     vdW  Elec       q    Type
REMARK                         _______ _______ _______ _____ _____    ______ ____
ROOT
ATOM      1  N   UNL     1       3.955   4.416  19.236  0.00  0.00    +0.000 N 
ATOM      2  C   UNL     1       5.298   5.043  19.327  0.00  0.00    +0.000 C 
ATOM      3  C   UNL     1       5.815   4.886  17.928  0.00  0.00    +0.000 A 
ATOM      4  C   UNL     1       5.180   3.771  17.369  0.00  0.00    +0.000 A 
ATOM      5  C   UNL     1       5.275   3.442  16.032  0.00  0.00    +0.000 A 
ATOM      6  C   UNL     1       6.058   4.254  15.211  0.00  0.00    +0.000 A 
ATOM      7  C   UNL     1       6.662   5.405  15.757  0.00  0.00    +0.000 A 
ATOM      8  C   UNL     1       6.568   5.737  17.129  0.00  0.00    +0.000 A 
ATOM      9  C   UNL     1       4.089   3.372  18.290  0.00  0.00    +0.000 C 
ATOM     10  O   UNL     1       3.347   2.420  18.095  0.00  0.00    +0.000 OA
ENDROOT
BRANCH   1  15
ATOM     11  C   UNL     1       2.048   7.406  19.977  0.00  0.00    +0.000 A 
ATOM     12  C   UNL     1       2.461   8.152  18.862  0.00  0.00    +0.000 A 
ATOM     13  C   UNL     1       2.901   7.509  17.709  0.00  0.00    +0.000 A 
ATOM     14  C   UNL     1       3.062   6.129  17.703  0.00  0.00    +0.000 A 
ATOM     15  C   UNL     1       2.951   5.429  18.914  0.00  0.00    +0.000 A 
ATOM     16  C   UNL     1       2.277   6.026  19.985  0.00  0.00    +0.000 A 
BRANCH  11  17
ATOM     17  C   UNL     1       1.488   8.090  21.201  0.00  0.00    +0.000 C 
BRANCH  17  18
ATOM     18  C   UNL     1       0.152   8.783  20.907  0.00  0.00    +0.000 C 
BRANCH  18  24
ATOM     19  C   UNL     1      -0.451  10.706  18.523  0.00  0.00    +0.000 C 
ATOM     20  N   UNL     1       0.023  11.080  19.829  0.00  0.00    +0.000 N 
ATOM     21  C   UNL     1       0.317  12.345  20.233  0.00  0.00    +0.000 A 
ATOM     22  N   UNL     1       0.721  12.325  21.481  0.00  0.00    +0.000 NA
ATOM     23  N   UNL     1       0.700  11.018  21.901  0.00  0.00    +0.000 NA
ATOM     24  C   UNL     1       0.280  10.264  20.901  0.00  0.00    +0.000 A 
ENDBRANCH  18  24
ENDBRANCH  17  18
ENDBRANCH  11  17
ENDBRANCH   1  15
BRANCH   8  25
ATOM     25  C   UNL     1       7.174   7.027  17.614  0.00  0.00    +0.000 C 
ATOM     26  F   UNL     1       7.870   6.916  18.778  0.00  0.00    +0.000 F 
ATOM     27  F   UNL     1       8.051   7.550  16.712  0.00  0.00    +0.000 F 
ATOM     28  F   UNL     1       6.240   7.995  17.829  0.00  0.00    +0.000 F 
ENDBRANCH   8  25
BRANCH   6  29
ATOM     29  N   UNL     1       5.993   4.100  13.820  0.00  0.00    +0.000 N 
ATOM     30  H   UNL     1       6.231   3.168  13.492  0.00  0.00    +0.000 HD
ATOM     31  H   UNL     1       6.465   4.827  13.289  0.00  0.00    +0.000 HD
ENDBRANCH   6  29
TORSDOF 6
ENDMDL
MODEL 4
REMARK VINA RESULT:      -8.3      4.570      6.513
REMARK  Name = 
REMARK  7 active torsions:
REMARK  status: ('A' for Active; 'I' for Inactive)
REMARK    1  A    between atoms: C_1  and  N_2
REMARK    2  A    between atoms: C_6  and  C_7
REMARK    3  A    between atoms: C_7  and  C_8
REMARK    4  A    between atoms: C_8  and  C_9
REMARK    5  A    between atoms: C_13  and  N_14
REMARK    6  A    between atoms: C_19  and  N_20
REMARK    7  A    between atoms: C_22  and  C_23
REMARK                            x       y       z     vdW  Elec       q    Type
REMARK                         _______ _______ _______ _____ _____    ______ ____
ROOT
ATOM      1  N   UNL     1       5.785   5.961  15.866  0.00  0.00    +0.000 N 
ATOM      2  C   UNL     1       4.662   6.402  16.731  0.00  0.00    +0.000 C 
ATOM      3  C   UNL     1       4.134   5.100  17.253  0.00  0.00    +0.000 A 
ATOM      4  C   UNL     1       4.448   4.113  16.312  0.00  0.00    +0.000 A 
ATOM      5  C   UNL     1       4.280   2.764  16.551  0.00  0.00    +0.000 A 
ATOM      6  C   UNL     1       3.754   2.377  17.784  0.00  0.00    +0.000 A 
ATOM      7  C   UNL     1       3.480   3.363  18.755  0.00  0.00    +0.000 A 
ATOM      8  C   UNL     1       3.647   4.744  18.505  0.00  0.00    +0.000 A 
ATOM      9  C   UNL     1       5.382   4.714  15.330  0.00  0.00    +0.000 C 
ATOM     10  O   UNL     1       5.839   4.113  14.369  0.00  0.00    +0.000 OA
ENDROOT
BRANCH   1  15
ATOM     11  C   UNL     1       8.060   7.308  18.342  0.00  0.00    +0.000 A 
ATOM     12  C   UNL     1       8.088   6.182  19.179  0.00  0.00    +0.000 A 
ATOM     13  C   UNL     1       7.802   4.919  18.670  0.00  0.00    +0.000 A 
ATOM     14  C   UNL     1       7.355   4.785  17.360  0.00  0.00    +0.000 A 
ATOM     15  C   UNL     1       7.029   5.940  16.634  0.00  0.00    +0.000 A 
ATOM     16  C   UNL     1       7.546   7.172  17.048  0.00  0.00    +0.000 A 
BRANCH  11  17
ATOM     17  C   UNL     1       8.453   8.669  18.865  0.00  0.00    +0.000 C 
BRANCH  17  18
ATOM     18  C   UNL     1       8.408   9.737  17.766  0.00  0.00    +0.000 C 
BRANCH  18  24
ATOM     19  C   UNL     1       7.539  12.670  17.141  0.00  0.00    +0.000 C 
ATOM     20  N   UNL     1       8.714  12.258  17.861  0.00  0.00    +0.000 N 
ATOM     21  C   UNL     1       9.665  13.088  18.368  0.00  0.00    +0.000 A 
ATOM     22  N   UNL     1      10.594  12.381  18.964  0.00  0.00    +0.000 NA
ATOM     23  N   UNL     1      10.251  11.057  18.837  0.00  0.00    +0.000 NA
ATOM     24  C   UNL     1       9.114  10.982  18.168  0.00  0.00    +0.000 A 
ENDBRANCH  18  24
ENDBRANCH  17  18
ENDBRANCH  11  17
ENDBRANCH   1  15
BRANCH   8  25
ATOM     25  C   UNL     1       3.410   5.725  19.623  0.00  0.00    +0.000 C 
ATOM     26  F   UNL     1       2.569   6.746  19.303  0.00  0.00    +0.000 F 
ATOM     27  F   UNL     1       2.860   5.129  20.717  0.00  0.00    +0.000 F 
ATOM     28  F   UNL     1       4.560   6.311  20.058  0.00  0.00    +0.000 F 
ENDBRANCH   8  25
BRANCH   6  29
ATOM     29  N   UNL     1       3.788   1.028  18.159  0.00  0.00    +0.000 N 
ATOM     30  H   UNL     1       4.148   0.405  17.442  0.00  0.00    +0.000 HD
ATOM     31  H   UNL     1       2.928   0.680  18.573  0.00  0.00    +0.000 HD
ENDBRANCH   6  29
TORSDOF 6
ENDMDL
MODEL 5
REMARK VINA RESULT:      -8.3      0.780      1.447
REMARK  Name = 
REMARK  7 active torsions:
REMARK  status: ('A' for Active; 'I' for Inactive)
REMARK    1  A    between atoms: C_1  and  N_2
REMARK    2  A    between atoms: C_6  and  C_7
REMARK    3  A    between atoms: C_7  and  C_8
REMARK    4  A    between atoms: C_8  and  C_9
REMARK    5  A    between atoms: C_13  and  N_14
REMARK    6  A    between atoms: C_19  and  N_20
REMARK    7  A    between atoms: C_22  and  C_23
REMARK                            x       y       z     vdW  Elec       q    Type
REMARK                         _______ _______ _______ _____ _____    ______ ____
ROOT
ATOM      1  N   UNL     1       4.027   4.571  19.241  0.00  0.00    +0.000 N 
ATOM      2  C   UNL     1       5.364   5.210  19.338  0.00  0.00    +0.000 C 
ATOM      3  C   UNL     1       5.911   5.013  17.956  0.00  0.00    +0.000 A 
ATOM      4  C   UNL     1       5.296   3.876  17.420  0.00  0.00    +0.000 A 
ATOM      5  C   UNL     1       5.420   3.506  16.096  0.00  0.00    +0.000 A 
ATOM      6  C   UNL     1       6.214   4.298  15.266  0.00  0.00    +0.000 A 
ATOM      7  C   UNL     1       6.799   5.470  15.788  0.00  0.00    +0.000 A 
ATOM      8  C   UNL     1       6.675   5.844  17.146  0.00  0.00    +0.000 A 
ATOM      9  C   UNL     1       4.188   3.498  18.331  0.00  0.00    +0.000 C 
ATOM     10  O   UNL     1       3.457   2.535  18.151  0.00  0.00    +0.000 OA
ENDROOT
BRANCH   1  15
ATOM     11  C   UNL     1       2.056   7.545  19.865  0.00  0.00    +0.000 A 
ATOM     12  C   UNL     1       2.502   8.281  18.756  0.00  0.00    +0.000 A 
ATOM     13  C   UNL     1       2.993   7.628  17.629  0.00  0.00    +0.000 A 
ATOM     14  C   UNL     1       3.172   6.250  17.650  0.00  0.00    +0.000 A 
ATOM     15  C   UNL     1       3.024   5.565  18.866  0.00  0.00    +0.000 A 
ATOM     16  C   UNL     1       2.302   6.168  19.902  0.00  0.00    +0.000 A 
BRANCH  11  17
ATOM     17  C   UNL     1       1.441   8.239  21.057  0.00  0.00    +0.000 C 
BRANCH  17  18
ATOM     18  C   UNL     1       0.151   8.978  20.685  0.00  0.00    +0.000 C 
BRANCH  18  24
ATOM     19  C   UNL     1      -1.017  10.655  23.045  0.00  0.00    +0.000 C 
ATOM     20  N   UNL     1      -0.270  11.156  21.923  0.00  0.00    +0.000 N 
ATOM     21  C   UNL     1       0.028  12.463  21.689  0.00  0.00    +0.000 A 
ATOM     22  N   UNL     1       0.721  12.565  20.580  0.00  0.00    +0.000 NA
ATOM     23  N   UNL     1       0.873  11.299  20.070  0.00  0.00    +0.000 NA
ATOM     24  C   UNL     1       0.271  10.447  20.882  0.00  0.00    +0.000 A 
ENDBRANCH  18  24
ENDBRANCH  17  18
ENDBRANCH  11  17
ENDBRANCH   1  15
BRANCH   8  25
ATOM     25  C   UNL     1       7.261   7.154  17.602  0.00  0.00    +0.000 C 
ATOM     26  F   UNL     1       6.339   8.123  17.853  0.00  0.00    +0.000 F 
ATOM     27  F   UNL     1       7.973   7.020  18.756  0.00  0.00    +0.000 F 
ATOM     28  F   UNL     1       8.124   7.686  16.693  0.00  0.00    +0.000 F 
ENDBRANCH   8  25
BRANCH   6  29
ATOM     29  N   UNL     1       6.179   4.100  13.880  0.00  0.00    +0.000 N 
ATOM     30  H   UNL     1       5.847   4.903  13.353  0.00  0.00    +0.000 HD
ATOM     31  H   UNL     1       5.735   3.236  13.584  0.00  0.00    +0.000 HD
ENDBRANCH   6  29
TORSDOF 6
ENDMDL
MODEL 6
REMARK VINA RESULT:      -8.2      4.082      6.295
REMARK  Name = 
REMARK  7 active torsions:
REMARK  status: ('A' for Active; 'I' for Inactive)
REMARK    1  A    between atoms: C_1  and  N_2
REMARK    2  A    between atoms: C_6  and  C_7
REMARK    3  A    between atoms: C_7  and  C_8
REMARK    4  A    between atoms: C_8  and  C_9
REMARK    5  A    between atoms: C_13  and  N_14
REMARK    6  A    between atoms: C_19  and  N_20
REMARK    7  A    between atoms: C_22  and  C_23
REMARK                            x       y       z     vdW  Elec       q    Type
REMARK                         _______ _______ _______ _____ _____    ______ ____
ROOT
ATOM      1  N   UNL     1       6.086   5.434  15.561  0.00  0.00    +0.000 N 
ATOM      2  C   UNL     1       4.904   6.291  15.835  0.00  0.00    +0.000 C 
ATOM      3  C   UNL     1       4.136   5.465  16.822  0.00  0.00    +0.000 A 
ATOM      4  C   UNL     1       4.466   4.124  16.594  0.00  0.00    +0.000 A 
ATOM      5  C   UNL     1       4.089   3.101  17.440  0.00  0.00    +0.000 A 
ATOM      6  C   UNL     1       3.327   3.427  18.562  0.00  0.00    +0.000 A 
ATOM      7  C   UNL     1       3.030   4.780  18.823  0.00  0.00    +0.000 A 
ATOM      8  C   UNL     1       3.412   5.826  17.952  0.00  0.00    +0.000 A 
ATOM      9  C   UNL     1       5.616   4.102  15.657  0.00  0.00    +0.000 C 
ATOM     10  O   UNL     1       6.140   3.077  15.247  0.00  0.00    +0.000 OA
ENDROOT
BRANCH   1  15
ATOM     11  C   UNL     1       7.763   7.667  17.868  0.00  0.00    +0.000 A 
ATOM     12  C   UNL     1       7.757   6.804  18.974  0.00  0.00    +0.000 A 
ATOM     13  C   UNL     1       7.687   5.426  18.793  0.00  0.00    +0.000 A 
ATOM     14  C   UNL     1       7.485   4.905  17.521  0.00  0.00    +0.000 A 
ATOM     15  C   UNL     1       7.176   5.781  16.470  0.00  0.00    +0.000 A 
ATOM     16  C   UNL     1       7.493   7.138  16.601  0.00  0.00    +0.000 A 
BRANCH  11  17
ATOM     17  C   UNL     1       7.927   9.157  18.049  0.00  0.00    +0.000 C 
BRANCH  17  18
ATOM     18  C   UNL     1       9.276   9.511  18.686  0.00  0.00    +0.000 C 
BRANCH  18  24
ATOM     19  C   UNL     1       9.252  12.475  17.708  0.00  0.00    +0.000 C 
ATOM     20  N   UNL     1       9.201  12.021  19.072  0.00  0.00    +0.000 N 
ATOM     21  C   UNL     1       9.164  12.819  20.173  0.00  0.00    +0.000 A 
ATOM     22  N   UNL     1       9.122  12.077  21.253  0.00  0.00    +0.000 NA
ATOM     23  N   UNL     1       9.142  10.763  20.853  0.00  0.00    +0.000 NA
ATOM     24  C   UNL     1       9.192  10.729  19.533  0.00  0.00    +0.000 A 
ENDBRANCH  18  24
ENDBRANCH  17  18
ENDBRANCH  11  17
ENDBRANCH   1  15
BRANCH   8  25
ATOM     25  C   UNL     1       3.127   7.250  18.347  0.00  0.00    +0.000 C 
ATOM     26  F   UNL     1       2.858   7.421  19.670  0.00  0.00    +0.000 F 
ATOM     27  F   UNL     1       4.179   8.074  18.080  0.00  0.00    +0.000 F 
ATOM     28  F   UNL     1       2.064   7.776  17.679  0.00  0.00    +0.000 F 
ENDBRANCH   8  25
BRANCH   6  29
ATOM     29  N   UNL     1       3.125   2.468  19.564  0.00  0.00    +0.000 N 
ATOM     30  H   UNL     1       3.035   2.856  20.499  0.00  0.00    +0.000 HD
ATOM     31  H   UNL     1       3.765   1.680  19.535  0.00  0.00    +0.000 HD
ENDBRANCH   6  29
TORSDOF 6
ENDMDL
MODEL 7
REMARK VINA RESULT:      -8.2      3.698      7.711
REMARK  Name = 
REMARK  7 active torsions:
REMARK  status: ('A' for Active; 'I' for Inactive)
REMARK    1  A    between atoms: C_1  and  N_2
REMARK    2  A    between atoms: C_6  and  C_7
REMARK    3  A    between atoms: C_7  and  C_8
REMARK    4  A    between atoms: C_8  and  C_9
REMARK    5  A    between atoms: C_13  and  N_14
REMARK    6  A    between atoms: C_19  and  N_20
REMARK    7  A    between atoms: C_22  and  C_23
REMARK                            x       y       z     vdW  Elec       q    Type
REMARK                         _______ _______ _______ _____ _____    ______ ____
ROOT
ATOM      1  N   UNL     1       2.617   7.201  19.384  0.00  0.00    +0.000 N 
ATOM      2  C   UNL     1       2.280   8.003  20.588  0.00  0.00    +0.000 C 
ATOM      3  C   UNL     1       1.269   8.971  20.050  0.00  0.00    +0.000 A 
ATOM      4  C   UNL     1       1.529   9.132  18.684  0.00  0.00    +0.000 A 
ATOM      5  C   UNL     1       0.679   9.807  17.831  0.00  0.00    +0.000 A 
ATOM      6  C   UNL     1      -0.481  10.367  18.368  0.00  0.00    +0.000 A 
ATOM      7  C   UNL     1      -0.772  10.168  19.733  0.00  0.00    +0.000 A 
ATOM      8  C   UNL     1       0.103   9.482  20.607  0.00  0.00    +0.000 A 
ATOM      9  C   UNL     1       2.516   8.098  18.293  0.00  0.00    +0.000 C 
ATOM     10  O   UNL     1       2.962   7.975  17.162  0.00  0.00    +0.000 OA
ENDROOT
BRANCH   1  15
ATOM     11  C   UNL     1       1.956   3.746  18.519  0.00  0.00    +0.000 A 
ATOM     12  C   UNL     1       1.635   3.305  19.812  0.00  0.00    +0.000 A 
ATOM     13  C   UNL     1       1.163   4.203  20.766  0.00  0.00    +0.000 A 
ATOM     14  C   UNL     1       1.137   5.563  20.483  0.00  0.00    +0.000 A 
ATOM     15  C   UNL     1       1.754   6.024  19.310  0.00  0.00    +0.000 A 
ATOM     16  C   UNL     1       1.990   5.122  18.267  0.00  0.00    +0.000 A 
BRANCH  11  17
ATOM     17  C   UNL     1       2.386   2.767  17.453  0.00  0.00    +0.000 C 
BRANCH  17  18
ATOM     18  C   UNL     1       3.789   2.211  17.720  0.00  0.00    +0.000 C 
BRANCH  18  24
ATOM     19  C   UNL     1       5.187   4.236  15.799  0.00  0.00    +0.000 C 
ATOM     20  N   UNL     1       5.362   4.144  17.223  0.00  0.00    +0.000 N 
ATOM     21  C   UNL     1       6.198   4.915  17.971  0.00  0.00    +0.000 A 
ATOM     22  N   UNL     1       6.108   4.565  19.232  0.00  0.00    +0.000 NA
ATOM     23  N   UNL     1       5.201   3.537  19.312  0.00  0.00    +0.000 NA
ATOM     24  C   UNL     1       4.751   3.280  18.096  0.00  0.00    +0.000 A 
ENDBRANCH  18  24
ENDBRANCH  17  18
ENDBRANCH  11  17
ENDBRANCH   1  15
BRANCH   8  25
ATOM     25  C   UNL     1      -0.322   9.242  22.031  0.00  0.00    +0.000 C 
ATOM     26  F   UNL     1       0.702   9.236  22.928  0.00  0.00    +0.000 F 
ATOM     27  F   UNL     1      -1.188  10.197  22.473  0.00  0.00    +0.000 F 
ATOM     28  F   UNL     1      -0.966   8.054  22.192  0.00  0.00    +0.000 F 
ENDBRANCH   8  25
BRANCH   6  29
ATOM     29  N   UNL     1      -1.478  10.849  17.511  0.00  0.00    +0.000 N 
ATOM     30  H   UNL     1      -1.169  11.586  16.884  0.00  0.00    +0.000 HD
ATOM     31  H   UNL     1      -2.357  11.076  17.966  0.00  0.00    +0.000 HD
ENDBRANCH   6  29
TORSDOF 6
ENDMDL
MODEL 8
REMARK VINA RESULT:      -8.2      4.542      6.648
REMARK  Name = 
REMARK  7 active torsions:
REMARK  status: ('A' for Active; 'I' for Inactive)
REMARK    1  A    between atoms: C_1  and  N_2
REMARK    2  A    between atoms: C_6  and  C_7
REMARK    3  A    between atoms: C_7  and  C_8
REMARK    4  A    between atoms: C_8  and  C_9
REMARK    5  A    between atoms: C_13  and  N_14
REMARK    6  A    between atoms: C_19  and  N_20
REMARK    7  A    between atoms: C_22  and  C_23
REMARK                            x       y       z     vdW  Elec       q    Type
REMARK                         _______ _______ _______ _____ _____    ______ ____
ROOT
ATOM      1  N   UNL     1       5.633   5.679  15.755  0.00  0.00    +0.000 N 
ATOM      2  C   UNL     1       4.460   6.110  16.557  0.00  0.00    +0.000 C 
ATOM      3  C   UNL     1       4.059   4.837  17.240  0.00  0.00    +0.000 A 
ATOM      4  C   UNL     1       4.483   3.776  16.432  0.00  0.00    +0.000 A 
ATOM      5  C   UNL     1       4.449   2.457  16.841  0.00  0.00    +0.000 A 
ATOM      6  C   UNL     1       3.949   2.178  18.113  0.00  0.00    +0.000 A 
ATOM      7  C   UNL     1       3.564   3.246  18.950  0.00  0.00    +0.000 A 
ATOM      8  C   UNL     1       3.594   4.594  18.527  0.00  0.00    +0.000 A 
ATOM      9  C   UNL     1       5.364   4.340  15.382  0.00  0.00    +0.000 C 
ATOM     10  O   UNL     1       5.893   3.672  14.505  0.00  0.00    +0.000 OA
ENDROOT
BRANCH   1  15
ATOM     11  C   UNL     1       7.872   7.688  17.774  0.00  0.00    +0.000 A 
ATOM     12  C   UNL     1       7.876   6.855  18.904  0.00  0.00    +0.000 A 
ATOM     13  C   UNL     1       7.591   5.499  18.780  0.00  0.00    +0.000 A 
ATOM     14  C   UNL     1       7.168   4.989  17.558  0.00  0.00    +0.000 A 
ATOM     15  C   UNL     1       6.862   5.882  16.520  0.00  0.00    +0.000 A 
ATOM     16  C   UNL     1       7.380   7.181  16.566  0.00  0.00    +0.000 A 
BRANCH  11  17
ATOM     17  C   UNL     1       8.264   9.142  17.884  0.00  0.00    +0.000 C 
BRANCH  17  18
ATOM     18  C   UNL     1       8.989   9.441  19.201  0.00  0.00    +0.000 C 
BRANCH  18  24
ATOM     19  C   UNL     1       8.968  11.553  21.500  0.00  0.00    +0.000 C 
ATOM     20  N   UNL     1       9.596  11.691  20.213  0.00  0.00    +0.000 N 
ATOM     21  C   UNL     1      10.266  12.789  19.771  0.00  0.00    +0.000 A 
ATOM     22  N   UNL     1      10.711  12.574  18.556  0.00  0.00    +0.000 NA
ATOM     23  N   UNL     1      10.316  11.311  18.189  0.00  0.00    +0.000 NA
ATOM     24  C   UNL     1       9.639  10.777  19.191  0.00  0.00    +0.000 A 
ENDBRANCH  18  24
ENDBRANCH  17  18
ENDBRANCH  11  17
ENDBRANCH   1  15
BRANCH   8  25
ATOM     25  C   UNL     1       3.245   5.679  19.512  0.00  0.00    +0.000 C 
ATOM     26  F   UNL     1       2.791   5.222  20.711  0.00  0.00    +0.000 F 
ATOM     27  F   UNL     1       4.317   6.467  19.805  0.00  0.00    +0.000 F 
ATOM     28  F   UNL     1       2.282   6.520  19.044  0.00  0.00    +0.000 F 
ENDBRANCH   8  25
BRANCH   6  29
ATOM     29  N   UNL     1       4.113   0.898  18.656  0.00  0.00    +0.000 N 
ATOM     30  H   UNL     1       3.246   0.381  18.775  0.00  0.00    +0.000 HD
ATOM     31  H   UNL     1       4.700   0.858  19.484  0.00  0.00    +0.000 HD
ENDBRANCH   6  29
TORSDOF 6
ENDMDL
MODEL 9
REMARK VINA RESULT:      -7.9      6.873      9.419
REMARK  Name = 
REMARK  7 active torsions:
REMARK  status: ('A' for Active; 'I' for Inactive)
REMARK    1  A    between atoms: C_1  and  N_2
REMARK    2  A    between atoms: C_6  and  C_7
REMARK    3  A    between atoms: C_7  and  C_8
REMARK    4  A    between atoms: C_8  and  C_9
REMARK    5  A    between atoms: C_13  and  N_14
REMARK    6  A    between atoms: C_19  and  N_20
REMARK    7  A    between atoms: C_22  and  C_23
REMARK                            x       y       z     vdW  Elec       q    Type
REMARK                         _______ _______ _______ _____ _____    ______ ____
ROOT
ATOM      1  N   UNL     1      -0.342  11.424  18.523  0.00  0.00    +0.000 N 
ATOM      2  C   UNL     1       0.439  10.673  19.539  0.00  0.00    +0.000 C 
ATOM      3  C   UNL     1      -0.025  11.299  20.820  0.00  0.00    +0.000 A 
ATOM      4  C   UNL     1      -0.439  12.603  20.525  0.00  0.00    +0.000 A 
ATOM      5  C   UNL     1      -1.101  13.407  21.430  0.00  0.00    +0.000 A 
ATOM      6  C   UNL     1      -1.347  12.894  22.704  0.00  0.00    +0.000 A 
ATOM      7  C   UNL     1      -0.976  11.565  22.994  0.00  0.00    +0.000 A 
ATOM      8  C   UNL     1      -0.292  10.745  22.067  0.00  0.00    +0.000 A 
ATOM      9  C   UNL     1      -0.486  12.731  19.048  0.00  0.00    +0.000 C 
ATOM     10  O   UNL     1      -0.801  13.757  18.463  0.00  0.00    +0.000 OA
ENDROOT
BRANCH   1  15
ATOM     11  C   UNL     1      -3.890  11.339  17.798  0.00  0.00    +0.000 A 
ATOM     12  C   UNL     1      -3.796  10.680  16.563  0.00  0.00    +0.000 A 
ATOM     13  C   UNL     1      -2.700   9.871  16.278  0.00  0.00    +0.000 A 
ATOM     14  C   UNL     1      -1.629   9.820  17.162  0.00  0.00    +0.000 A 
ATOM     15  C   UNL     1      -1.592  10.723  18.236  0.00  0.00    +0.000 A 
ATOM     16  C   UNL     1      -2.780  11.335  18.649  0.00  0.00    +0.000 A 
BRANCH  11  17
ATOM     17  C   UNL     1      -5.115  12.149  18.151  0.00  0.00    +0.000 C 
BRANCH  17  18
ATOM     18  C   UNL     1      -6.385  11.291  18.159  0.00  0.00    +0.000 C 
BRANCH  18  24
ATOM     19  C   UNL     1      -7.796  13.547  19.791  0.00  0.00    +0.000 C 
ATOM     20  N   UNL     1      -7.571  12.192  20.217  0.00  0.00    +0.000 N 
ATOM     21  C   UNL     1      -7.914  11.674  21.428  0.00  0.00    +0.000 A 
ATOM     22  N   UNL     1      -7.564  10.411  21.481  0.00  0.00    +0.000 NA
ATOM     23  N   UNL     1      -6.970  10.096  20.284  0.00  0.00    +0.000 NA
ATOM     24  C   UNL     1      -6.972  11.174  19.519  0.00  0.00    +0.000 A 
ENDBRANCH  18  24
ENDBRANCH  17  18
ENDBRANCH  11  17
ENDBRANCH   1  15
BRANCH   8  25
ATOM     25  C   UNL     1      -0.006   9.312  22.427  0.00  0.00    +0.000 C 
ATOM     26  F   UNL     1      -0.134   9.032  23.753  0.00  0.00    +0.000 F 
ATOM     27  F   UNL     1      -0.844   8.448  21.790  0.00  0.00    +0.000 F 
ATOM     28  F   UNL     1       1.254   8.928  22.085  0.00  0.00    +0.000 F 
ENDBRANCH   8  25
BRANCH   6  29
ATOM     29  N   UNL     1      -2.214  13.574  23.569  0.00  0.00    +0.000 N 
ATOM     30  H   UNL     1      -2.373  13.103  24.455  0.00  0.00    +0.000 HD
ATOM     31  H   UNL     1      -3.080  13.891  23.142  0.00  0.00    +0.000 HD
ENDBRANCH   6  29
TORSDOF 6
ENDMDL
