MODEL 1
REMARK VINA RESULT:      -8.7      0.000      0.000
REMARK  Name = 
REMARK  6 active torsions:
REMARK  status: ('A' for Active; 'I' for Inactive)
REMARK    1  A    between atoms: C_2  and  C_4
REMARK    2  A    between atoms: C_8  and  O_9
REMARK    3  A    between atoms: O_9  and  C_10
REMARK    4  A    between atoms: C_13  and  N_14
REMARK    5  A    between atoms: N_17  and  C_18
REMARK    6  A    between atoms: C_18  and  C_19
REMARK                            x       y       z     vdW  Elec       q    Type
REMARK                         _______ _______ _______ _____ _____    ______ ____
ROOT
ATOM      1  C   UNL     1       5.027   5.073  16.752  0.00  0.00    +0.000 A 
ATOM      2  C   UNL     1       5.111   6.452  16.589  0.00  0.00    +0.000 A 
ATOM      3  C   UNL     1       4.195   7.290  17.218  0.00  0.00    +0.000 A 
ATOM      4  C   UNL     1       3.137   6.778  17.962  0.00  0.00    +0.000 A 
ATOM      5  C   UNL     1       2.968   5.385  18.005  0.00  0.00    +0.000 A 
ATOM      6  C   UNL     1       3.914   4.536  17.401  0.00  0.00    +0.000 A 
ENDROOT
BRANCH   4   7
ATOM      7  N   UNL     1       2.244   7.599  18.692  0.00  0.00    +0.000 N 
ATOM      8  C   UNL     1       1.787   8.836  18.287  0.00  0.00    +0.000 C 
ATOM      9  O   UNL     1       2.038   9.404  17.232  0.00  0.00    +0.000 OA
ATOM     10  N   UNL     1       0.964   9.430  19.213  0.00  0.00    +0.000 N 
ATOM     11  H   UNL     1       1.987   7.289  19.611  0.00  0.00    +0.000 HD
ATOM     12  H   UNL     1       0.729   8.957  20.070  0.00  0.00    +0.000 HD
BRANCH  10  13
ATOM     13  C   UNL     1       0.389  10.736  18.943  0.00  0.00    +0.000 C 
BRANCH  13  14
ATOM     14  C   UNL     1      -1.109  10.817  19.290  0.00  0.00    +0.000 C 
ATOM     15  C   UNL     1      -1.640  12.242  19.201  0.00  0.00    +0.000 C 
ATOM     16  N   UNL     1      -1.920  12.397  17.804  0.00  0.00    +0.000 N 
ATOM     17  C   UNL     1      -2.127  11.181  17.181  0.00  0.00    +0.000 C 
ATOM     18  O   UNL     1      -2.435  11.032  16.013  0.00  0.00    +0.000 OA
ATOM     19  C   UNL     1      -1.937  10.097  18.213  0.00  0.00    +0.000 C 
ATOM     20  H   UNL     1      -2.086  13.269  17.316  0.00  0.00    +0.000 HD
ENDBRANCH  13  14
ENDBRANCH  10  13
ENDBRANCH   4   7
BRANCH   1  21
ATOM     21  O   UNL     1       5.986   4.197  16.286  0.00  0.00    +0.000 OA
BRANCH  21  26
ATOM     22  C   UNL     1       6.046   3.533  12.686  0.00  0.00    +0.000 A 
ATOM     23  C   UNL     1       7.040   4.415  12.240  0.00  0.00    +0.000 A 
ATOM     24  C   UNL     1       7.743   5.188  13.158  0.00  0.00    +0.000 A 
ATOM     25  C   UNL     1       7.450   5.090  14.518  0.00  0.00    +0.000 A 
ATOM     26  C   UNL     1       6.394   4.282  14.964  0.00  0.00    +0.000 A 
ATOM     27  C   UNL     1       5.711   3.481  14.047  0.00  0.00    +0.000 A 
BRANCH  22  29
ATOM     28  N   UNL     1       5.893   1.462  11.421  0.00  0.00    +0.000 N 
ATOM     29  C   UNL     1       5.314   2.665  11.732  0.00  0.00    +0.000 C 
ATOM     30  O   UNL     1       4.228   2.982  11.267  0.00  0.00    +0.000 OA
ATOM     31  H   UNL     1       5.352   0.839  10.838  0.00  0.00    +0.000 HD
ATOM     32  H   UNL     1       6.659   1.066  11.947  0.00  0.00    +0.000 HD
ENDBRANCH  22  29
ENDBRANCH  21  26
ENDBRANCH   1  21
TORSDOF 6
ENDMDL
MODEL 2
REMARK VINA RESULT:      -8.7      2.648      3.644
REMARK  Name = 
REMARK  6 active torsions:
REMARK  status: ('A' for Active; 'I' for Inactive)
REMARK    1  A    between atoms: C_2  and  C_4
REMARK    2  A    between atoms: C_8  and  O_9
REMARK    3  A    between atoms: O_9  and  C_10
REMARK    4  A    between atoms: C_13  and  N_14
REMARK    5  A    between atoms: N_17  and  C_18
REMARK    6  A    between atoms: C_18  and  C_19
REMARK                            x       y       z     vdW  Elec       q    Type
REMARK                         _______ _______ _______ _____ _____    ______ ____
ROOT
ATOM      1  C   UNL     1       2.715   5.513  18.538  0.00  0.00    +0.000 A 
ATOM      2  C   UNL     1       2.644   6.871  18.243  0.00  0.00    +0.000 A 
ATOM      3  C   UNL     1       2.226   7.779  19.211  0.00  0.00    +0.000 A 
ATOM      4  C   UNL     1       1.803   7.356  20.466  0.00  0.00    +0.000 A 
ATOM      5  C   UNL     1       1.736   5.976  20.715  0.00  0.00    +0.000 A 
ATOM      6  C   UNL     1       2.192   5.058  19.750  0.00  0.00    +0.000 A 
ENDROOT
BRANCH   4   7
ATOM      7  N   UNL     1       1.462   8.256  21.506  0.00  0.00    +0.000 N 
ATOM      8  C   UNL     1       0.267   8.936  21.610  0.00  0.00    +0.000 C 
ATOM      9  O   UNL     1      -0.698   8.848  20.861  0.00  0.00    +0.000 OA
ATOM     10  N   UNL     1       0.224   9.776  22.696  0.00  0.00    +0.000 N 
ATOM     11  H   UNL     1       2.179   8.473  22.174  0.00  0.00    +0.000 HD
ATOM     12  H   UNL     1       1.002   9.832  23.333  0.00  0.00    +0.000 HD
BRANCH  10  13
ATOM     13  C   UNL     1      -0.966  10.565  22.959  0.00  0.00    +0.000 C 
BRANCH  13  14
ATOM     14  C   UNL     1      -0.787  12.056  22.619  0.00  0.00    +0.000 C 
ATOM     15  C   UNL     1       0.125  12.262  21.415  0.00  0.00    +0.000 C 
ATOM     16  N   UNL     1      -0.761  12.079  20.303  0.00  0.00    +0.000 N 
ATOM     17  C   UNL     1      -2.079  12.313  20.648  0.00  0.00    +0.000 C 
ATOM     18  O   UNL     1      -3.023  12.281  19.882  0.00  0.00    +0.000 OA
ATOM     19  C   UNL     1      -2.117  12.644  22.120  0.00  0.00    +0.000 C 
ATOM     20  H   UNL     1      -0.494  11.926  19.339  0.00  0.00    +0.000 HD
ENDBRANCH  13  14
ENDBRANCH  10  13
ENDBRANCH   4   7
BRANCH   1  21
ATOM     21  O   UNL     1       3.263   4.580  17.682  0.00  0.00    +0.000 OA
BRANCH  21  26
ATOM     22  C   UNL     1       6.428   4.611  15.840  0.00  0.00    +0.000 A 
ATOM     23  C   UNL     1       7.370   4.683  16.874  0.00  0.00    +0.000 A 
ATOM     24  C   UNL     1       6.948   4.653  18.200  0.00  0.00    +0.000 A 
ATOM     25  C   UNL     1       5.589   4.560  18.494  0.00  0.00    +0.000 A 
ATOM     26  C   UNL     1       4.633   4.583  17.468  0.00  0.00    +0.000 A 
ATOM     27  C   UNL     1       5.056   4.579  16.138  0.00  0.00    +0.000 A 
BRANCH  22  29
ATOM     28  N   UNL     1       6.278   3.652  13.610  0.00  0.00    +0.000 N 
ATOM     29  C   UNL     1       6.855   4.595  14.420  0.00  0.00    +0.000 C 
ATOM     30  O   UNL     1       7.657   5.404  13.975  0.00  0.00    +0.000 OA
ATOM     31  H   UNL     1       6.508   3.700  12.628  0.00  0.00    +0.000 HD
ATOM     32  H   UNL     1       5.457   3.125  13.875  0.00  0.00    +0.000 HD
ENDBRANCH  22  29
ENDBRANCH  21  26
ENDBRANCH   1  21
TORSDOF 6
ENDMDL
MODEL 3
REMARK VINA RESULT:      -8.7      3.111      3.952
REMARK  Name = 
REMARK  6 active torsions:
REMARK  status: ('A' for Active; 'I' for Inactive)
REMARK    1  A    between atoms: C_2  and  C_4
REMARK    2  A    between atoms: C_8  and  O_9
REMARK    3  A    between atoms: O_9  and  C_10
REMARK    4  A    between atoms: C_13  and  N_14
REMARK    5  A    between atoms: N_17  and  C_18
REMARK    6  A    between atoms: C_18  and  C_19
REMARK                            x       y       z     vdW  Elec       q    Type
REMARK                         _______ _______ _______ _____ _____    ______ ____
ROOT
ATOM      1  C   UNL     1       2.728   5.484  18.554  0.00  0.00    +0.000 A 
ATOM      2  C   UNL     1       2.644   6.834  18.228  0.00  0.00    +0.000 A 
ATOM      3  C   UNL     1       2.247   7.763  19.185  0.00  0.00    +0.000 A 
ATOM      4  C   UNL     1       1.858   7.368  20.461  0.00  0.00    +0.000 A 
ATOM      5  C   UNL     1       1.803   5.994  20.743  0.00  0.00    +0.000 A 
ATOM      6  C   UNL     1       2.239   5.056  19.790  0.00  0.00    +0.000 A 
ENDROOT
BRANCH   4   7
ATOM      7  N   UNL     1       1.540   8.291  21.487  0.00  0.00    +0.000 N 
ATOM      8  C   UNL     1       0.295   8.848  21.700  0.00  0.00    +0.000 C 
ATOM      9  O   UNL     1      -0.733   8.612  21.078  0.00  0.00    +0.000 OA
ATOM     10  N   UNL     1       0.284   9.745  22.740  0.00  0.00    +0.000 N 
ATOM     11  H   UNL     1       2.299   8.624  22.052  0.00  0.00    +0.000 HD
ATOM     12  H   UNL     1       1.118   9.922  23.275  0.00  0.00    +0.000 HD
BRANCH  10  13
ATOM     13  C   UNL     1      -0.950  10.420  23.104  0.00  0.00    +0.000 C 
BRANCH  13  14
ATOM     14  C   UNL     1      -0.932  11.924  22.776  0.00  0.00    +0.000 C 
ATOM     15  C   UNL     1      -1.187  12.190  21.298  0.00  0.00    +0.000 C 
ATOM     16  N   UNL     1      -2.616  12.151  21.204  0.00  0.00    +0.000 N 
ATOM     17  C   UNL     1      -3.222  12.420  22.416  0.00  0.00    +0.000 C 
ATOM     18  O   UNL     1      -4.422  12.504  22.601  0.00  0.00    +0.000 OA
ATOM     19  C   UNL     1      -2.131  12.620  23.440  0.00  0.00    +0.000 C 
ATOM     20  H   UNL     1      -3.163  12.071  20.354  0.00  0.00    +0.000 HD
ENDBRANCH  13  14
ENDBRANCH  10  13
ENDBRANCH   4   7
BRANCH   1  21
ATOM     21  O   UNL     1       3.259   4.533  17.706  0.00  0.00    +0.000 OA
BRANCH  21  26
ATOM     22  C   UNL     1       6.367   4.566  15.771  0.00  0.00    +0.000 A 
ATOM     23  C   UNL     1       7.340   4.649  16.776  0.00  0.00    +0.000 A 
ATOM     24  C   UNL     1       6.958   4.626  18.113  0.00  0.00    +0.000 A 
ATOM     25  C   UNL     1       5.608   4.529  18.449  0.00  0.00    +0.000 A 
ATOM     26  C   UNL     1       4.622   4.541  17.451  0.00  0.00    +0.000 A 
ATOM     27  C   UNL     1       5.006   4.530  16.109  0.00  0.00    +0.000 A 
BRANCH  22  29
ATOM     28  N   UNL     1       7.748   5.400  13.951  0.00  0.00    +0.000 N 
ATOM     29  C   UNL     1       6.752   4.542  14.338  0.00  0.00    +0.000 C 
ATOM     30  O   UNL     1       6.236   3.771  13.541  0.00  0.00    +0.000 OA
ATOM     31  H   UNL     1       8.063   5.320  12.995  0.00  0.00    +0.000 HD
ATOM     32  H   UNL     1       8.349   5.879  14.606  0.00  0.00    +0.000 HD
ENDBRANCH  22  29
ENDBRANCH  21  26
ENDBRANCH   1  21
TORSDOF 6
ENDMDL
MODEL 4
REMARK VINA RESULT:      -8.6      4.948      6.478
REMARK  Name = 
REMARK  6 active torsions:
REMARK  status: ('A' for Active; 'I' for Inactive)
REMARK    1  A    between atoms: C_2  and  C_4
REMARK    2  A    between atoms: C_8  and  O_9
REMARK    3  A    between atoms: O_9  and  C_10
REMARK    4  A    between atoms: C_13  and  N_14
REMARK    5  A    between atoms: N_17  and  C_18
REMARK    6  A    between atoms: C_18  and  C_19
REMARK                            x       y       z     vdW  Elec       q    Type
REMARK                         _______ _______ _______ _____ _____    ______ ____
ROOT
ATOM      1  C   UNL     1       2.111   7.984  19.233  0.00  0.00    +0.000 A 
ATOM      2  C   UNL     1       1.418   8.370  20.376  0.00  0.00    +0.000 A 
ATOM      3  C   UNL     1       0.427   9.344  20.301  0.00  0.00    +0.000 A 
ATOM      4  C   UNL     1       0.151  10.006  19.109  0.00  0.00    +0.000 A 
ATOM      5  C   UNL     1       0.950   9.720  17.990  0.00  0.00    +0.000 A 
ATOM      6  C   UNL     1       1.927   8.710  18.055  0.00  0.00    +0.000 A 
ENDROOT
BRANCH   4   7
ATOM      7  N   UNL     1      -0.912  10.932  18.973  0.00  0.00    +0.000 N 
ATOM      8  C   UNL     1      -2.094  10.694  18.303  0.00  0.00    +0.000 C 
ATOM      9  O   UNL     1      -2.436   9.650  17.761  0.00  0.00    +0.000 OA
ATOM     10  N   UNL     1      -2.929  11.784  18.292  0.00  0.00    +0.000 N 
ATOM     11  H   UNL     1      -0.757  11.859  19.323  0.00  0.00    +0.000 HD
ATOM     12  H   UNL     1      -2.668  12.636  18.760  0.00  0.00    +0.000 HD
BRANCH  10  13
ATOM     13  C   UNL     1      -4.222  11.704  17.634  0.00  0.00    +0.000 C 
BRANCH  13  14
ATOM     14  C   UNL     1      -5.401  11.710  18.623  0.00  0.00    +0.000 C 
ATOM     15  C   UNL     1      -5.401  12.953  19.505  0.00  0.00    +0.000 C 
ATOM     16  N   UNL     1      -6.042  13.935  18.681  0.00  0.00    +0.000 N 
ATOM     17  C   UNL     1      -6.848  13.356  17.719  0.00  0.00    +0.000 C 
ATOM     18  O   UNL     1      -7.545  13.963  16.927  0.00  0.00    +0.000 OA
ATOM     19  C   UNL     1      -6.727  11.858  17.858  0.00  0.00    +0.000 C 
ATOM     20  H   UNL     1      -6.041  14.937  18.826  0.00  0.00    +0.000 HD
ENDBRANCH  13  14
ENDBRANCH  10  13
ENDBRANCH   4   7
BRANCH   1  21
ATOM     21  O   UNL     1       2.993   6.923  19.206  0.00  0.00    +0.000 OA
BRANCH  21  26
ATOM     22  C   UNL     1       2.047   3.558  20.295  0.00  0.00    +0.000 A 
ATOM     23  C   UNL     1       1.440   3.035  19.146  0.00  0.00    +0.000 A 
ATOM     24  C   UNL     1       1.405   3.789  17.977  0.00  0.00    +0.000 A 
ATOM     25  C   UNL     1       1.969   5.064  17.955  0.00  0.00    +0.000 A 
ATOM     26  C   UNL     1       2.494   5.632  19.125  0.00  0.00    +0.000 A 
ATOM     27  C   UNL     1       2.559   4.864  20.290  0.00  0.00    +0.000 A 
BRANCH  22  29
ATOM     28  N   UNL     1       0.971   2.553  22.231  0.00  0.00    +0.000 N 
ATOM     29  C   UNL     1       2.137   2.757  21.540  0.00  0.00    +0.000 C 
ATOM     30  O   UNL     1       3.191   2.266  21.921  0.00  0.00    +0.000 OA
ATOM     31  H   UNL     1       1.022   1.938  23.030  0.00  0.00    +0.000 HD
ATOM     32  H   UNL     1       0.058   2.739  21.839  0.00  0.00    +0.000 HD
ENDBRANCH  22  29
ENDBRANCH  21  26
ENDBRANCH   1  21
TORSDOF 6
ENDMDL
MODEL 5
REMARK VINA RESULT:      -8.3      5.884      8.585
REMARK  Name = 
REMARK  6 active torsions:
REMARK  status: ('A' for Active; 'I' for Inactive)
REMARK    1  A    between atoms: C_2  and  C_4
REMARK    2  A    between atoms: C_8  and  O_9
REMARK    3  A    between atoms: O_9  and  C_10
REMARK    4  A    between atoms: C_13  and  N_14
REMARK    5  A    between atoms: N_17  and  C_18
REMARK    6  A    between atoms: C_18  and  C_19
REMARK                            x       y       z     vdW  Elec       q    Type
REMARK                         _______ _______ _______ _____ _____    ______ ____
ROOT
ATOM      1  C   UNL     1       5.535   4.926  16.860  0.00  0.00    +0.000 A 
ATOM      2  C   UNL     1       6.844   4.547  17.139  0.00  0.00    +0.000 A 
ATOM      3  C   UNL     1       7.750   5.474  17.646  0.00  0.00    +0.000 A 
ATOM      4  C   UNL     1       7.400   6.809  17.820  0.00  0.00    +0.000 A 
ATOM      5  C   UNL     1       6.125   7.221  17.401  0.00  0.00    +0.000 A 
ATOM      6  C   UNL     1       5.196   6.279  16.922  0.00  0.00    +0.000 A 
ENDROOT
BRANCH   4   7
ATOM      7  N   UNL     1       8.263   7.757  18.421  0.00  0.00    +0.000 N 
ATOM      8  C   UNL     1       8.283   9.107  18.138  0.00  0.00    +0.000 C 
ATOM      9  O   UNL     1       7.546   9.709  17.367  0.00  0.00    +0.000 OA
ATOM     10  N   UNL     1       9.252   9.784  18.838  0.00  0.00    +0.000 N 
ATOM     11  H   UNL     1       8.967   7.404  19.043  0.00  0.00    +0.000 HD
ATOM     12  H   UNL     1       9.842   9.302  19.496  0.00  0.00    +0.000 HD
BRANCH  10  13
ATOM     13  C   UNL     1       9.407  11.218  18.664  0.00  0.00    +0.000 C 
BRANCH  13  14
ATOM     14  C   UNL     1      10.686  11.768  19.320  0.00  0.00    +0.000 C 
ATOM     15  C   UNL     1      11.946  11.274  18.621  0.00  0.00    +0.000 C 
ATOM     16  N   UNL     1      12.081  12.180  17.519  0.00  0.00    +0.000 N 
ATOM     17  C   UNL     1      11.439  13.381  17.755  0.00  0.00    +0.000 C 
ATOM     18  O   UNL     1      11.445  14.341  17.007  0.00  0.00    +0.000 OA
ATOM     19  C   UNL     1      10.774  13.288  19.106  0.00  0.00    +0.000 C 
ATOM     20  H   UNL     1      12.670  12.054  16.704  0.00  0.00    +0.000 HD
ENDBRANCH  13  14
ENDBRANCH  10  13
ENDBRANCH   4   7
BRANCH   1  21
ATOM     21  O   UNL     1       4.548   4.030  16.502  0.00  0.00    +0.000 OA
BRANCH  21  26
ATOM     22  C   UNL     1       3.127   2.818  19.652  0.00  0.00    +0.000 A 
ATOM     23  C   UNL     1       1.755   3.022  19.455  0.00  0.00    +0.000 A 
ATOM     24  C   UNL     1       1.295   3.506  18.234  0.00  0.00    +0.000 A 
ATOM     25  C   UNL     1       2.201   3.794  17.214  0.00  0.00    +0.000 A 
ATOM     26  C   UNL     1       3.582   3.683  17.435  0.00  0.00    +0.000 A 
ATOM     27  C   UNL     1       4.043   3.166  18.647  0.00  0.00    +0.000 A 
BRANCH  22  29
ATOM     28  N   UNL     1       4.899   1.723  20.908  0.00  0.00    +0.000 N 
ATOM     29  C   UNL     1       3.638   2.261  20.928  0.00  0.00    +0.000 C 
ATOM     30  O   UNL     1       2.987   2.306  21.962  0.00  0.00    +0.000 OA
ATOM     31  H   UNL     1       5.274   1.422  21.796  0.00  0.00    +0.000 HD
ATOM     32  H   UNL     1       5.548   1.870  20.148  0.00  0.00    +0.000 HD
ENDBRANCH  22  29
ENDBRANCH  21  26
ENDBRANCH   1  21
TORSDOF 6
ENDMDL
MODEL 6
REMARK VINA RESULT:      -8.3      3.393      4.464
REMARK  Name = 
REMARK  6 active torsions:
REMARK  status: ('A' for Active; 'I' for Inactive)
REMARK    1  A    between atoms: C_2  and  C_4
REMARK    2  A    between atoms: C_8  and  O_9
REMARK    3  A    between atoms: O_9  and  C_10
REMARK    4  A    between atoms: C_13  and  N_14
REMARK    5  A    between atoms: N_17  and  C_18
REMARK    6  A    between atoms: C_18  and  C_19
REMARK                            x       y       z     vdW  Elec       q    Type
REMARK                         _______ _______ _______ _____ _____    ______ ____
ROOT
ATOM      1  C   UNL     1       2.750   5.889  18.804  0.00  0.00    +0.000 A 
ATOM      2  C   UNL     1       2.624   7.061  18.065  0.00  0.00    +0.000 A 
ATOM      3  C   UNL     1       2.114   8.213  18.657  0.00  0.00    +0.000 A 
ATOM      4  C   UNL     1       1.652   8.209  19.970  0.00  0.00    +0.000 A 
ATOM      5  C   UNL     1       1.645   6.991  20.668  0.00  0.00    +0.000 A 
ATOM      6  C   UNL     1       2.194   5.835  20.084  0.00  0.00    +0.000 A 
ENDROOT
BRANCH   4   7
ATOM      7  N   UNL     1       1.216   9.382  20.634  0.00  0.00    +0.000 N 
ATOM      8  C   UNL     1       0.096   9.474  21.433  0.00  0.00    +0.000 C 
ATOM      9  O   UNL     1      -0.672   8.568  21.732  0.00  0.00    +0.000 OA
ATOM     10  N   UNL     1      -0.112  10.743  21.915  0.00  0.00    +0.000 N 
ATOM     11  H   UNL     1       1.720  10.228  20.442  0.00  0.00    +0.000 HD
ATOM     12  H   UNL     1       0.531  11.487  21.698  0.00  0.00    +0.000 HD
BRANCH  10  13
ATOM     13  C   UNL     1      -1.247  11.016  22.780  0.00  0.00    +0.000 C 
BRANCH  13  14
ATOM     14  C   UNL     1      -1.705  12.484  22.726  0.00  0.00    +0.000 C 
ATOM     15  C   UNL     1      -2.795  12.705  21.686  0.00  0.00    +0.000 C 
ATOM     16  N   UNL     1      -3.989  12.323  22.381  0.00  0.00    +0.000 N 
ATOM     17  C   UNL     1      -3.840  12.416  23.752  0.00  0.00    +0.000 C 
ATOM     18  O   UNL     1      -4.715  12.204  24.571  0.00  0.00    +0.000 OA
ATOM     19  C   UNL     1      -2.425  12.858  24.032  0.00  0.00    +0.000 C 
ATOM     20  H   UNL     1      -4.892  12.127  21.967  0.00  0.00    +0.000 HD
ENDBRANCH  13  14
ENDBRANCH  10  13
ENDBRANCH   4   7
BRANCH   1  21
ATOM     21  O   UNL     1       3.386   4.760  18.329  0.00  0.00    +0.000 OA
BRANCH  21  26
ATOM     22  C   UNL     1       6.491   4.738  16.388  0.00  0.00    +0.000 A 
ATOM     23  C   UNL     1       7.456   4.987  17.372  0.00  0.00    +0.000 A 
ATOM     24  C   UNL     1       7.074   5.096  18.705  0.00  0.00    +0.000 A 
ATOM     25  C   UNL     1       5.731   4.966  19.057  0.00  0.00    +0.000 A 
ATOM     26  C   UNL     1       4.747   4.812  18.069  0.00  0.00    +0.000 A 
ATOM     27  C   UNL     1       5.132   4.668  16.735  0.00  0.00    +0.000 A 
BRANCH  22  29
ATOM     28  N   UNL     1       6.288   3.541  14.280  0.00  0.00    +0.000 N 
ATOM     29  C   UNL     1       6.878   4.571  14.966  0.00  0.00    +0.000 C 
ATOM     30  O   UNL     1       7.658   5.334  14.413  0.00  0.00    +0.000 OA
ATOM     31  H   UNL     1       6.491   3.484  13.292  0.00  0.00    +0.000 HD
ATOM     32  H   UNL     1       5.482   3.041  14.624  0.00  0.00    +0.000 HD
ENDBRANCH  22  29
ENDBRANCH  21  26
ENDBRANCH   1  21
TORSDOF 6
ENDMDL
MODEL 7
REMARK VINA RESULT:      -8.3      3.983      5.277
REMARK  Name = 
REMARK  6 active torsions:
REMARK  status: ('A' for Active; 'I' for Inactive)
REMARK    1  A    between atoms: C_2  and  C_4
REMARK    2  A    between atoms: C_8  and  O_9
REMARK    3  A    between atoms: O_9  and  C_10
REMARK    4  A    between atoms: C_13  and  N_14
REMARK    5  A    between atoms: N_17  and  C_18
REMARK    6  A    between atoms: C_18  and  C_19
REMARK                            x       y       z     vdW  Elec       q    Type
REMARK                         _______ _______ _______ _____ _____    ______ ____
ROOT
ATOM      1  C   UNL     1       2.593   5.759  19.061  0.00  0.00    +0.000 A 
ATOM      2  C   UNL     1       2.511   6.903  18.274  0.00  0.00    +0.000 A 
ATOM      3  C   UNL     1       2.036   8.095  18.814  0.00  0.00    +0.000 A 
ATOM      4  C   UNL     1       1.566   8.161  20.122  0.00  0.00    +0.000 A 
ATOM      5  C   UNL     1       1.514   6.974  20.869  0.00  0.00    +0.000 A 
ATOM      6  C   UNL     1       2.028   5.777  20.338  0.00  0.00    +0.000 A 
ENDROOT
BRANCH   4   7
ATOM      7  N   UNL     1       1.165   9.374  20.734  0.00  0.00    +0.000 N 
ATOM      8  C   UNL     1       0.084   9.520  21.577  0.00  0.00    +0.000 C 
ATOM      9  O   UNL     1      -0.672   8.638  21.965  0.00  0.00    +0.000 OA
ATOM     10  N   UNL     1      -0.098  10.817  21.991  0.00  0.00    +0.000 N 
ATOM     11  H   UNL     1       1.662  10.204  20.468  0.00  0.00    +0.000 HD
ATOM     12  H   UNL     1       0.537  11.543  21.700  0.00  0.00    +0.000 HD
BRANCH  10  13
ATOM     13  C   UNL     1      -1.190  11.148  22.890  0.00  0.00    +0.000 C 
BRANCH  13  14
ATOM     14  C   UNL     1      -1.718  12.580  22.692  0.00  0.00    +0.000 C 
ATOM     15  C   UNL     1      -2.782  12.653  21.604  0.00  0.00    +0.000 C 
ATOM     16  N   UNL     1      -3.978  12.271  22.296  0.00  0.00    +0.000 N 
ATOM     17  C   UNL     1      -3.882  12.490  23.656  0.00  0.00    +0.000 C 
ATOM     18  O   UNL     1      -4.772  12.304  24.464  0.00  0.00    +0.000 OA
ATOM     19  C   UNL     1      -2.500  13.028  23.938  0.00  0.00    +0.000 C 
ATOM     20  H   UNL     1      -4.856  11.992  21.873  0.00  0.00    +0.000 HD
ENDBRANCH  13  14
ENDBRANCH  10  13
ENDBRANCH   4   7
BRANCH   1  21
ATOM     21  O   UNL     1       3.194   4.592  18.638  0.00  0.00    +0.000 OA
BRANCH  21  26
ATOM     22  C   UNL     1       6.754   5.345  18.224  0.00  0.00    +0.000 A 
ATOM     23  C   UNL     1       7.033   4.777  16.975  0.00  0.00    +0.000 A 
ATOM     24  C   UNL     1       6.008   4.196  16.234  0.00  0.00    +0.000 A 
ATOM     25  C   UNL     1       4.710   4.174  16.741  0.00  0.00    +0.000 A 
ATOM     26  C   UNL     1       4.439   4.655  18.031  0.00  0.00    +0.000 A 
ATOM     27  C   UNL     1       5.459   5.268  18.760  0.00  0.00    +0.000 A 
BRANCH  22  29
ATOM     28  N   UNL     1       8.275   5.347  20.122  0.00  0.00    +0.000 N 
ATOM     29  C   UNL     1       7.819   6.011  19.013  0.00  0.00    +0.000 C 
ATOM     30  O   UNL     1       8.300   7.084  18.677  0.00  0.00    +0.000 OA
ATOM     31  H   UNL     1       9.057   5.764  20.606  0.00  0.00    +0.000 HD
ATOM     32  H   UNL     1       8.075   4.373  20.302  0.00  0.00    +0.000 HD
ENDBRANCH  22  29
ENDBRANCH  21  26
ENDBRANCH   1  21
TORSDOF 6
ENDMDL
MODEL 8
REMARK VINA RESULT:      -8.2      0.928      1.211
REMARK  Name = 
REMARK  6 active torsions:
REMARK  status: ('A' for Active; 'I' for Inactive)
REMARK    1  A    between atoms: C_2  and  C_4
REMARK    2  A    between atoms: C_8  and  O_9
REMARK    3  A    between atoms: O_9  and  C_10
REMARK    4  A    between atoms: C_13  and  N_14
REMARK    5  A    between atoms: N_17  and  C_18
REMARK    6  A    between atoms: C_18  and  C_19
REMARK                            x       y       z     vdW  Elec       q    Type
REMARK                         _______ _______ _______ _____ _____    ______ ____
ROOT
ATOM      1  C   UNL     1       4.392   4.383  17.602  0.00  0.00    +0.000 A 
ATOM      2  C   UNL     1       3.011   4.385  17.428  0.00  0.00    +0.000 A 
ATOM      3  C   UNL     1       2.235   5.398  17.983  0.00  0.00    +0.000 A 
ATOM      4  C   UNL     1       2.799   6.387  18.781  0.00  0.00    +0.000 A 
ATOM      5  C   UNL     1       4.169   6.302  19.077  0.00  0.00    +0.000 A 
ATOM      6  C   UNL     1       4.961   5.300  18.487  0.00  0.00    +0.000 A 
ENDROOT
BRANCH   4   7
ATOM      7  N   UNL     1       2.058   7.485  19.284  0.00  0.00    +0.000 N 
ATOM      8  C   UNL     1       1.805   8.655  18.599  0.00  0.00    +0.000 C 
ATOM      9  O   UNL     1       2.135   8.922  17.450  0.00  0.00    +0.000 OA
ATOM     10  N   UNL     1       1.097   9.567  19.344  0.00  0.00    +0.000 N 
ATOM     11  H   UNL     1       1.763   7.435  20.241  0.00  0.00    +0.000 HD
ATOM     12  H   UNL     1       0.797   9.343  20.279  0.00  0.00    +0.000 HD
BRANCH  10  13
ATOM     13  C   UNL     1       0.740  10.853  18.772  0.00  0.00    +0.000 C 
BRANCH  13  14
ATOM     14  C   UNL     1      -0.674  11.315  19.167  0.00  0.00    +0.000 C 
ATOM     15  C   UNL     1      -1.023  12.670  18.564  0.00  0.00    +0.000 C 
ATOM     16  N   UNL     1      -1.466  12.332  17.244  0.00  0.00    +0.000 N 
ATOM     17  C   UNL     1      -1.910  11.026  17.166  0.00  0.00    +0.000 C 
ATOM     18  O   UNL     1      -2.390  10.503  16.177  0.00  0.00    +0.000 OA
ATOM     19  C   UNL     1      -1.726  10.396  18.525  0.00  0.00    +0.000 C 
ATOM     20  H   UNL     1      -1.580  12.969  16.465  0.00  0.00    +0.000 HD
ENDBRANCH  13  14
ENDBRANCH  10  13
ENDBRANCH   4   7
BRANCH   1  21
ATOM     21  O   UNL     1       5.234   3.502  16.956  0.00  0.00    +0.000 OA
BRANCH  21  26
ATOM     22  C   UNL     1       5.967   3.712  13.374  0.00  0.00    +0.000 A 
ATOM     23  C   UNL     1       6.973   4.687  13.335  0.00  0.00    +0.000 A 
ATOM     24  C   UNL     1       7.457   5.230  14.521  0.00  0.00    +0.000 A 
ATOM     25  C   UNL     1       6.935   4.808  15.743  0.00  0.00    +0.000 A 
ATOM     26  C   UNL     1       5.863   3.904  15.788  0.00  0.00    +0.000 A 
ATOM     27  C   UNL     1       5.400   3.333  14.600  0.00  0.00    +0.000 A 
BRANCH  22  29
ATOM     28  N   UNL     1       6.166   2.006  11.652  0.00  0.00    +0.000 N 
ATOM     29  C   UNL     1       5.466   3.085  12.127  0.00  0.00    +0.000 C 
ATOM     30  O   UNL     1       4.457   3.482  11.562  0.00  0.00    +0.000 OA
ATOM     31  H   UNL     1       5.773   1.532  10.851  0.00  0.00    +0.000 HD
ATOM     32  H   UNL     1       6.855   1.511  12.200  0.00  0.00    +0.000 HD
ENDBRANCH  22  29
ENDBRANCH  21  26
ENDBRANCH   1  21
TORSDOF 6
ENDMDL
MODEL 9
REMARK VINA RESULT:      -8.2      2.773      4.279
REMARK  Name = 
REMARK  6 active torsions:
REMARK  status: ('A' for Active; 'I' for Inactive)
REMARK    1  A    between atoms: C_2  and  C_4
REMARK    2  A    between atoms: C_8  and  O_9
REMARK    3  A    between atoms: O_9  and  C_10
REMARK    4  A    between atoms: C_13  and  N_14
REMARK    5  A    between atoms: N_17  and  C_18
REMARK    6  A    between atoms: C_18  and  C_19
REMARK                            x       y       z     vdW  Elec       q    Type
REMARK                         _______ _______ _______ _____ _____    ______ ____
ROOT
ATOM      1  C   UNL     1       2.670   6.795  18.421  0.00  0.00    +0.000 A 
ATOM      2  C   UNL     1       2.228   6.978  19.727  0.00  0.00    +0.000 A 
ATOM      3  C   UNL     1       1.633   8.179  20.105  0.00  0.00    +0.000 A 
ATOM      4  C   UNL     1       1.528   9.245  19.218  0.00  0.00    +0.000 A 
ATOM      5  C   UNL     1       2.104   9.110  17.945  0.00  0.00    +0.000 A 
ATOM      6  C   UNL     1       2.674   7.886  17.550  0.00  0.00    +0.000 A 
ENDROOT
BRANCH   4   7
ATOM      7  N   UNL     1       0.845  10.444  19.537  0.00  0.00    +0.000 N 
ATOM      8  C   UNL     1      -0.518  10.636  19.434  0.00  0.00    +0.000 C 
ATOM      9  O   UNL     1      -1.354   9.807  19.098  0.00  0.00    +0.000 OA
ATOM     10  N   UNL     1      -0.903  11.911  19.768  0.00  0.00    +0.000 N 
ATOM     11  H   UNL     1       1.407  11.239  19.780  0.00  0.00    +0.000 HD
ATOM     12  H   UNL     1      -0.225  12.590  20.073  0.00  0.00    +0.000 HD
BRANCH  10  13
ATOM     13  C   UNL     1      -2.306  12.283  19.721  0.00  0.00    +0.000 C 
BRANCH  13  14
ATOM     14  C   UNL     1      -2.641  13.486  20.621  0.00  0.00    +0.000 C 
ATOM     15  C   UNL     1      -4.141  13.637  20.841  0.00  0.00    +0.000 C 
ATOM     16  N   UNL     1      -4.406  12.719  21.909  0.00  0.00    +0.000 N 
ATOM     17  C   UNL     1      -3.276  12.464  22.664  0.00  0.00    +0.000 C 
ATOM     18  O   UNL     1      -3.238  11.766  23.659  0.00  0.00    +0.000 OA
ATOM     19  C   UNL     1      -2.131  13.230  22.049  0.00  0.00    +0.000 C 
ATOM     20  H   UNL     1      -5.314  12.375  22.197  0.00  0.00    +0.000 HD
ENDBRANCH  13  14
ENDBRANCH  10  13
ENDBRANCH   4   7
BRANCH   1  21
ATOM     21  O   UNL     1       3.127   5.584  17.940  0.00  0.00    +0.000 OA
BRANCH  21  26
ATOM     22  C   UNL     1       6.364   4.944  16.353  0.00  0.00    +0.000 A 
ATOM     23  C   UNL     1       7.246   5.021  17.440  0.00  0.00    +0.000 A 
ATOM     24  C   UNL     1       6.748   5.222  18.723  0.00  0.00    +0.000 A 
ATOM     25  C   UNL     1       5.374   5.354  18.923  0.00  0.00    +0.000 A 
ATOM     26  C   UNL     1       4.493   5.373  17.832  0.00  0.00    +0.000 A 
ATOM     27  C   UNL     1       4.988   5.139  16.548  0.00  0.00    +0.000 A 
BRANCH  22  29
ATOM     28  N   UNL     1       6.286   3.651  14.295  0.00  0.00    +0.000 N 
ATOM     29  C   UNL     1       6.867   4.686  14.982  0.00  0.00    +0.000 C 
ATOM     30  O   UNL     1       7.732   5.380  14.467  0.00  0.00    +0.000 OA
ATOM     31  H   UNL     1       6.572   3.533  13.334  0.00  0.00    +0.000 HD
ATOM     32  H   UNL     1       5.427   3.209  14.588  0.00  0.00    +0.000 HD
ENDBRANCH  22  29
ENDBRANCH  21  26
ENDBRANCH   1  21
TORSDOF 6
ENDMDL
