MODEL 1
REMARK VINA RESULT:      -8.7      0.000      0.000
REMARK  Name = 
REMARK  8 active torsions:
REMARK  status: ('A' for Active; 'I' for Inactive)
REMARK    1  A    between atoms: C_1  and  C_2
REMARK    2  A    between atoms: C_4  and  C_5
REMARK    3  A    between atoms: C_8  and  C_9
REMARK    4  A    between atoms: C_9  and  S_10
REMARK    5  A    between atoms: S_10  and  C_11
REMARK    6  A    between atoms: C_14  and  C_15
REMARK    7  A    between atoms: C_22  and  C_23
REMARK    8  A    between atoms: C_27  and  C_28
REMARK                            x       y       z     vdW  Elec       q    Type
REMARK                         _______ _______ _______ _____ _____    ______ ____
ROOT
ATOM      1  C   UNL     1       3.053   6.548  18.715  0.00  0.00    +0.000 A 
ATOM      2  N   UNL     1       3.218   7.454  17.774  0.00  0.00    +0.000 NA
ATOM      3  N   UNL     1       2.474   8.553  18.155  0.00  0.00    +0.000 NA
ATOM      4  C   UNL     1       1.885   8.245  19.302  0.00  0.00    +0.000 A 
ATOM      5  O   UNL     1       2.207   6.969  19.700  0.00  0.00    +0.000 OA
ENDROOT
BRANCH   4   6
ATOM      6  C   UNL     1       1.021   9.117  20.034  0.00  0.00    +0.000 A 
ATOM      7  C   UNL     1       0.235  10.144  19.548  0.00  0.00    +0.000 A 
ATOM      8  C   UNL     1      -0.535  10.787  20.572  0.00  0.00    +0.000 A 
ATOM      9  C   UNL     1      -0.272  10.236  21.803  0.00  0.00    +0.000 A 
ATOM     10  S   UNL     1       0.854   8.964  21.731  0.00  0.00    +0.000 S 
ATOM     11  C   UNL     1      -0.858  10.653  23.100  0.00  0.00    +0.000 C 
ATOM     12  C   UNL     1      -1.937  11.732  22.976  0.00  0.00    +0.000 C 
ATOM     13  C   UNL     1      -2.095  12.514  21.649  0.00  0.00    +0.000 C 
ATOM     14  C   UNL     1      -1.620  13.962  21.807  0.00  0.00    +0.000 C 
ATOM     15  C   UNL     1      -1.524  11.882  20.361  0.00  0.00    +0.000 C 
ENDBRANCH   4   6
BRANCH   1  16
ATOM     16  S   UNL     1       3.810   4.990  18.758  0.00  0.00    +0.000 S 
BRANCH  16  17
ATOM     17  C   UNL     1       5.548   5.475  18.913  0.00  0.00    +0.000 C 
BRANCH  17  21
ATOM     18  C   UNL     1       6.615   5.180  15.553  0.00  0.00    +0.000 A 
ATOM     19  N   UNL     1       7.557   6.016  15.953  0.00  0.00    +0.000 NA
ATOM     20  N   UNL     1       7.301   6.312  17.279  0.00  0.00    +0.000 NA
ATOM     21  C   UNL     1       6.226   5.626  17.605  0.00  0.00    +0.000 A 
ATOM     22  O   UNL     1       5.726   4.903  16.561  0.00  0.00    +0.000 OA
BRANCH  18  26
ATOM     23  C   UNL     1       5.319   2.507  11.393  0.00  0.00    +0.000 C 
ATOM     24  C   UNL     1       5.930   3.349  12.439  0.00  0.00    +0.000 A 
ATOM     25  C   UNL     1       5.671   3.540  13.779  0.00  0.00    +0.000 A 
ATOM     26  C   UNL     1       6.564   4.553  14.210  0.00  0.00    +0.000 A 
ATOM     27  C   UNL     1       7.357   4.874  13.129  0.00  0.00    +0.000 A 
ATOM     28  C   UNL     1       8.492   5.791  12.891  0.00  0.00    +0.000 C 
ATOM     29  O   UNL     1       6.966   4.141  12.044  0.00  0.00    +0.000 OA
ENDBRANCH  18  26
ENDBRANCH  17  21
ENDBRANCH  16  17
ENDBRANCH   1  16
TORSDOF 5
ENDMDL
MODEL 2
REMARK VINA RESULT:      -8.7      1.989      2.733
REMARK  Name = 
REMARK  8 active torsions:
REMARK  status: ('A' for Active; 'I' for Inactive)
REMARK    1  A    between atoms: C_1  and  C_2
REMARK    2  A    between atoms: C_4  and  C_5
REMARK    3  A    between atoms: C_8  and  C_9
REMARK    4  A    between atoms: C_9  and  S_10
REMARK    5  A    between atoms: S_10  and  C_11
REMARK    6  A    between atoms: C_14  and  C_15
REMARK    7  A    between atoms: C_22  and  C_23
REMARK    8  A    between atoms: C_27  and  C_28
REMARK                            x       y       z     vdW  Elec       q    Type
REMARK                         _______ _______ _______ _____ _____    ______ ____
ROOT
ATOM      1  C   UNL     1       1.861   5.497  20.541  0.00  0.00    +0.000 A 
ATOM      2  N   UNL     1       2.555   6.090  19.592  0.00  0.00    +0.000 NA
ATOM      3  N   UNL     1       2.221   7.429  19.641  0.00  0.00    +0.000 NA
ATOM      4  C   UNL     1       1.328   7.570  20.611  0.00  0.00    +0.000 A 
ATOM      5  O   UNL     1       1.048   6.365  21.211  0.00  0.00    +0.000 OA
ENDROOT
BRANCH   4   6
ATOM      6  C   UNL     1       0.724   8.810  20.987  0.00  0.00    +0.000 A 
ATOM      7  C   UNL     1      -0.095   9.067  22.070  0.00  0.00    +0.000 A 
ATOM      8  C   UNL     1      -0.488  10.442  22.156  0.00  0.00    +0.000 A 
ATOM      9  C   UNL     1       0.028  11.166  21.109  0.00  0.00    +0.000 A 
ATOM     10  S   UNL     1       0.978  10.226  20.059  0.00  0.00    +0.000 S 
ATOM     11  C   UNL     1      -0.183  12.612  20.847  0.00  0.00    +0.000 C 
ATOM     12  C   UNL     1      -0.966  13.334  21.946  0.00  0.00    +0.000 C 
ATOM     13  C   UNL     1      -1.735  12.514  23.011  0.00  0.00    +0.000 C 
ATOM     14  C   UNL     1      -3.249  12.623  22.797  0.00  0.00    +0.000 C 
ATOM     15  C   UNL     1      -1.313  11.046  23.240  0.00  0.00    +0.000 C 
ENDBRANCH   4   6
BRANCH   1  16
ATOM     16  S   UNL     1       1.942   3.815  20.948  0.00  0.00    +0.000 S 
BRANCH  16  17
ATOM     17  C   UNL     1       2.488   3.122  19.367  0.00  0.00    +0.000 C 
BRANCH  17  21
ATOM     18  C   UNL     1       5.403   4.166  17.656  0.00  0.00    +0.000 A 
ATOM     19  N   UNL     1       5.973   3.929  18.824  0.00  0.00    +0.000 NA
ATOM     20  N   UNL     1       4.971   3.533  19.692  0.00  0.00    +0.000 NA
ATOM     21  C   UNL     1       3.858   3.543  18.991  0.00  0.00    +0.000 A 
ATOM     22  O   UNL     1       4.048   3.951  17.703  0.00  0.00    +0.000 OA
BRANCH  18  26
ATOM     23  C   UNL     1       7.175   4.528  12.874  0.00  0.00    +0.000 C 
ATOM     24  C   UNL     1       6.863   4.628  14.313  0.00  0.00    +0.000 A 
ATOM     25  C   UNL     1       6.115   3.861  15.181  0.00  0.00    +0.000 A 
ATOM     26  C   UNL     1       6.138   4.541  16.424  0.00  0.00    +0.000 A 
ATOM     27  C   UNL     1       6.948   5.646  16.261  0.00  0.00    +0.000 A 
ATOM     28  C   UNL     1       7.431   6.735  17.136  0.00  0.00    +0.000 C 
ATOM     29  O   UNL     1       7.387   5.701  14.968  0.00  0.00    +0.000 OA
ENDBRANCH  18  26
ENDBRANCH  17  21
ENDBRANCH  16  17
ENDBRANCH   1  16
TORSDOF 5
ENDMDL
MODEL 3
REMARK VINA RESULT:      -8.4      5.127      8.658
REMARK  Name = 
REMARK  8 active torsions:
REMARK  status: ('A' for Active; 'I' for Inactive)
REMARK    1  A    between atoms: C_1  and  C_2
REMARK    2  A    between atoms: C_4  and  C_5
REMARK    3  A    between atoms: C_8  and  C_9
REMARK    4  A    between atoms: C_9  and  S_10
REMARK    5  A    between atoms: S_10  and  C_11
REMARK    6  A    between atoms: C_14  and  C_15
REMARK    7  A    between atoms: C_22  and  C_23
REMARK    8  A    between atoms: C_27  and  C_28
REMARK                            x       y       z     vdW  Elec       q    Type
REMARK                         _______ _______ _______ _____ _____    ______ ____
ROOT
ATOM      1  C   UNL     1       7.121   6.805  17.258  0.00  0.00    +0.000 A 
ATOM      2  N   UNL     1       7.769   6.281  18.277  0.00  0.00    +0.000 NA
ATOM      3  N   UNL     1       8.444   7.320  18.887  0.00  0.00    +0.000 NA
ATOM      4  C   UNL     1       8.177   8.417  18.192  0.00  0.00    +0.000 A 
ATOM      5  O   UNL     1       7.348   8.145  17.130  0.00  0.00    +0.000 OA
ENDROOT
BRANCH   4   6
ATOM      6  C   UNL     1       8.685   9.718  18.496  0.00  0.00    +0.000 A 
ATOM      7  C   UNL     1       9.515  10.088  19.538  0.00  0.00    +0.000 A 
ATOM      8  C   UNL     1       9.853  11.480  19.511  0.00  0.00    +0.000 A 
ATOM      9  C   UNL     1       9.235  12.115  18.462  0.00  0.00    +0.000 A 
ATOM     10  S   UNL     1       8.288  11.065  17.518  0.00  0.00    +0.000 S 
ATOM     11  C   UNL     1       9.325  13.558  18.127  0.00  0.00    +0.000 C 
ATOM     12  C   UNL     1      10.306  14.339  19.005  0.00  0.00    +0.000 C 
ATOM     13  C   UNL     1      10.842  13.706  20.312  0.00  0.00    +0.000 C 
ATOM     14  C   UNL     1      10.241  14.398  21.541  0.00  0.00    +0.000 C 
ATOM     15  C   UNL     1      10.777  12.170  20.456  0.00  0.00    +0.000 C 
ENDBRANCH   4   6
BRANCH   1  16
ATOM     16  S   UNL     1       6.072   5.943  16.180  0.00  0.00    +0.000 S 
BRANCH  16  17
ATOM     17  C   UNL     1       5.681   4.495  17.194  0.00  0.00    +0.000 C 
BRANCH  17  21
ATOM     18  C   UNL     1       3.033   5.846  19.112  0.00  0.00    +0.000 A 
ATOM     19  N   UNL     1       2.913   4.596  19.522  0.00  0.00    +0.000 NA
ATOM     20  N   UNL     1       3.861   3.853  18.842  0.00  0.00    +0.000 NA
ATOM     21  C   UNL     1       4.505   4.702  18.072  0.00  0.00    +0.000 A 
ATOM     22  O   UNL     1       4.026   5.976  18.173  0.00  0.00    +0.000 OA
BRANCH  18  26
ATOM     23  C   UNL     1       0.469   9.107  22.098  0.00  0.00    +0.000 C 
ATOM     24  C   UNL     1       1.138   8.351  21.023  0.00  0.00    +0.000 A 
ATOM     25  C   UNL     1       1.671   7.083  20.940  0.00  0.00    +0.000 A 
ATOM     26  C   UNL     1       2.252   6.985  19.651  0.00  0.00    +0.000 A 
ATOM     27  C   UNL     1       1.984   8.171  19.001  0.00  0.00    +0.000 A 
ATOM     28  C   UNL     1       2.250   8.715  17.652  0.00  0.00    +0.000 C 
ATOM     29  O   UNL     1       1.307   9.009  19.842  0.00  0.00    +0.000 OA
ENDBRANCH  18  26
ENDBRANCH  17  21
ENDBRANCH  16  17
ENDBRANCH   1  16
TORSDOF 5
ENDMDL
MODEL 4
REMARK VINA RESULT:      -8.4      2.775      4.264
REMARK  Name = 
REMARK  8 active torsions:
REMARK  status: ('A' for Active; 'I' for Inactive)
REMARK    1  A    between atoms: C_1  and  C_2
REMARK    2  A    between atoms: C_4  and  C_5
REMARK    3  A    between atoms: C_8  and  C_9
REMARK    4  A    between atoms: C_9  and  S_10
REMARK    5  A    between atoms: S_10  and  C_11
REMARK    6  A    between atoms: C_14  and  C_15
REMARK    7  A    between atoms: C_22  and  C_23
REMARK    8  A    between atoms: C_27  and  C_28
REMARK                            x       y       z     vdW  Elec       q    Type
REMARK                         _______ _______ _______ _____ _____    ______ ____
ROOT
ATOM      1  C   UNL     1       2.552   3.492  20.764  0.00  0.00    +0.000 A 
ATOM      2  N   UNL     1       1.243   3.381  20.860  0.00  0.00    +0.000 NA
ATOM      3  N   UNL     1       0.726   4.637  20.614  0.00  0.00    +0.000 NA
ATOM      4  C   UNL     1       1.754   5.445  20.397  0.00  0.00    +0.000 A 
ATOM      5  O   UNL     1       2.948   4.770  20.494  0.00  0.00    +0.000 OA
ENDROOT
BRANCH   4   6
ATOM      6  C   UNL     1       1.647   6.840  20.103  0.00  0.00    +0.000 A 
ATOM      7  C   UNL     1       1.142   7.845  20.906  0.00  0.00    +0.000 A 
ATOM      8  C   UNL     1       1.226   9.139  20.297  0.00  0.00    +0.000 A 
ATOM      9  C   UNL     1       1.764   9.053  19.035  0.00  0.00    +0.000 A 
ATOM     10  S   UNL     1       2.180   7.463  18.600  0.00  0.00    +0.000 S 
ATOM     11  C   UNL     1       1.983  10.176  18.091  0.00  0.00    +0.000 C 
ATOM     12  C   UNL     1       1.663  11.553  18.679  0.00  0.00    +0.000 C 
ATOM     13  C   UNL     1       0.861  11.659  19.999  0.00  0.00    +0.000 C 
ATOM     14  C   UNL     1      -0.553  12.190  19.739  0.00  0.00    +0.000 C 
ATOM     15  C   UNL     1       0.827  10.428  20.929  0.00  0.00    +0.000 C 
ENDBRANCH   4   6
BRANCH   1  16
ATOM     16  S   UNL     1       3.688   2.194  20.933  0.00  0.00    +0.000 S 
BRANCH  16  17
ATOM     17  C   UNL     1       3.730   1.573  19.233  0.00  0.00    +0.000 C 
BRANCH  17  21
ATOM     18  C   UNL     1       4.995   4.296  17.362  0.00  0.00    +0.000 A 
ATOM     19  N   UNL     1       3.861   4.152  16.699  0.00  0.00    +0.000 NA
ATOM     20  N   UNL     1       3.199   3.074  17.256  0.00  0.00    +0.000 NA
ATOM     21  C   UNL     1       3.967   2.639  18.232  0.00  0.00    +0.000 A 
ATOM     22  O   UNL     1       5.127   3.349  18.346  0.00  0.00    +0.000 OA
BRANCH  18  26
ATOM     23  C   UNL     1       8.058   8.364  17.813  0.00  0.00    +0.000 C 
ATOM     24  C   UNL     1       7.272   7.183  17.409  0.00  0.00    +0.000 A 
ATOM     25  C   UNL     1       6.224   6.495  17.981  0.00  0.00    +0.000 A 
ATOM     26  C   UNL     1       5.969   5.389  17.131  0.00  0.00    +0.000 A 
ATOM     27  C   UNL     1       6.830   5.503  16.059  0.00  0.00    +0.000 A 
ATOM     28  C   UNL     1       7.067   4.740  14.815  0.00  0.00    +0.000 C 
ATOM     29  O   UNL     1       7.630   6.597  16.232  0.00  0.00    +0.000 OA
ENDBRANCH  18  26
ENDBRANCH  17  21
ENDBRANCH  16  17
ENDBRANCH   1  16
TORSDOF 5
ENDMDL
MODEL 5
REMARK VINA RESULT:      -8.2      3.278      4.414
REMARK  Name = 
REMARK  8 active torsions:
REMARK  status: ('A' for Active; 'I' for Inactive)
REMARK    1  A    between atoms: C_1  and  C_2
REMARK    2  A    between atoms: C_4  and  C_5
REMARK    3  A    between atoms: C_8  and  C_9
REMARK    4  A    between atoms: C_9  and  S_10
REMARK    5  A    between atoms: S_10  and  C_11
REMARK    6  A    between atoms: C_14  and  C_15
REMARK    7  A    between atoms: C_22  and  C_23
REMARK    8  A    between atoms: C_27  and  C_28
REMARK                            x       y       z     vdW  Elec       q    Type
REMARK                         _______ _______ _______ _____ _____    ______ ____
ROOT
ATOM      1  C   UNL     1       0.975   9.731  18.768  0.00  0.00    +0.000 A 
ATOM      2  N   UNL     1       1.205  10.480  19.827  0.00  0.00    +0.000 NA
ATOM      3  N   UNL     1       0.041  11.181  20.069  0.00  0.00    +0.000 NA
ATOM      4  C   UNL     1      -0.827  10.828  19.132  0.00  0.00    +0.000 A 
ATOM      5  O   UNL     1      -0.279   9.914  18.264  0.00  0.00    +0.000 OA
ENDROOT
BRANCH   4   6
ATOM      6  C   UNL     1      -2.161  11.330  19.027  0.00  0.00    +0.000 A 
ATOM      7  C   UNL     1      -3.098  11.068  18.046  0.00  0.00    +0.000 A 
ATOM      8  C   UNL     1      -4.352  11.719  18.284  0.00  0.00    +0.000 A 
ATOM      9  C   UNL     1      -4.300  12.479  19.427  0.00  0.00    +0.000 A 
ATOM     10  S   UNL     1      -2.792  12.397  20.208  0.00  0.00    +0.000 S 
ATOM     11  C   UNL     1      -5.393  13.316  19.981  0.00  0.00    +0.000 C 
ATOM     12  C   UNL     1      -6.716  13.189  19.223  0.00  0.00    +0.000 C 
ATOM     13  C   UNL     1      -6.743  12.522  17.826  0.00  0.00    +0.000 C 
ATOM     14  C   UNL     1      -6.991  13.562  16.728  0.00  0.00    +0.000 C 
ATOM     15  C   UNL     1      -5.577  11.585  17.447  0.00  0.00    +0.000 C 
ENDBRANCH   4   6
BRANCH   1  16
ATOM     16  S   UNL     1       2.095   8.612  18.064  0.00  0.00    +0.000 S 
BRANCH  16  17
ATOM     17  C   UNL     1       2.259   7.419  19.416  0.00  0.00    +0.000 C 
BRANCH  17  21
ATOM     18  C   UNL     1       4.552   5.195  17.895  0.00  0.00    +0.000 A 
ATOM     19  N   UNL     1       4.168   4.394  18.874  0.00  0.00    +0.000 NA
ATOM     20  N   UNL     1       3.268   5.102  19.649  0.00  0.00    +0.000 NA
ATOM     21  C   UNL     1       3.151   6.284  19.083  0.00  0.00    +0.000 A 
ATOM     22  O   UNL     1       3.946   6.423  17.983  0.00  0.00    +0.000 OA
BRANCH  18  26
ATOM     23  C   UNL     1       6.615   4.061  13.358  0.00  0.00    +0.000 C 
ATOM     24  C   UNL     1       6.280   4.312  14.773  0.00  0.00    +0.000 A 
ATOM     25  C   UNL     1       5.100   4.545  15.445  0.00  0.00    +0.000 A 
ATOM     26  C   UNL     1       5.460   4.799  16.792  0.00  0.00    +0.000 A 
ATOM     27  C   UNL     1       6.827   4.641  16.877  0.00  0.00    +0.000 A 
ATOM     28  C   UNL     1       7.829   4.712  17.963  0.00  0.00    +0.000 C 
ATOM     29  O   UNL     1       7.330   4.349  15.641  0.00  0.00    +0.000 OA
ENDBRANCH  18  26
ENDBRANCH  17  21
ENDBRANCH  16  17
ENDBRANCH   1  16
TORSDOF 5
ENDMDL
MODEL 6
REMARK VINA RESULT:      -8.2      3.503      9.902
REMARK  Name = 
REMARK  8 active torsions:
REMARK  status: ('A' for Active; 'I' for Inactive)
REMARK    1  A    between atoms: C_1  and  C_2
REMARK    2  A    between atoms: C_4  and  C_5
REMARK    3  A    between atoms: C_8  and  C_9
REMARK    4  A    between atoms: C_9  and  S_10
REMARK    5  A    between atoms: S_10  and  C_11
REMARK    6  A    between atoms: C_14  and  C_15
REMARK    7  A    between atoms: C_22  and  C_23
REMARK    8  A    between atoms: C_27  and  C_28
REMARK                            x       y       z     vdW  Elec       q    Type
REMARK                         _______ _______ _______ _____ _____    ______ ____
ROOT
ATOM      1  C   UNL     1       1.190   8.046  20.928  0.00  0.00    +0.000 A 
ATOM      2  N   UNL     1       0.842   6.813  21.235  0.00  0.00    +0.000 NA
ATOM      3  N   UNL     1       1.666   5.982  20.503  0.00  0.00    +0.000 NA
ATOM      4  C   UNL     1       2.459   6.759  19.780  0.00  0.00    +0.000 A 
ATOM      5  O   UNL     1       2.190   8.089  20.000  0.00  0.00    +0.000 OA
ENDROOT
BRANCH   4   6
ATOM      6  C   UNL     1       3.465   6.286  18.881  0.00  0.00    +0.000 A 
ATOM      7  C   UNL     1       3.594   6.547  17.530  0.00  0.00    +0.000 A 
ATOM      8  C   UNL     1       4.751   5.930  16.952  0.00  0.00    +0.000 A 
ATOM      9  C   UNL     1       5.436   5.196  17.890  0.00  0.00    +0.000 A 
ATOM     10  S   UNL     1       4.722   5.262  19.432  0.00  0.00    +0.000 S 
ATOM     11  C   UNL     1       6.666   4.399  17.661  0.00  0.00    +0.000 C 
ATOM     12  C   UNL     1       7.242   4.538  16.250  0.00  0.00    +0.000 C 
ATOM     13  C   UNL     1       6.385   5.173  15.127  0.00  0.00    +0.000 C 
ATOM     14  C   UNL     1       5.942   4.113  14.112  0.00  0.00    +0.000 C 
ATOM     15  C   UNL     1       5.201   6.073  15.539  0.00  0.00    +0.000 C 
ENDBRANCH   4   6
BRANCH   1  16
ATOM     16  S   UNL     1       0.503   9.485  21.606  0.00  0.00    +0.000 S 
BRANCH  16  17
ATOM     17  C   UNL     1       1.110  10.722  20.432  0.00  0.00    +0.000 C 
BRANCH  17  21
ATOM     18  C   UNL     1      -1.582  11.615  18.318  0.00  0.00    +0.000 A 
ATOM     19  N   UNL     1      -1.326  12.826  18.780  0.00  0.00    +0.000 NA
ATOM     20  N   UNL     1      -0.294  12.703  19.692  0.00  0.00    +0.000 NA
ATOM     21  C   UNL     1       0.021  11.426  19.716  0.00  0.00    +0.000 A 
ATOM     22  O   UNL     1      -0.762  10.674  18.889  0.00  0.00    +0.000 OA
BRANCH  18  26
ATOM     23  C   UNL     1      -3.954  10.027  14.077  0.00  0.00    +0.000 C 
ATOM     24  C   UNL     1      -3.530  10.596  15.371  0.00  0.00    +0.000 A 
ATOM     25  C   UNL     1      -2.302  10.813  15.959  0.00  0.00    +0.000 A 
ATOM     26  C   UNL     1      -2.572  11.314  17.257  0.00  0.00    +0.000 A 
ATOM     27  C   UNL     1      -3.943  11.434  17.362  0.00  0.00    +0.000 A 
ATOM     28  C   UNL     1      -4.880  11.920  18.396  0.00  0.00    +0.000 C 
ATOM     29  O   UNL     1      -4.528  10.990  16.210  0.00  0.00    +0.000 OA
ENDBRANCH  18  26
ENDBRANCH  17  21
ENDBRANCH  16  17
ENDBRANCH   1  16
TORSDOF 5
ENDMDL
MODEL 7
REMARK VINA RESULT:      -8.2      2.872      4.435
REMARK  Name = 
REMARK  8 active torsions:
REMARK  status: ('A' for Active; 'I' for Inactive)
REMARK    1  A    between atoms: C_1  and  C_2
REMARK    2  A    between atoms: C_4  and  C_5
REMARK    3  A    between atoms: C_8  and  C_9
REMARK    4  A    between atoms: C_9  and  S_10
REMARK    5  A    between atoms: S_10  and  C_11
REMARK    6  A    between atoms: C_14  and  C_15
REMARK    7  A    between atoms: C_22  and  C_23
REMARK    8  A    between atoms: C_27  and  C_28
REMARK                            x       y       z     vdW  Elec       q    Type
REMARK                         _______ _______ _______ _____ _____    ______ ____
ROOT
ATOM      1  C   UNL     1       3.090   3.929  19.627  0.00  0.00    +0.000 A 
ATOM      2  N   UNL     1       2.696   3.805  20.878  0.00  0.00    +0.000 NA
ATOM      3  N   UNL     1       2.133   5.015  21.232  0.00  0.00    +0.000 NA
ATOM      4  C   UNL     1       2.230   5.812  20.178  0.00  0.00    +0.000 A 
ATOM      5  O   UNL     1       2.847   5.175  19.127  0.00  0.00    +0.000 OA
ENDROOT
BRANCH   4   6
ATOM      6  C   UNL     1       1.762   7.161  20.131  0.00  0.00    +0.000 A 
ATOM      7  C   UNL     1       1.070   7.859  21.103  0.00  0.00    +0.000 A 
ATOM      8  C   UNL     1       0.794   9.213  20.725  0.00  0.00    +0.000 A 
ATOM      9  C   UNL     1       1.264   9.476  19.461  0.00  0.00    +0.000 A 
ATOM     10  S   UNL     1       2.037   8.138  18.752  0.00  0.00    +0.000 S 
ATOM     11  C   UNL     1       1.142  10.757  18.723  0.00  0.00    +0.000 C 
ATOM     12  C   UNL     1       0.523  11.890  19.544  0.00  0.00    +0.000 C 
ATOM     13  C   UNL     1      -0.204  11.571  20.873  0.00  0.00    +0.000 C 
ATOM     14  C   UNL     1      -1.718  11.758  20.727  0.00  0.00    +0.000 C 
ATOM     15  C   UNL     1       0.123  10.236  21.577  0.00  0.00    +0.000 C 
ENDBRANCH   4   6
BRANCH   1  16
ATOM     16  S   UNL     1       3.821   2.682  18.673  0.00  0.00    +0.000 S 
BRANCH  16  17
ATOM     17  C   UNL     1       3.620   3.379  17.014  0.00  0.00    +0.000 C 
BRANCH  17  21
ATOM     18  C   UNL     1       6.294   5.694  16.913  0.00  0.00    +0.000 A 
ATOM     19  N   UNL     1       6.198   5.495  15.610  0.00  0.00    +0.000 NA
ATOM     20  N   UNL     1       5.202   4.555  15.415  0.00  0.00    +0.000 NA
ATOM     21  C   UNL     1       4.747   4.252  16.612  0.00  0.00    +0.000 A 
ATOM     22  O   UNL     1       5.401   4.917  17.609  0.00  0.00    +0.000 OA
BRANCH  18  26
ATOM     23  C   UNL     1       8.825   9.932  18.239  0.00  0.00    +0.000 C 
ATOM     24  C   UNL     1       8.262   8.581  18.058  0.00  0.00    +0.000 A 
ATOM     25  C   UNL     1       7.447   8.009  17.105  0.00  0.00    +0.000 A 
ATOM     26  C   UNL     1       7.194   6.686  17.547  0.00  0.00    +0.000 A 
ATOM     27  C   UNL     1       7.919   6.508  18.707  0.00  0.00    +0.000 A 
ATOM     28  C   UNL     1       8.146   5.387  19.644  0.00  0.00    +0.000 C 
ATOM     29  O   UNL     1       8.568   7.669  19.022  0.00  0.00    +0.000 OA
ENDBRANCH  18  26
ENDBRANCH  17  21
ENDBRANCH  16  17
ENDBRANCH   1  16
TORSDOF 5
ENDMDL
MODEL 8
REMARK VINA RESULT:      -8.1      2.554      3.450
REMARK  Name = 
REMARK  8 active torsions:
REMARK  status: ('A' for Active; 'I' for Inactive)
REMARK    1  A    between atoms: C_1  and  C_2
REMARK    2  A    between atoms: C_4  and  C_5
REMARK    3  A    between atoms: C_8  and  C_9
REMARK    4  A    between atoms: C_9  and  S_10
REMARK    5  A    between atoms: S_10  and  C_11
REMARK    6  A    between atoms: C_14  and  C_15
REMARK    7  A    between atoms: C_22  and  C_23
REMARK    8  A    between atoms: C_27  and  C_28
REMARK                            x       y       z     vdW  Elec       q    Type
REMARK                         _______ _______ _______ _____ _____    ______ ____
ROOT
ATOM      1  C   UNL     1       1.648   3.953  19.754  0.00  0.00    +0.000 A 
ATOM      2  N   UNL     1       2.039   4.085  21.004  0.00  0.00    +0.000 NA
ATOM      3  N   UNL     1       2.050   5.439  21.270  0.00  0.00    +0.000 NA
ATOM      4  C   UNL     1       1.676   6.056  20.157  0.00  0.00    +0.000 A 
ATOM      5  O   UNL     1       1.421   5.156  19.150  0.00  0.00    +0.000 OA
ENDROOT
BRANCH   4   6
ATOM      6  C   UNL     1       1.557   7.473  20.012  0.00  0.00    +0.000 A 
ATOM      7  C   UNL     1       1.830   8.243  18.898  0.00  0.00    +0.000 A 
ATOM      8  C   UNL     1       1.559   9.635  19.103  0.00  0.00    +0.000 A 
ATOM      9  C   UNL     1       1.119   9.865  20.384  0.00  0.00    +0.000 A 
ATOM     10  S   UNL     1       1.013   8.444  21.312  0.00  0.00    +0.000 S 
ATOM     11  C   UNL     1       0.764  11.180  20.973  0.00  0.00    +0.000 C 
ATOM     12  C   UNL     1       0.804  12.338  19.974  0.00  0.00    +0.000 C 
ATOM     13  C   UNL     1       1.496  12.149  18.602  0.00  0.00    +0.000 C 
ATOM     14  C   UNL     1       2.809  12.936  18.537  0.00  0.00    +0.000 C 
ATOM     15  C   UNL     1       1.689  10.709  18.079  0.00  0.00    +0.000 C 
ENDBRANCH   4   6
BRANCH   1  16
ATOM     16  S   UNL     1       1.414   2.450  18.924  0.00  0.00    +0.000 S 
BRANCH  16  17
ATOM     17  C   UNL     1       3.076   1.743  19.053  0.00  0.00    +0.000 C 
BRANCH  17  21
ATOM     18  C   UNL     1       5.488   3.873  17.584  0.00  0.00    +0.000 A 
ATOM     19  N   UNL     1       5.835   4.073  18.844  0.00  0.00    +0.000 NA
ATOM     20  N   UNL     1       4.962   3.341  19.627  0.00  0.00    +0.000 NA
ATOM     21  C   UNL     1       4.148   2.731  18.792  0.00  0.00    +0.000 A 
ATOM     22  O   UNL     1       4.406   3.034  17.487  0.00  0.00    +0.000 OA
BRANCH  18  26
ATOM     23  C   UNL     1       7.309   4.842  12.907  0.00  0.00    +0.000 C 
ATOM     24  C   UNL     1       6.970   4.770  14.342  0.00  0.00    +0.000 A 
ATOM     25  C   UNL     1       6.254   3.875  15.107  0.00  0.00    +0.000 A 
ATOM     26  C   UNL     1       6.219   4.418  16.415  0.00  0.00    +0.000 A 
ATOM     27  C   UNL     1       6.967   5.576  16.388  0.00  0.00    +0.000 A 
ATOM     28  C   UNL     1       7.374   6.590  17.384  0.00  0.00    +0.000 C 
ATOM     29  O   UNL     1       7.422   5.794  15.118  0.00  0.00    +0.000 OA
ENDBRANCH  18  26
ENDBRANCH  17  21
ENDBRANCH  16  17
ENDBRANCH   1  16
TORSDOF 5
ENDMDL
MODEL 9
REMARK VINA RESULT:      -8.1      1.148      1.596
REMARK  Name = 
REMARK  8 active torsions:
REMARK  status: ('A' for Active; 'I' for Inactive)
REMARK    1  A    between atoms: C_1  and  C_2
REMARK    2  A    between atoms: C_4  and  C_5
REMARK    3  A    between atoms: C_8  and  C_9
REMARK    4  A    between atoms: C_9  and  S_10
REMARK    5  A    between atoms: S_10  and  C_11
REMARK    6  A    between atoms: C_14  and  C_15
REMARK    7  A    between atoms: C_22  and  C_23
REMARK    8  A    between atoms: C_27  and  C_28
REMARK                            x       y       z     vdW  Elec       q    Type
REMARK                         _______ _______ _______ _____ _____    ______ ____
ROOT
ATOM      1  C   UNL     1       2.603   7.566  18.241  0.00  0.00    +0.000 A 
ATOM      2  N   UNL     1       2.564   8.410  17.231  0.00  0.00    +0.000 NA
ATOM      3  N   UNL     1       1.899   9.532  17.685  0.00  0.00    +0.000 NA
ATOM      4  C   UNL     1       1.558   9.298  18.944  0.00  0.00    +0.000 A 
ATOM      5  O   UNL     1       1.969   8.050  19.349  0.00  0.00    +0.000 OA
ENDROOT
BRANCH   4   6
ATOM      6  C   UNL     1       0.850  10.216  19.780  0.00  0.00    +0.000 A 
ATOM      7  C   UNL     1       0.259   9.974  21.005  0.00  0.00    +0.000 A 
ATOM      8  C   UNL     1      -0.335  11.146  21.578  0.00  0.00    +0.000 A 
ATOM      9  C   UNL     1      -0.196  12.226  20.740  0.00  0.00    +0.000 A 
ATOM     10  S   UNL     1       0.645  11.850  19.311  0.00  0.00    +0.000 S 
ATOM     11  C   UNL     1      -0.704  13.599  20.978  0.00  0.00    +0.000 C 
ATOM     12  C   UNL     1      -1.335  13.796  22.358  0.00  0.00    +0.000 C 
ATOM     13  C   UNL     1      -1.697  12.564  23.223  0.00  0.00    +0.000 C 
ATOM     14  C   UNL     1      -3.216  12.377  23.301  0.00  0.00    +0.000 C 
ATOM     15  C   UNL     1      -0.990  11.227  22.914  0.00  0.00    +0.000 C 
ENDBRANCH   4   6
BRANCH   1  16
ATOM     16  S   UNL     1       3.371   6.013  18.227  0.00  0.00    +0.000 S 
BRANCH  16  17
ATOM     17  C   UNL     1       5.103   6.503  18.424  0.00  0.00    +0.000 C 
BRANCH  17  21
ATOM     18  C   UNL     1       6.558   4.920  15.615  0.00  0.00    +0.000 A 
ATOM     19  N   UNL     1       7.546   4.694  16.462  0.00  0.00    +0.000 NA
ATOM     20  N   UNL     1       7.196   5.287  17.662  0.00  0.00    +0.000 NA
ATOM     21  C   UNL     1       6.010   5.823  17.471  0.00  0.00    +0.000 A 
ATOM     22  O   UNL     1       5.552   5.650  16.197  0.00  0.00    +0.000 OA
BRANCH  18  26
ATOM     23  C   UNL     1       5.244   2.532  11.290  0.00  0.00    +0.000 C 
ATOM     24  C   UNL     1       5.859   3.304  12.387  0.00  0.00    +0.000 A 
ATOM     25  C   UNL     1       5.610   3.400  13.739  0.00  0.00    +0.000 A 
ATOM     26  C   UNL     1       6.499   4.388  14.233  0.00  0.00    +0.000 A 
ATOM     27  C   UNL     1       7.280   4.790  13.169  0.00  0.00    +0.000 A 
ATOM     28  C   UNL     1       8.405   5.731  12.986  0.00  0.00    +0.000 C 
ATOM     29  O   UNL     1       6.884   4.131  12.039  0.00  0.00    +0.000 OA
ENDBRANCH  18  26
ENDBRANCH  17  21
ENDBRANCH  16  17
ENDBRANCH   1  16
TORSDOF 5
ENDMDL
