MODEL 1
REMARK VINA RESULT:      -7.9      0.000      0.000
REMARK  Name = 
REMARK  5 active torsions:
REMARK  status: ('A' for Active; 'I' for Inactive)
REMARK    1  A    between atoms: C_1  and  C_2
REMARK    2  A    between atoms: C_5  and  C_6
REMARK    3  A    between atoms: C_14  and  N_15
REMARK    4  A    between atoms: C_16  and  C_18
REMARK    5  A    between atoms: C_18  and  C_19
REMARK                            x       y       z     vdW  Elec       q    Type
REMARK                         _______ _______ _______ _____ _____    ______ ____
ROOT
ATOM      1  C   UNL     1       2.770   7.441  18.505  0.00  0.00    +0.000 A 
ATOM      2  N   UNL     1       2.404   8.707  18.125  0.00  0.00    +0.000 NA
ATOM      3  C   UNL     1       1.640   9.172  19.087  0.00  0.00    +0.000 A 
ATOM      4  N   UNL     1       1.067  10.410  19.173  0.00  0.00    +0.000 NA
ATOM      5  C   UNL     1       0.376  10.643  20.244  0.00  0.00    +0.000 A 
ATOM      6  C   UNL     1       0.142   9.699  21.370  0.00  0.00    +0.000 A 
ATOM      7  C   UNL     1       0.735   8.501  21.242  0.00  0.00    +0.000 A 
ATOM      8  N   UNL     1       1.482   8.220  20.103  0.00  0.00    +0.000 N 
ATOM      9  C   UNL     1       2.263   7.126  19.758  0.00  0.00    +0.000 A 
ENDROOT
BRANCH   1  14
ATOM     10  C   UNL     1       6.007   3.935  15.258  0.00  0.00    +0.000 C 
ATOM     11  C   UNL     1       5.139   4.853  16.067  0.00  0.00    +0.000 A 
ATOM     12  C   UNL     1       4.103   4.347  16.858  0.00  0.00    +0.000 A 
ATOM     13  C   UNL     1       3.318   5.209  17.627  0.00  0.00    +0.000 A 
ATOM     14  C   UNL     1       3.552   6.588  17.623  0.00  0.00    +0.000 A 
ATOM     15  C   UNL     1       4.601   7.091  16.842  0.00  0.00    +0.000 A 
ATOM     16  C   UNL     1       5.383   6.232  16.066  0.00  0.00    +0.000 A 
ENDBRANCH   1  14
BRANCH   9  17
ATOM     17  N   UNL     1       2.548   6.031  20.567  0.00  0.00    +0.000 N 
ATOM     18  C   UNL     1       1.589   5.046  20.773  0.00  0.00    +0.000 C 
ATOM     19  O   UNL     1       0.412   5.120  20.431  0.00  0.00    +0.000 OA
ATOM     20  H   UNL     1       3.509   5.706  20.535  0.00  0.00    +0.000 HD
BRANCH  18  21
ATOM     21  C   UNL     1       2.154   3.803  21.453  0.00  0.00    +0.000 C 
BRANCH  21  22
ATOM     22  C   UNL     1       2.779   2.835  20.480  0.00  0.00    +0.000 A 
ATOM     23  C   UNL     1       2.023   2.310  19.422  0.00  0.00    +0.000 A 
ATOM     24  C   UNL     1       2.599   1.421  18.513  0.00  0.00    +0.000 A 
ATOM     25  C   UNL     1       3.936   1.054  18.649  0.00  0.00    +0.000 A 
ATOM     26  C   UNL     1       4.700   1.578  19.690  0.00  0.00    +0.000 A 
ATOM     27  C   UNL     1       4.126   2.466  20.601  0.00  0.00    +0.000 A 
ENDBRANCH  21  22
ENDBRANCH  18  21
ENDBRANCH   9  17
TORSDOF 4
ENDMDL
MODEL 2
REMARK VINA RESULT:      -7.7      0.291      1.366
REMARK  Name = 
REMARK  5 active torsions:
REMARK  status: ('A' for Active; 'I' for Inactive)
REMARK    1  A    between atoms: C_1  and  C_2
REMARK    2  A    between atoms: C_5  and  C_6
REMARK    3  A    between atoms: C_14  and  N_15
REMARK    4  A    between atoms: C_16  and  C_18
REMARK    5  A    between atoms: C_18  and  C_19
REMARK                            x       y       z     vdW  Elec       q    Type
REMARK                         _______ _______ _______ _____ _____    ______ ____
ROOT
ATOM      1  C   UNL     1       2.978   7.323  18.323  0.00  0.00    +0.000 A 
ATOM      2  N   UNL     1       2.643   8.584  17.901  0.00  0.00    +0.000 NA
ATOM      3  C   UNL     1       1.855   9.083  18.826  0.00  0.00    +0.000 A 
ATOM      4  N   UNL     1       1.298  10.330  18.864  0.00  0.00    +0.000 NA
ATOM      5  C   UNL     1       0.576  10.599  19.906  0.00  0.00    +0.000 A 
ATOM      6  C   UNL     1       0.293   9.686  21.045  0.00  0.00    +0.000 A 
ATOM      7  C   UNL     1       0.872   8.476  20.966  0.00  0.00    +0.000 A 
ATOM      8  N   UNL     1       1.650   8.158  19.859  0.00  0.00    +0.000 N 
ATOM      9  C   UNL     1       2.426   7.045  19.565  0.00  0.00    +0.000 A 
ENDROOT
BRANCH   1  14
ATOM     10  C   UNL     1       5.980   3.912  14.763  0.00  0.00    +0.000 C 
ATOM     11  C   UNL     1       5.231   4.793  15.719  0.00  0.00    +0.000 A 
ATOM     12  C   UNL     1       5.397   6.181  15.694  0.00  0.00    +0.000 A 
ATOM     13  C   UNL     1       4.675   6.993  16.572  0.00  0.00    +0.000 A 
ATOM     14  C   UNL     1       3.775   6.438  17.487  0.00  0.00    +0.000 A 
ATOM     15  C   UNL     1       3.598   5.047  17.499  0.00  0.00    +0.000 A 
ATOM     16  C   UNL     1       4.325   4.232  16.627  0.00  0.00    +0.000 A 
ENDBRANCH   1  14
BRANCH   9  17
ATOM     17  N   UNL     1       2.669   5.966  20.409  0.00  0.00    +0.000 N 
ATOM     18  C   UNL     1       1.655   5.059  20.694  0.00  0.00    +0.000 C 
ATOM     19  O   UNL     1       0.472   5.201  20.393  0.00  0.00    +0.000 OA
ATOM     20  H   UNL     1       3.603   5.574  20.355  0.00  0.00    +0.000 HD
BRANCH  18  21
ATOM     21  C   UNL     1       2.161   3.809  21.403  0.00  0.00    +0.000 C 
BRANCH  21  22
ATOM     22  C   UNL     1       2.834   2.836  20.469  0.00  0.00    +0.000 A 
ATOM     23  C   UNL     1       4.139   2.394  20.729  0.00  0.00    +0.000 A 
ATOM     24  C   UNL     1       4.763   1.486  19.872  0.00  0.00    +0.000 A 
ATOM     25  C   UNL     1       4.086   1.005  18.753  0.00  0.00    +0.000 A 
ATOM     26  C   UNL     1       2.785   1.428  18.491  0.00  0.00    +0.000 A 
ATOM     27  C   UNL     1       2.160   2.338  19.345  0.00  0.00    +0.000 A 
ENDBRANCH  21  22
ENDBRANCH  18  21
ENDBRANCH   9  17
TORSDOF 4
ENDMDL
MODEL 3
REMARK VINA RESULT:      -7.4      1.937      5.832
REMARK  Name = 
REMARK  5 active torsions:
REMARK  status: ('A' for Active; 'I' for Inactive)
REMARK    1  A    between atoms: C_1  and  C_2
REMARK    2  A    between atoms: C_5  and  C_6
REMARK    3  A    between atoms: C_14  and  N_15
REMARK    4  A    between atoms: C_16  and  C_18
REMARK    5  A    between atoms: C_18  and  C_19
REMARK                            x       y       z     vdW  Elec       q    Type
REMARK                         _______ _______ _______ _____ _____    ______ ____
ROOT
ATOM      1  C   UNL     1       4.466   4.063  17.862  0.00  0.00    +0.000 A 
ATOM      2  N   UNL     1       4.200   2.808  18.349  0.00  0.00    +0.000 NA
ATOM      3  C   UNL     1       3.504   2.982  19.450  0.00  0.00    +0.000 A 
ATOM      4  N   UNL     1       2.979   2.019  20.265  0.00  0.00    +0.000 NA
ATOM      5  C   UNL     1       2.299   2.445  21.283  0.00  0.00    +0.000 A 
ATOM      6  C   UNL     1       2.048   3.865  21.648  0.00  0.00    +0.000 A 
ATOM      7  C   UNL     1       2.576   4.772  20.809  0.00  0.00    +0.000 A 
ATOM      8  N   UNL     1       3.312   4.346  19.709  0.00  0.00    +0.000 N 
ATOM      9  C   UNL     1       3.878   5.042  18.651  0.00  0.00    +0.000 A 
ENDROOT
BRANCH   1  14
ATOM     10  C   UNL     1       7.791   5.120  13.264  0.00  0.00    +0.000 C 
ATOM     11  C   UNL     1       6.939   4.803  14.458  0.00  0.00    +0.000 A 
ATOM     12  C   UNL     1       7.432   4.971  15.755  0.00  0.00    +0.000 A 
ATOM     13  C   UNL     1       6.621   4.697  16.859  0.00  0.00    +0.000 A 
ATOM     14  C   UNL     1       5.306   4.252  16.690  0.00  0.00    +0.000 A 
ATOM     15  C   UNL     1       4.808   4.100  15.388  0.00  0.00    +0.000 A 
ATOM     16  C   UNL     1       5.620   4.366  14.282  0.00  0.00    +0.000 A 
ENDBRANCH   1  14
BRANCH   9  17
ATOM     17  N   UNL     1       3.756   6.407  18.405  0.00  0.00    +0.000 N 
ATOM     18  C   UNL     1       2.552   6.930  17.951  0.00  0.00    +0.000 C 
ATOM     19  O   UNL     1       1.588   6.268  17.575  0.00  0.00    +0.000 OA
ATOM     20  H   UNL     1       4.288   7.008  19.027  0.00  0.00    +0.000 HD
BRANCH  18  21
ATOM     21  C   UNL     1       2.513   8.453  17.997  0.00  0.00    +0.000 C 
BRANCH  21  22
ATOM     22  C   UNL     1       1.495   8.986  18.973  0.00  0.00    +0.000 A 
ATOM     23  C   UNL     1       1.469   8.516  20.294  0.00  0.00    +0.000 A 
ATOM     24  C   UNL     1       0.535   9.012  21.204  0.00  0.00    +0.000 A 
ATOM     25  C   UNL     1      -0.377   9.987  20.805  0.00  0.00    +0.000 A 
ATOM     26  C   UNL     1      -0.355  10.469  19.498  0.00  0.00    +0.000 A 
ATOM     27  C   UNL     1       0.578   9.973  18.586  0.00  0.00    +0.000 A 
ENDBRANCH  21  22
ENDBRANCH  18  21
ENDBRANCH   9  17
TORSDOF 4
ENDMDL
MODEL 4
REMARK VINA RESULT:      -7.4      1.896      5.710
REMARK  Name = 
REMARK  5 active torsions:
REMARK  status: ('A' for Active; 'I' for Inactive)
REMARK    1  A    between atoms: C_1  and  C_2
REMARK    2  A    between atoms: C_5  and  C_6
REMARK    3  A    between atoms: C_14  and  N_15
REMARK    4  A    between atoms: C_16  and  C_18
REMARK    5  A    between atoms: C_18  and  C_19
REMARK                            x       y       z     vdW  Elec       q    Type
REMARK                         _______ _______ _______ _____ _____    ______ ____
ROOT
ATOM      1  C   UNL     1       4.486   4.236  17.862  0.00  0.00    +0.000 A 
ATOM      2  N   UNL     1       4.271   2.955  18.302  0.00  0.00    +0.000 NA
ATOM      3  C   UNL     1       3.572   3.060  19.409  0.00  0.00    +0.000 A 
ATOM      4  N   UNL     1       3.088   2.048  20.189  0.00  0.00    +0.000 NA
ATOM      5  C   UNL     1       2.396   2.408  21.224  0.00  0.00    +0.000 A 
ATOM      6  C   UNL     1       2.091   3.803  21.642  0.00  0.00    +0.000 A 
ATOM      7  C   UNL     1       2.580   4.760  20.836  0.00  0.00    +0.000 A 
ATOM      8  N   UNL     1       3.329   4.404  19.720  0.00  0.00    +0.000 N 
ATOM      9  C   UNL     1       3.863   5.162  18.688  0.00  0.00    +0.000 A 
ENDROOT
BRANCH   1  14
ATOM     10  C   UNL     1       7.788   4.984  13.187  0.00  0.00    +0.000 C 
ATOM     11  C   UNL     1       6.917   4.832  14.400  0.00  0.00    +0.000 A 
ATOM     12  C   UNL     1       5.597   4.388  14.283  0.00  0.00    +0.000 A 
ATOM     13  C   UNL     1       4.804   4.226  15.422  0.00  0.00    +0.000 A 
ATOM     14  C   UNL     1       5.313   4.502  16.696  0.00  0.00    +0.000 A 
ATOM     15  C   UNL     1       6.643   4.931  16.812  0.00  0.00    +0.000 A 
ATOM     16  C   UNL     1       7.435   5.101  15.673  0.00  0.00    +0.000 A 
ENDBRANCH   1  14
BRANCH   9  17
ATOM     17  N   UNL     1       3.688   6.528  18.494  0.00  0.00    +0.000 N 
ATOM     18  C   UNL     1       2.475   7.017  18.023  0.00  0.00    +0.000 C 
ATOM     19  O   UNL     1       1.554   6.330  17.590  0.00  0.00    +0.000 OA
ATOM     20  H   UNL     1       4.173   7.126  19.156  0.00  0.00    +0.000 HD
BRANCH  18  21
ATOM     21  C   UNL     1       2.367   8.534  18.129  0.00  0.00    +0.000 C 
BRANCH  21  22
ATOM     22  C   UNL     1       1.439   8.981  19.230  0.00  0.00    +0.000 A 
ATOM     23  C   UNL     1       0.506  10.002  18.997  0.00  0.00    +0.000 A 
ATOM     24  C   UNL     1      -0.362  10.413  20.010  0.00  0.00    +0.000 A 
ATOM     25  C   UNL     1      -0.311   9.803  21.261  0.00  0.00    +0.000 A 
ATOM     26  C   UNL     1       0.604   8.780  21.501  0.00  0.00    +0.000 A 
ATOM     27  C   UNL     1       1.474   8.368  20.491  0.00  0.00    +0.000 A 
ENDBRANCH  21  22
ENDBRANCH  18  21
ENDBRANCH   9  17
TORSDOF 4
ENDMDL
MODEL 5
REMARK VINA RESULT:      -7.3      2.850      8.225
REMARK  Name = 
REMARK  5 active torsions:
REMARK  status: ('A' for Active; 'I' for Inactive)
REMARK    1  A    between atoms: C_1  and  C_2
REMARK    2  A    between atoms: C_5  and  C_6
REMARK    3  A    between atoms: C_14  and  N_15
REMARK    4  A    between atoms: C_16  and  C_18
REMARK    5  A    between atoms: C_18  and  C_19
REMARK                            x       y       z     vdW  Elec       q    Type
REMARK                         _______ _______ _______ _____ _____    ______ ____
ROOT
ATOM      1  C   UNL     1       1.349   9.924  18.913  0.00  0.00    +0.000 A 
ATOM      2  N   UNL     1       2.172   9.343  17.982  0.00  0.00    +0.000 NA
ATOM      3  C   UNL     1       2.438   8.137  18.429  0.00  0.00    +0.000 A 
ATOM      4  N   UNL     1       3.189   7.170  17.824  0.00  0.00    +0.000 NA
ATOM      5  C   UNL     1       3.280   6.042  18.455  0.00  0.00    +0.000 A 
ATOM      6  C   UNL     1       2.658   5.709  19.765  0.00  0.00    +0.000 A 
ATOM      7  C   UNL     1       1.922   6.689  20.313  0.00  0.00    +0.000 A 
ATOM      8  N   UNL     1       1.808   7.911  19.660  0.00  0.00    +0.000 N 
ATOM      9  C   UNL     1       1.053   9.042  19.942  0.00  0.00    +0.000 A 
ENDROOT
BRANCH   1  14
ATOM     10  C   UNL     1      -0.284  15.456  18.703  0.00  0.00    +0.000 C 
ATOM     11  C   UNL     1       0.147  14.019  18.714  0.00  0.00    +0.000 A 
ATOM     12  C   UNL     1       1.479  13.672  18.959  0.00  0.00    +0.000 A 
ATOM     13  C   UNL     1       1.862  12.329  18.992  0.00  0.00    +0.000 A 
ATOM     14  C   UNL     1       0.927  11.310  18.783  0.00  0.00    +0.000 A 
ATOM     15  C   UNL     1      -0.411  11.660  18.553  0.00  0.00    +0.000 A 
ATOM     16  C   UNL     1      -0.796  13.003  18.512  0.00  0.00    +0.000 A 
ENDBRANCH   1  14
BRANCH   9  17
ATOM     17  N   UNL     1       0.125   9.175  20.970  0.00  0.00    +0.000 N 
ATOM     18  C   UNL     1       0.530   9.614  22.225  0.00  0.00    +0.000 C 
ATOM     19  O   UNL     1       1.696   9.752  22.585  0.00  0.00    +0.000 OA
ATOM     20  H   UNL     1      -0.802   9.471  20.681  0.00  0.00    +0.000 HD
BRANCH  18  21
ATOM     21  C   UNL     1      -0.642   9.959  23.137  0.00  0.00    +0.000 C 
BRANCH  21  22
ATOM     22  C   UNL     1      -1.178  11.348  22.903  0.00  0.00    +0.000 A 
ATOM     23  C   UNL     1      -2.469  11.690  23.334  0.00  0.00    +0.000 A 
ATOM     24  C   UNL     1      -2.967  12.977  23.128  0.00  0.00    +0.000 A 
ATOM     25  C   UNL     1      -2.179  13.937  22.497  0.00  0.00    +0.000 A 
ATOM     26  C   UNL     1      -0.891  13.613  22.075  0.00  0.00    +0.000 A 
ATOM     27  C   UNL     1      -0.391  12.326  22.278  0.00  0.00    +0.000 A 
ENDBRANCH  21  22
ENDBRANCH  18  21
ENDBRANCH   9  17
TORSDOF 4
ENDMDL
MODEL 6
REMARK VINA RESULT:      -7.1      2.963      8.328
REMARK  Name = 
REMARK  5 active torsions:
REMARK  status: ('A' for Active; 'I' for Inactive)
REMARK    1  A    between atoms: C_1  and  C_2
REMARK    2  A    between atoms: C_5  and  C_6
REMARK    3  A    between atoms: C_14  and  N_15
REMARK    4  A    between atoms: C_16  and  C_18
REMARK    5  A    between atoms: C_18  and  C_19
REMARK                            x       y       z     vdW  Elec       q    Type
REMARK                         _______ _______ _______ _____ _____    ______ ____
ROOT
ATOM      1  C   UNL     1       1.375  10.299  18.858  0.00  0.00    +0.000 A 
ATOM      2  N   UNL     1       2.190   9.805  17.871  0.00  0.00    +0.000 NA
ATOM      3  C   UNL     1       2.444   8.558  18.197  0.00  0.00    +0.000 A 
ATOM      4  N   UNL     1       3.185   7.647  17.496  0.00  0.00    +0.000 NA
ATOM      5  C   UNL     1       3.265   6.462  18.013  0.00  0.00    +0.000 A 
ATOM      6  C   UNL     1       2.643   6.007  19.285  0.00  0.00    +0.000 A 
ATOM      7  C   UNL     1       1.917   6.936  19.930  0.00  0.00    +0.000 A 
ATOM      8  N   UNL     1       1.815   8.218  19.401  0.00  0.00    +0.000 N 
ATOM      9  C   UNL     1       1.072   9.322  19.795  0.00  0.00    +0.000 A 
ENDROOT
BRANCH   1  14
ATOM     10  C   UNL     1      -0.278  15.823  18.585  0.00  0.00    +0.000 C 
ATOM     11  C   UNL     1       0.143  14.387  18.699  0.00  0.00    +0.000 A 
ATOM     12  C   UNL     1      -0.769  13.352  18.474  0.00  0.00    +0.000 A 
ATOM     13  C   UNL     1      -0.358  12.020  18.558  0.00  0.00    +0.000 A 
ATOM     14  C   UNL     1       0.967  11.696  18.866  0.00  0.00    +0.000 A 
ATOM     15  C   UNL     1       1.884  12.735  19.076  0.00  0.00    +0.000 A 
ATOM     16  C   UNL     1       1.474  14.069  18.999  0.00  0.00    +0.000 A 
ENDBRANCH   1  14
BRANCH   9  17
ATOM     17  N   UNL     1       0.147   9.363  20.834  0.00  0.00    +0.000 N 
ATOM     18  C   UNL     1       0.551   9.719  22.116  0.00  0.00    +0.000 C 
ATOM     19  O   UNL     1       1.716   9.853  22.480  0.00  0.00    +0.000 OA
ATOM     20  H   UNL     1      -0.787   9.660  20.571  0.00  0.00    +0.000 HD
BRANCH  18  21
ATOM     21  C   UNL     1      -0.622   9.974  23.056  0.00  0.00    +0.000 C 
BRANCH  21  22
ATOM     22  C   UNL     1      -1.197  11.360  22.914  0.00  0.00    +0.000 A 
ATOM     23  C   UNL     1      -0.466  12.366  22.267  0.00  0.00    +0.000 A 
ATOM     24  C   UNL     1      -0.997  13.649  22.125  0.00  0.00    +0.000 A 
ATOM     25  C   UNL     1      -2.267  13.935  22.621  0.00  0.00    +0.000 A 
ATOM     26  C   UNL     1      -3.009  12.941  23.255  0.00  0.00    +0.000 A 
ATOM     27  C   UNL     1      -2.478  11.658  23.400  0.00  0.00    +0.000 A 
ENDBRANCH  21  22
ENDBRANCH  18  21
ENDBRANCH   9  17
TORSDOF 4
ENDMDL
MODEL 7
REMARK VINA RESULT:      -7.0      2.261      6.212
REMARK  Name = 
REMARK  5 active torsions:
REMARK  status: ('A' for Active; 'I' for Inactive)
REMARK    1  A    between atoms: C_1  and  C_2
REMARK    2  A    between atoms: C_5  and  C_6
REMARK    3  A    between atoms: C_14  and  N_15
REMARK    4  A    between atoms: C_16  and  C_18
REMARK    5  A    between atoms: C_18  and  C_19
REMARK                            x       y       z     vdW  Elec       q    Type
REMARK                         _______ _______ _______ _____ _____    ______ ____
ROOT
ATOM      1  C   UNL     1       2.372   6.257  19.984  0.00  0.00    +0.000 A 
ATOM      2  N   UNL     1       1.679   5.570  20.947  0.00  0.00    +0.000 NA
ATOM      3  C   UNL     1       2.197   4.363  20.982  0.00  0.00    +0.000 A 
ATOM      4  N   UNL     1       1.857   3.333  21.813  0.00  0.00    +0.000 NA
ATOM      5  C   UNL     1       2.541   2.241  21.673  0.00  0.00    +0.000 A 
ATOM      6  C   UNL     1       3.640   2.003  20.699  0.00  0.00    +0.000 A 
ATOM      7  C   UNL     1       3.943   3.050  19.913  0.00  0.00    +0.000 A 
ATOM      8  N   UNL     1       3.225   4.235  20.038  0.00  0.00    +0.000 N 
ATOM      9  C   UNL     1       3.381   5.476  19.438  0.00  0.00    +0.000 A 
ENDROOT
BRANCH   1  14
ATOM     10  C   UNL     1       0.591  11.550  18.527  0.00  0.00    +0.000 C 
ATOM     11  C   UNL     1       1.094  10.191  18.915  0.00  0.00    +0.000 A 
ATOM     12  C   UNL     1       0.931   9.711  20.218  0.00  0.00    +0.000 A 
ATOM     13  C   UNL     1       1.381   8.434  20.560  0.00  0.00    +0.000 A 
ATOM     14  C   UNL     1       1.998   7.612  19.611  0.00  0.00    +0.000 A 
ATOM     15  C   UNL     1       2.146   8.089  18.301  0.00  0.00    +0.000 A 
ATOM     16  C   UNL     1       1.703   9.370  17.958  0.00  0.00    +0.000 A 
ENDBRANCH   1  14
BRANCH   9  17
ATOM     17  N   UNL     1       4.409   5.850  18.578  0.00  0.00    +0.000 N 
ATOM     18  C   UNL     1       4.429   5.384  17.269  0.00  0.00    +0.000 C 
ATOM     19  O   UNL     1       3.691   4.513  16.815  0.00  0.00    +0.000 OA
ATOM     20  H   UNL     1       4.767   6.790  18.713  0.00  0.00    +0.000 HD
BRANCH  18  21
ATOM     21  C   UNL     1       5.458   6.100  16.401  0.00  0.00    +0.000 C 
BRANCH  21  22
ATOM     22  C   UNL     1       6.553   6.751  17.207  0.00  0.00    +0.000 A 
ATOM     23  C   UNL     1       6.844   8.112  17.034  0.00  0.00    +0.000 A 
ATOM     24  C   UNL     1       7.850   8.722  17.783  0.00  0.00    +0.000 A 
ATOM     25  C   UNL     1       8.570   7.981  18.718  0.00  0.00    +0.000 A 
ATOM     26  C   UNL     1       8.283   6.631  18.906  0.00  0.00    +0.000 A 
ATOM     27  C   UNL     1       7.278   6.018  18.156  0.00  0.00    +0.000 A 
ENDBRANCH  21  22
ENDBRANCH  18  21
ENDBRANCH   9  17
TORSDOF 4
ENDMDL
MODEL 8
REMARK VINA RESULT:      -7.0      2.063      6.098
REMARK  Name = 
REMARK  5 active torsions:
REMARK  status: ('A' for Active; 'I' for Inactive)
REMARK    1  A    between atoms: C_1  and  C_2
REMARK    2  A    between atoms: C_5  and  C_6
REMARK    3  A    between atoms: C_14  and  N_15
REMARK    4  A    between atoms: C_16  and  C_18
REMARK    5  A    between atoms: C_18  and  C_19
REMARK                            x       y       z     vdW  Elec       q    Type
REMARK                         _______ _______ _______ _____ _____    ______ ____
ROOT
ATOM      1  C   UNL     1       4.298   4.188  18.037  0.00  0.00    +0.000 A 
ATOM      2  N   UNL     1       4.558   3.101  18.833  0.00  0.00    +0.000 NA
ATOM      3  C   UNL     1       3.672   3.137  19.802  0.00  0.00    +0.000 A 
ATOM      4  N   UNL     1       3.511   2.238  20.819  0.00  0.00    +0.000 NA
ATOM      5  C   UNL     1       2.538   2.477  21.640  0.00  0.00    +0.000 A 
ATOM      6  C   UNL     1       1.598   3.627  21.587  0.00  0.00    +0.000 A 
ATOM      7  C   UNL     1       1.790   4.476  20.563  0.00  0.00    +0.000 A 
ATOM      8  N   UNL     1       2.828   4.247  19.667  0.00  0.00    +0.000 N 
ATOM      9  C   UNL     1       3.192   4.891  18.492  0.00  0.00    +0.000 A 
ENDROOT
BRANCH   1  14
ATOM     10  C   UNL     1       7.738   5.179  13.509  0.00  0.00    +0.000 C 
ATOM     11  C   UNL     1       6.828   4.963  14.683  0.00  0.00    +0.000 A 
ATOM     12  C   UNL     1       5.550   4.425  14.510  0.00  0.00    +0.000 A 
ATOM     13  C   UNL     1       4.723   4.204  15.614  0.00  0.00    +0.000 A 
ATOM     14  C   UNL     1       5.154   4.515  16.907  0.00  0.00    +0.000 A 
ATOM     15  C   UNL     1       6.443   5.039  17.080  0.00  0.00    +0.000 A 
ATOM     16  C   UNL     1       7.270   5.268  15.977  0.00  0.00    +0.000 A 
ENDBRANCH   1  14
BRANCH   9  17
ATOM     17  N   UNL     1       2.501   5.930  17.876  0.00  0.00    +0.000 N 
ATOM     18  C   UNL     1       2.503   7.201  18.438  0.00  0.00    +0.000 C 
ATOM     19  O   UNL     1       2.936   7.482  19.553  0.00  0.00    +0.000 OA
ATOM     20  H   UNL     1       2.487   5.900  16.862  0.00  0.00    +0.000 HD
BRANCH  18  21
ATOM     21  C   UNL     1       1.934   8.262  17.504  0.00  0.00    +0.000 C 
BRANCH  21  22
ATOM     22  C   UNL     1       1.508   9.514  18.228  0.00  0.00    +0.000 A 
ATOM     23  C   UNL     1       2.201  10.716  18.030  0.00  0.00    +0.000 A 
ATOM     24  C   UNL     1       1.805  11.880  18.691  0.00  0.00    +0.000 A 
ATOM     25  C   UNL     1       0.708  11.855  19.549  0.00  0.00    +0.000 A 
ATOM     26  C   UNL     1       0.004  10.669  19.746  0.00  0.00    +0.000 A 
ATOM     27  C   UNL     1       0.400   9.503  19.087  0.00  0.00    +0.000 A 
ENDBRANCH  21  22
ENDBRANCH  18  21
ENDBRANCH   9  17
TORSDOF 4
ENDMDL
MODEL 9
REMARK VINA RESULT:      -6.9      2.267      5.998
REMARK  Name = 
REMARK  5 active torsions:
REMARK  status: ('A' for Active; 'I' for Inactive)
REMARK    1  A    between atoms: C_1  and  C_2
REMARK    2  A    between atoms: C_5  and  C_6
REMARK    3  A    between atoms: C_14  and  N_15
REMARK    4  A    between atoms: C_16  and  C_18
REMARK    5  A    between atoms: C_18  and  C_19
REMARK                            x       y       z     vdW  Elec       q    Type
REMARK                         _______ _______ _______ _____ _____    ______ ____
ROOT
ATOM      1  C   UNL     1       2.638   6.204  19.768  0.00  0.00    +0.000 A 
ATOM      2  N   UNL     1       2.005   5.431  20.708  0.00  0.00    +0.000 NA
ATOM      3  C   UNL     1       2.599   4.259  20.679  0.00  0.00    +0.000 A 
ATOM      4  N   UNL     1       2.338   3.173  21.466  0.00  0.00    +0.000 NA
ATOM      5  C   UNL     1       3.086   2.134  21.266  0.00  0.00    +0.000 A 
ATOM      6  C   UNL     1       4.182   2.011  20.268  0.00  0.00    +0.000 A 
ATOM      7  C   UNL     1       4.405   3.110  19.528  0.00  0.00    +0.000 A 
ATOM      8  N   UNL     1       3.617   4.239  19.717  0.00  0.00    +0.000 N 
ATOM      9  C   UNL     1       3.685   5.514  19.173  0.00  0.00    +0.000 A 
ENDROOT
BRANCH   1  14
ATOM     10  C   UNL     1       0.503  11.432  18.577  0.00  0.00    +0.000 C 
ATOM     11  C   UNL     1       1.096  10.092  18.897  0.00  0.00    +0.000 A 
ATOM     12  C   UNL     1       0.967   9.536  20.173  0.00  0.00    +0.000 A 
ATOM     13  C   UNL     1       1.502   8.276  20.451  0.00  0.00    +0.000 A 
ATOM     14  C   UNL     1       2.173   7.548  19.463  0.00  0.00    +0.000 A 
ATOM     15  C   UNL     1       2.288   8.100  18.180  0.00  0.00    +0.000 A 
ATOM     16  C   UNL     1       1.760   9.364  17.901  0.00  0.00    +0.000 A 
ENDBRANCH   1  14
BRANCH   9  17
ATOM     17  N   UNL     1       4.672   5.991  18.317  0.00  0.00    +0.000 N 
ATOM     18  C   UNL     1       6.014   5.867  18.659  0.00  0.00    +0.000 C 
ATOM     19  O   UNL     1       6.435   5.508  19.756  0.00  0.00    +0.000 OA
ATOM     20  H   UNL     1       4.465   5.911  17.327  0.00  0.00    +0.000 HD
BRANCH  18  21
ATOM     21  C   UNL     1       6.952   6.190  17.503  0.00  0.00    +0.000 C 
BRANCH  21  22
ATOM     22  C   UNL     1       6.702   5.334  16.287  0.00  0.00    +0.000 A 
ATOM     23  C   UNL     1       5.930   4.167  16.391  0.00  0.00    +0.000 A 
ATOM     24  C   UNL     1       5.688   3.376  15.267  0.00  0.00    +0.000 A 
ATOM     25  C   UNL     1       6.207   3.747  14.029  0.00  0.00    +0.000 A 
ATOM     26  C   UNL     1       6.965   4.909  13.911  0.00  0.00    +0.000 A 
ATOM     27  C   UNL     1       7.211   5.701  15.034  0.00  0.00    +0.000 A 
ENDBRANCH  21  22
ENDBRANCH  18  21
ENDBRANCH   9  17
TORSDOF 4
ENDMDL
