MODEL 1
REMARK VINA RESULT:      -9.6      0.000      0.000
REMARK  Name = 
REMARK  3 active torsions:
REMARK  status: ('A' for Active; 'I' for Inactive)
REMARK    1  A    between atoms: C_2  and  C_12
REMARK    2  A    between atoms: C_15  and  S_16
REMARK    3  A    between atoms: S_16  and  N_19
REMARK                            x       y       z     vdW  Elec       q    Type
REMARK                         _______ _______ _______ _____ _____    ______ ____
ROOT
ATOM      1  C   UNL     1       8.501   8.631  18.565  0.00  0.00    +0.000 A 
ATOM      2  C   UNL     1       7.714   8.617  17.397  0.00  0.00    +0.000 A 
ATOM      3  C   UNL     1       7.029   7.469  17.000  0.00  0.00    +0.000 A 
ATOM      4  C   UNL     1       7.116   6.318  17.782  0.00  0.00    +0.000 A 
ATOM      5  C   UNL     1       7.870   6.321  18.959  0.00  0.00    +0.000 A 
ATOM      6  C   UNL     1       8.576   7.471  19.344  0.00  0.00    +0.000 A 
ENDROOT
BRANCH   1   8
ATOM      7  O   UNL     1       9.264  10.175  20.126  0.00  0.00    +0.000 OA
ATOM      8  C   UNL     1       9.160   9.927  18.928  0.00  0.00    +0.000 C 
ATOM      9  N   UNL     1       9.554  10.756  17.896  0.00  0.00    +0.000 N 
ATOM     10  C   UNL     1      10.218  11.955  18.063  0.00  0.00    +0.000 A 
ATOM     11  N   UNL     1      10.295  12.859  17.096  0.00  0.00    +0.000 NA
ATOM     12  C   UNL     1      10.982  13.932  17.594  0.00  0.00    +0.000 A 
ATOM     13  C   UNL     1      11.459  13.812  18.865  0.00  0.00    +0.000 A 
ATOM     14  S   UNL     1      11.065  12.336  19.526  0.00  0.00    +0.000 S 
ATOM     15  C   UNL     1      12.159  15.008  19.367  0.00  0.00    +0.000 C 
ATOM     16  C   UNL     1      11.699  16.064  18.308  0.00  0.00    +0.000 C 
ATOM     17  C   UNL     1      11.280  15.265  17.024  0.00  0.00    +0.000 C 
ATOM     18  H   UNL     1       9.205  10.626  16.961  0.00  0.00    +0.000 HD
ENDBRANCH   1   8
BRANCH   4  19
ATOM     19  S   UNL     1       6.264   4.843  17.248  0.00  0.00    +0.000 S 
ATOM     20  O   UNL     1       6.880   4.449  15.998  0.00  0.00    +0.000 OA
ATOM     21  O   UNL     1       6.259   3.929  18.376  0.00  0.00    +0.000 OA
BRANCH  19  22
ATOM     22  N   UNL     1       4.666   5.374  16.963  0.00  0.00    +0.000 N 
ATOM     23  C   UNL     1       4.430   6.816  16.776  0.00  0.00    +0.000 C 
ATOM     24  C   UNL     1       3.541   7.458  17.827  0.00  0.00    +0.000 C 
ATOM     25  C   UNL     1       2.526   6.565  18.526  0.00  0.00    +0.000 C 
ATOM     26  C   UNL     1       2.596   5.099  18.230  0.00  0.00    +0.000 A 
ATOM     27  C   UNL     1       1.627   4.258  18.809  0.00  0.00    +0.000 A 
ATOM     28  C   UNL     1       1.604   2.897  18.526  0.00  0.00    +0.000 A 
ATOM     29  C   UNL     1       2.528   2.363  17.639  0.00  0.00    +0.000 A 
ATOM     30  C   UNL     1       3.509   3.185  17.076  0.00  0.00    +0.000 A 
ATOM     31  C   UNL     1       3.576   4.545  17.400  0.00  0.00    +0.000 A 
ENDBRANCH  19  22
ENDBRANCH   4  19
TORSDOF 3
ENDMDL
MODEL 2
REMARK VINA RESULT:      -9.5      5.507      7.936
REMARK  Name = 
REMARK  3 active torsions:
REMARK  status: ('A' for Active; 'I' for Inactive)
REMARK    1  A    between atoms: C_2  and  C_12
REMARK    2  A    between atoms: C_15  and  S_16
REMARK    3  A    between atoms: S_16  and  N_19
REMARK                            x       y       z     vdW  Elec       q    Type
REMARK                         _______ _______ _______ _____ _____    ______ ____
ROOT
ATOM      1  C   UNL     1       2.198   8.078  18.881  0.00  0.00    +0.000 A 
ATOM      2  C   UNL     1       2.083   7.118  19.905  0.00  0.00    +0.000 A 
ATOM      3  C   UNL     1       2.702   5.872  19.801  0.00  0.00    +0.000 A 
ATOM      4  C   UNL     1       3.457   5.578  18.667  0.00  0.00    +0.000 A 
ATOM      5  C   UNL     1       3.604   6.527  17.652  0.00  0.00    +0.000 A 
ATOM      6  C   UNL     1       2.964   7.772  17.749  0.00  0.00    +0.000 A 
ENDROOT
BRANCH   1   8
ATOM      7  O   UNL     1       1.567  10.201  18.178  0.00  0.00    +0.000 OA
ATOM      8  C   UNL     1       1.534   9.402  19.108  0.00  0.00    +0.000 C 
ATOM      9  N   UNL     1       0.981   9.634  20.353  0.00  0.00    +0.000 N 
ATOM     10  C   UNL     1       0.294  10.779  20.703  0.00  0.00    +0.000 A 
ATOM     11  N   UNL     1       0.060  11.102  21.968  0.00  0.00    +0.000 NA
ATOM     12  C   UNL     1      -0.606  12.297  21.968  0.00  0.00    +0.000 A 
ATOM     13  C   UNL     1      -0.917  12.820  20.748  0.00  0.00    +0.000 A 
ATOM     14  S   UNL     1      -0.384  11.841  19.512  0.00  0.00    +0.000 S 
ATOM     15  C   UNL     1      -1.600  14.125  20.802  0.00  0.00    +0.000 C 
ATOM     16  C   UNL     1      -1.319  14.524  22.289  0.00  0.00    +0.000 C 
ATOM     17  C   UNL     1      -1.028  13.193  23.068  0.00  0.00    +0.000 C 
ATOM     18  H   UNL     1       1.219   9.060  21.144  0.00  0.00    +0.000 HD
ENDBRANCH   1   8
BRANCH   4  19
ATOM     19  S   UNL     1       4.215   3.967  18.527  0.00  0.00    +0.000 S 
ATOM     20  O   UNL     1       4.160   3.377  19.848  0.00  0.00    +0.000 OA
ATOM     21  O   UNL     1       3.580   3.299  17.405  0.00  0.00    +0.000 OA
BRANCH  19  22
ATOM     22  N   UNL     1       5.836   4.313  18.115  0.00  0.00    +0.000 N 
ATOM     23  C   UNL     1       6.686   4.984  19.116  0.00  0.00    +0.000 C 
ATOM     24  C   UNL     1       7.189   6.357  18.706  0.00  0.00    +0.000 C 
ATOM     25  C   UNL     1       7.338   6.633  17.217  0.00  0.00    +0.000 C 
ATOM     26  C   UNL     1       6.826   5.584  16.279  0.00  0.00    +0.000 A 
ATOM     27  C   UNL     1       7.011   5.781  14.897  0.00  0.00    +0.000 A 
ATOM     28  C   UNL     1       6.610   4.816  13.980  0.00  0.00    +0.000 A 
ATOM     29  C   UNL     1       6.048   3.631  14.430  0.00  0.00    +0.000 A 
ATOM     30  C   UNL     1       5.840   3.433  15.799  0.00  0.00    +0.000 A 
ATOM     31  C   UNL     1       6.186   4.424  16.725  0.00  0.00    +0.000 A 
ENDBRANCH  19  22
ENDBRANCH   4  19
TORSDOF 3
ENDMDL
MODEL 3
REMARK VINA RESULT:      -9.3      5.942      7.543
REMARK  Name = 
REMARK  3 active torsions:
REMARK  status: ('A' for Active; 'I' for Inactive)
REMARK    1  A    between atoms: C_2  and  C_12
REMARK    2  A    between atoms: C_15  and  S_16
REMARK    3  A    between atoms: S_16  and  N_19
REMARK                            x       y       z     vdW  Elec       q    Type
REMARK                         _______ _______ _______ _____ _____    ______ ____
ROOT
ATOM      1  C   UNL     1       1.114   9.887  19.047  0.00  0.00    +0.000 A 
ATOM      2  C   UNL     1       1.021   9.241  20.295  0.00  0.00    +0.000 A 
ATOM      3  C   UNL     1       1.583   7.982  20.501  0.00  0.00    +0.000 A 
ATOM      4  C   UNL     1       2.259   7.357  19.455  0.00  0.00    +0.000 A 
ATOM      5  C   UNL     1       2.385   7.994  18.217  0.00  0.00    +0.000 A 
ATOM      6  C   UNL     1       1.801   9.252  18.006  0.00  0.00    +0.000 A 
ENDROOT
BRANCH   1   8
ATOM      7  O   UNL     1      -0.702  11.319  18.812  0.00  0.00    +0.000 OA
ATOM      8  C   UNL     1       0.517  11.258  18.941  0.00  0.00    +0.000 C 
ATOM      9  N   UNL     1       1.382  12.335  18.951  0.00  0.00    +0.000 N 
ATOM     10  C   UNL     1       0.987  13.657  18.912  0.00  0.00    +0.000 A 
ATOM     11  N   UNL     1       1.828  14.635  18.605  0.00  0.00    +0.000 NA
ATOM     12  C   UNL     1       1.119  15.805  18.623  0.00  0.00    +0.000 A 
ATOM     13  C   UNL     1      -0.190  15.716  18.993  0.00  0.00    +0.000 A 
ATOM     14  S   UNL     1      -0.621  14.145  19.337  0.00  0.00    +0.000 S 
ATOM     15  C   UNL     1      -0.919  16.997  18.960  0.00  0.00    +0.000 C 
ATOM     16  C   UNL     1       0.079  17.863  18.122  0.00  0.00    +0.000 C 
ATOM     17  C   UNL     1       1.490  17.191  18.261  0.00  0.00    +0.000 C 
ATOM     18  H   UNL     1       2.368  12.213  18.788  0.00  0.00    +0.000 HD
ENDBRANCH   1   8
BRANCH   4  19
ATOM     19  S   UNL     1       2.945   5.729  19.718  0.00  0.00    +0.000 S 
ATOM     20  O   UNL     1       4.359   5.921  19.967  0.00  0.00    +0.000 OA
ATOM     21  O   UNL     1       2.113   5.078  20.714  0.00  0.00    +0.000 OA
BRANCH  19  22
ATOM     22  N   UNL     1       2.723   4.945  18.217  0.00  0.00    +0.000 N 
ATOM     23  C   UNL     1       1.671   3.918  18.112  0.00  0.00    +0.000 C 
ATOM     24  C   UNL     1       2.175   2.521  17.794  0.00  0.00    +0.000 C 
ATOM     25  C   UNL     1       3.485   2.406  17.028  0.00  0.00    +0.000 C 
ATOM     26  C   UNL     1       4.243   3.675  16.790  0.00  0.00    +0.000 A 
ATOM     27  C   UNL     1       5.424   3.608  16.025  0.00  0.00    +0.000 A 
ATOM     28  C   UNL     1       6.141   4.760  15.721  0.00  0.00    +0.000 A 
ATOM     29  C   UNL     1       5.674   5.994  16.149  0.00  0.00    +0.000 A 
ATOM     30  C   UNL     1       4.515   6.069  16.927  0.00  0.00    +0.000 A 
ATOM     31  C   UNL     1       3.819   4.910  17.288  0.00  0.00    +0.000 A 
ENDBRANCH  19  22
ENDBRANCH   4  19
TORSDOF 3
ENDMDL
MODEL 4
REMARK VINA RESULT:      -9.2      1.032      1.054
REMARK  Name = 
REMARK  3 active torsions:
REMARK  status: ('A' for Active; 'I' for Inactive)
REMARK    1  A    between atoms: C_2  and  C_12
REMARK    2  A    between atoms: C_15  and  S_16
REMARK    3  A    between atoms: S_16  and  N_19
REMARK                            x       y       z     vdW  Elec       q    Type
REMARK                         _______ _______ _______ _____ _____    ______ ____
ROOT
ATOM      1  C   UNL     1       8.203   8.559  18.359  0.00  0.00    +0.000 A 
ATOM      2  C   UNL     1       7.186   8.546  17.385  0.00  0.00    +0.000 A 
ATOM      3  C   UNL     1       6.464   7.386  17.108  0.00  0.00    +0.000 A 
ATOM      4  C   UNL     1       6.749   6.220  17.818  0.00  0.00    +0.000 A 
ATOM      5  C   UNL     1       7.737   6.220  18.807  0.00  0.00    +0.000 A 
ATOM      6  C   UNL     1       8.475   7.383  19.069  0.00  0.00    +0.000 A 
ENDROOT
BRANCH   1   8
ATOM      7  O   UNL     1       9.795   9.862  19.440  0.00  0.00    +0.000 OA
ATOM      8  C   UNL     1       8.888   9.868  18.614  0.00  0.00    +0.000 C 
ATOM      9  N   UNL     1       8.418  10.978  17.940  0.00  0.00    +0.000 N 
ATOM     10  C   UNL     1       8.971  12.240  18.027  0.00  0.00    +0.000 A 
ATOM     11  N   UNL     1       8.319  13.324  17.630  0.00  0.00    +0.000 NA
ATOM     12  C   UNL     1       9.124  14.401  17.882  0.00  0.00    +0.000 A 
ATOM     13  C   UNL     1      10.360  14.129  18.389  0.00  0.00    +0.000 A 
ATOM     14  S   UNL     1      10.590  12.493  18.592  0.00  0.00    +0.000 S 
ATOM     15  C   UNL     1      11.174  15.324  18.678  0.00  0.00    +0.000 C 
ATOM     16  C   UNL     1      10.071  16.432  18.620  0.00  0.00    +0.000 C 
ATOM     17  C   UNL     1       8.896  15.858  17.754  0.00  0.00    +0.000 C 
ATOM     18  H   UNL     1       7.516  10.973  17.493  0.00  0.00    +0.000 HD
ENDBRANCH   1   8
BRANCH   4  19
ATOM     19  S   UNL     1       5.844   4.730  17.431  0.00  0.00    +0.000 S 
ATOM     20  O   UNL     1       6.255   4.341  16.098  0.00  0.00    +0.000 OA
ATOM     21  O   UNL     1       6.038   3.820  18.546  0.00  0.00    +0.000 OA
BRANCH  19  22
ATOM     22  N   UNL     1       4.214   5.235  17.410  0.00  0.00    +0.000 N 
ATOM     23  C   UNL     1       3.926   6.680  17.473  0.00  0.00    +0.000 C 
ATOM     24  C   UNL     1       3.151   7.122  18.702  0.00  0.00    +0.000 C 
ATOM     25  C   UNL     1       2.243   6.096  19.364  0.00  0.00    +0.000 C 
ATOM     26  C   UNL     1       2.310   4.695  18.841  0.00  0.00    +0.000 A 
ATOM     27  C   UNL     1       1.432   3.740  19.388  0.00  0.00    +0.000 A 
ATOM     28  C   UNL     1       1.406   2.436  18.905  0.00  0.00    +0.000 A 
ATOM     29  C   UNL     1       2.233   2.077  17.850  0.00  0.00    +0.000 A 
ATOM     30  C   UNL     1       3.124   3.012  17.313  0.00  0.00    +0.000 A 
ATOM     31  C   UNL     1       3.198   4.309  17.833  0.00  0.00    +0.000 A 
ENDBRANCH  19  22
ENDBRANCH   4  19
TORSDOF 3
ENDMDL
MODEL 5
REMARK VINA RESULT:      -9.1      5.795      8.163
REMARK  Name = 
REMARK  3 active torsions:
REMARK  status: ('A' for Active; 'I' for Inactive)
REMARK    1  A    between atoms: C_2  and  C_12
REMARK    2  A    between atoms: C_15  and  S_16
REMARK    3  A    between atoms: S_16  and  N_19
REMARK                            x       y       z     vdW  Elec       q    Type
REMARK                         _______ _______ _______ _____ _____    ______ ____
ROOT
ATOM      1  C   UNL     1       1.790   7.324  20.119  0.00  0.00    +0.000 A 
ATOM      2  C   UNL     1       2.388   7.417  18.848  0.00  0.00    +0.000 A 
ATOM      3  C   UNL     1       2.887   6.288  18.199  0.00  0.00    +0.000 A 
ATOM      4  C   UNL     1       2.781   5.044  18.817  0.00  0.00    +0.000 A 
ATOM      5  C   UNL     1       2.167   4.927  20.067  0.00  0.00    +0.000 A 
ATOM      6  C   UNL     1       1.684   6.067  20.727  0.00  0.00    +0.000 A 
ENDROOT
BRANCH   1   8
ATOM      7  O   UNL     1       1.607   8.864  21.851  0.00  0.00    +0.000 OA
ATOM      8  C   UNL     1       1.243   8.588  20.712  0.00  0.00    +0.000 C 
ATOM      9  N   UNL     1       0.344   9.313  19.954  0.00  0.00    +0.000 N 
ATOM     10  C   UNL     1      -0.208  10.519  20.335  0.00  0.00    +0.000 A 
ATOM     11  N   UNL     1      -1.285  11.019  19.745  0.00  0.00    +0.000 NA
ATOM     12  C   UNL     1      -1.588  12.195  20.376  0.00  0.00    +0.000 A 
ATOM     13  C   UNL     1      -0.733  12.594  21.360  0.00  0.00    +0.000 A 
ATOM     14  S   UNL     1       0.511  11.508  21.564  0.00  0.00    +0.000 S 
ATOM     15  C   UNL     1      -1.125  13.846  22.034  0.00  0.00    +0.000 C 
ATOM     16  C   UNL     1      -2.608  13.968  21.552  0.00  0.00    +0.000 C 
ATOM     17  C   UNL     1      -2.728  13.129  20.231  0.00  0.00    +0.000 C 
ATOM     18  H   UNL     1      -0.114   8.904  19.156  0.00  0.00    +0.000 HD
ENDBRANCH   1   8
BRANCH   4  19
ATOM     19  S   UNL     1       3.455   3.609  17.994  0.00  0.00    +0.000 S 
ATOM     20  O   UNL     1       3.139   2.474  18.836  0.00  0.00    +0.000 OA
ATOM     21  O   UNL     1       2.982   3.651  16.622  0.00  0.00    +0.000 OA
BRANCH  19  22
ATOM     22  N   UNL     1       5.140   3.886  18.005  0.00  0.00    +0.000 N 
ATOM     23  C   UNL     1       5.772   4.315  19.266  0.00  0.00    +0.000 C 
ATOM     24  C   UNL     1       6.413   5.691  19.220  0.00  0.00    +0.000 C 
ATOM     25  C   UNL     1       6.903   6.192  17.869  0.00  0.00    +0.000 C 
ATOM     26  C   UNL     1       6.570   5.352  16.675  0.00  0.00    +0.000 A 
ATOM     27  C   UNL     1       7.068   5.755  15.421  0.00  0.00    +0.000 A 
ATOM     28  C   UNL     1       6.841   4.986  14.284  0.00  0.00    +0.000 A 
ATOM     29  C   UNL     1       6.142   3.793  14.389  0.00  0.00    +0.000 A 
ATOM     30  C   UNL     1       5.625   3.394  15.625  0.00  0.00    +0.000 A 
ATOM     31  C   UNL     1       5.797   4.191  16.763  0.00  0.00    +0.000 A 
ENDBRANCH  19  22
ENDBRANCH   4  19
TORSDOF 3
ENDMDL
MODEL 6
REMARK VINA RESULT:      -9.0      5.732      7.419
REMARK  Name = 
REMARK  3 active torsions:
REMARK  status: ('A' for Active; 'I' for Inactive)
REMARK    1  A    between atoms: C_2  and  C_12
REMARK    2  A    between atoms: C_15  and  S_16
REMARK    3  A    between atoms: S_16  and  N_19
REMARK                            x       y       z     vdW  Elec       q    Type
REMARK                         _______ _______ _______ _____ _____    ______ ____
ROOT
ATOM      1  C   UNL     1       1.848   7.576  19.794  0.00  0.00    +0.000 A 
ATOM      2  C   UNL     1       2.429   7.522  18.512  0.00  0.00    +0.000 A 
ATOM      3  C   UNL     1       2.934   6.329  17.996  0.00  0.00    +0.000 A 
ATOM      4  C   UNL     1       2.850   5.166  18.759  0.00  0.00    +0.000 A 
ATOM      5  C   UNL     1       2.253   5.194  20.023  0.00  0.00    +0.000 A 
ATOM      6  C   UNL     1       1.765   6.399  20.549  0.00  0.00    +0.000 A 
ENDROOT
BRANCH   1   8
ATOM      7  O   UNL     1       0.775   8.928  21.350  0.00  0.00    +0.000 OA
ATOM      8  C   UNL     1       1.295   8.896  20.239  0.00  0.00    +0.000 C 
ATOM      9  N   UNL     1       1.370   9.952  19.352  0.00  0.00    +0.000 N 
ATOM     10  C   UNL     1       0.953  11.239  19.629  0.00  0.00    +0.000 A 
ATOM     11  N   UNL     1       0.747  12.134  18.673  0.00  0.00    +0.000 NA
ATOM     12  C   UNL     1       0.312  13.283  19.275  0.00  0.00    +0.000 A 
ATOM     13  C   UNL     1       0.256  13.271  20.638  0.00  0.00    +0.000 A 
ATOM     14  S   UNL     1       0.742  11.803  21.254  0.00  0.00    +0.000 S 
ATOM     15  C   UNL     1      -0.254  14.518  21.236  0.00  0.00    +0.000 C 
ATOM     16  C   UNL     1      -0.882  15.195  19.973  0.00  0.00    +0.000 C 
ATOM     17  C   UNL     1      -0.174  14.567  18.722  0.00  0.00    +0.000 C 
ATOM     18  H   UNL     1       1.557   9.800  18.375  0.00  0.00    +0.000 HD
ENDBRANCH   1   8
BRANCH   4  19
ATOM     19  S   UNL     1       3.530   3.651  18.105  0.00  0.00    +0.000 S 
ATOM     20  O   UNL     1       3.235   2.620  19.079  0.00  0.00    +0.000 OA
ATOM     21  O   UNL     1       3.042   3.525  16.743  0.00  0.00    +0.000 OA
BRANCH  19  22
ATOM     22  N   UNL     1       5.212   3.942  18.062  0.00  0.00    +0.000 N 
ATOM     23  C   UNL     1       5.874   4.408  19.294  0.00  0.00    +0.000 C 
ATOM     24  C   UNL     1       6.501   5.788  19.197  0.00  0.00    +0.000 C 
ATOM     25  C   UNL     1       6.949   6.259  17.821  0.00  0.00    +0.000 C 
ATOM     26  C   UNL     1       6.591   5.387  16.658  0.00  0.00    +0.000 A 
ATOM     27  C   UNL     1       7.051   5.764  15.381  0.00  0.00    +0.000 A 
ATOM     28  C   UNL     1       6.801   4.965  14.270  0.00  0.00    +0.000 A 
ATOM     29  C   UNL     1       6.116   3.768  14.423  0.00  0.00    +0.000 A 
ATOM     30  C   UNL     1       5.636   3.396  15.683  0.00  0.00    +0.000 A 
ATOM     31  C   UNL     1       5.832   4.222  16.796  0.00  0.00    +0.000 A 
ENDBRANCH  19  22
ENDBRANCH   4  19
TORSDOF 3
ENDMDL
MODEL 7
REMARK VINA RESULT:      -8.9      6.201      7.927
REMARK  Name = 
REMARK  3 active torsions:
REMARK  status: ('A' for Active; 'I' for Inactive)
REMARK    1  A    between atoms: C_2  and  C_12
REMARK    2  A    between atoms: C_15  and  S_16
REMARK    3  A    between atoms: S_16  and  N_19
REMARK                            x       y       z     vdW  Elec       q    Type
REMARK                         _______ _______ _______ _____ _____    ______ ____
ROOT
ATOM      1  C   UNL     1       2.121   8.251  18.892  0.00  0.00    +0.000 A 
ATOM      2  C   UNL     1       2.226   7.297  19.922  0.00  0.00    +0.000 A 
ATOM      3  C   UNL     1       3.129   6.238  19.838  0.00  0.00    +0.000 A 
ATOM      4  C   UNL     1       3.952   6.131  18.718  0.00  0.00    +0.000 A 
ATOM      5  C   UNL     1       3.882   7.084  17.698  0.00  0.00    +0.000 A 
ATOM      6  C   UNL     1       2.957   8.136  17.775  0.00  0.00    +0.000 A 
ENDROOT
BRANCH   1   8
ATOM      7  O   UNL     1       0.637   9.850  18.092  0.00  0.00    +0.000 OA
ATOM      8  C   UNL     1       1.152   9.376  19.099  0.00  0.00    +0.000 C 
ATOM      9  N   UNL     1       0.952   9.818  20.393  0.00  0.00    +0.000 N 
ATOM     10  C   UNL     1       0.058  10.806  20.753  0.00  0.00    +0.000 A 
ATOM     11  N   UNL     1       0.119  11.417  21.928  0.00  0.00    +0.000 NA
ATOM     12  C   UNL     1      -0.876  12.355  21.954  0.00  0.00    +0.000 A 
ATOM     13  C   UNL     1      -1.694  12.403  20.864  0.00  0.00    +0.000 A 
ATOM     14  S   UNL     1      -1.258  11.270  19.725  0.00  0.00    +0.000 S 
ATOM     15  C   UNL     1      -2.725  13.455  20.924  0.00  0.00    +0.000 C 
ATOM     16  C   UNL     1      -2.164  14.328  22.095  0.00  0.00    +0.000 C 
ATOM     17  C   UNL     1      -1.225  13.400  22.943  0.00  0.00    +0.000 C 
ATOM     18  H   UNL     1       1.593   9.578  21.130  0.00  0.00    +0.000 HD
ENDBRANCH   1   8
BRANCH   4  19
ATOM     19  S   UNL     1       5.081   4.752  18.603  0.00  0.00    +0.000 S 
ATOM     20  O   UNL     1       5.858   4.964  17.399  0.00  0.00    +0.000 OA
ATOM     21  O   UNL     1       5.747   4.646  19.888  0.00  0.00    +0.000 OA
BRANCH  19  22
ATOM     22  N   UNL     1       4.057   3.401  18.400  0.00  0.00    +0.000 N 
ATOM     23  C   UNL     1       3.739   2.962  17.029  0.00  0.00    +0.000 C 
ATOM     24  C   UNL     1       2.269   3.051  16.657  0.00  0.00    +0.000 C 
ATOM     25  C   UNL     1       1.253   2.949  17.785  0.00  0.00    +0.000 C 
ATOM     26  C   UNL     1       1.793   2.927  19.182  0.00  0.00    +0.000 A 
ATOM     27  C   UNL     1       0.881   2.765  20.243  0.00  0.00    +0.000 A 
ATOM     28  C   UNL     1       1.326   2.678  21.557  0.00  0.00    +0.000 A 
ATOM     29  C   UNL     1       2.686   2.722  21.827  0.00  0.00    +0.000 A 
ATOM     30  C   UNL     1       3.598   2.905  20.784  0.00  0.00    +0.000 A 
ATOM     31  C   UNL     1       3.156   3.052  19.464  0.00  0.00    +0.000 A 
ENDBRANCH  19  22
ENDBRANCH   4  19
TORSDOF 3
ENDMDL
MODEL 8
REMARK VINA RESULT:      -8.9      5.303      6.816
REMARK  Name = 
REMARK  3 active torsions:
REMARK  status: ('A' for Active; 'I' for Inactive)
REMARK    1  A    between atoms: C_2  and  C_12
REMARK    2  A    between atoms: C_15  and  S_16
REMARK    3  A    between atoms: S_16  and  N_19
REMARK                            x       y       z     vdW  Elec       q    Type
REMARK                         _______ _______ _______ _____ _____    ______ ____
ROOT
ATOM      1  C   UNL     1       2.153   8.453  18.506  0.00  0.00    +0.000 A 
ATOM      2  C   UNL     1       1.981   7.582  19.599  0.00  0.00    +0.000 A 
ATOM      3  C   UNL     1       2.546   6.307  19.604  0.00  0.00    +0.000 A 
ATOM      4  C   UNL     1       3.306   5.893  18.512  0.00  0.00    +0.000 A 
ATOM      5  C   UNL     1       3.511   6.753  17.429  0.00  0.00    +0.000 A 
ATOM      6  C   UNL     1       2.923   8.027  17.417  0.00  0.00    +0.000 A 
ENDROOT
BRANCH   1   8
ATOM      7  O   UNL     1       0.323   9.867  18.733  0.00  0.00    +0.000 OA
ATOM      8  C   UNL     1       1.544   9.817  18.617  0.00  0.00    +0.000 C 
ATOM      9  N   UNL     1       2.391  10.905  18.532  0.00  0.00    +0.000 N 
ATOM     10  C   UNL     1       1.993  12.220  18.666  0.00  0.00    +0.000 A 
ATOM     11  N   UNL     1       2.756  13.230  18.270  0.00  0.00    +0.000 NA
ATOM     12  C   UNL     1       2.061  14.385  18.510  0.00  0.00    +0.000 A 
ATOM     13  C   UNL     1       0.851  14.249  19.123  0.00  0.00    +0.000 A 
ATOM     14  S   UNL     1       0.500  12.652  19.432  0.00  0.00    +0.000 S 
ATOM     15  C   UNL     1       0.127  15.518  19.325  0.00  0.00    +0.000 C 
ATOM     16  C   UNL     1       0.938  16.455  18.370  0.00  0.00    +0.000 C 
ATOM     17  C   UNL     1       2.351  15.799  18.182  0.00  0.00    +0.000 C 
ATOM     18  H   UNL     1       3.326  10.810  18.171  0.00  0.00    +0.000 HD
ENDBRANCH   1   8
BRANCH   4  19
ATOM     19  S   UNL     1       3.996   4.246  18.512  0.00  0.00    +0.000 S 
ATOM     20  O   UNL     1       3.859   3.750  19.866  0.00  0.00    +0.000 OA
ATOM     21  O   UNL     1       3.379   3.531  17.410  0.00  0.00    +0.000 OA
BRANCH  19  22
ATOM     22  N   UNL     1       5.647   4.495  18.152  0.00  0.00    +0.000 N 
ATOM     23  C   UNL     1       6.486   5.185  19.149  0.00  0.00    +0.000 C 
ATOM     24  C   UNL     1       7.070   6.508  18.683  0.00  0.00    +0.000 C 
ATOM     25  C   UNL     1       7.291   6.689  17.189  0.00  0.00    +0.000 C 
ATOM     26  C   UNL     1       6.770   5.609  16.292  0.00  0.00    +0.000 A 
ATOM     27  C   UNL     1       7.020   5.716  14.910  0.00  0.00    +0.000 A 
ATOM     28  C   UNL     1       6.612   4.718  14.032  0.00  0.00    +0.000 A 
ATOM     29  C   UNL     1       5.977   3.587  14.525  0.00  0.00    +0.000 A 
ATOM     30  C   UNL     1       5.704   3.480  15.892  0.00  0.00    +0.000 A 
ATOM     31  C   UNL     1       6.058   4.507  16.774  0.00  0.00    +0.000 A 
ENDBRANCH  19  22
ENDBRANCH   4  19
TORSDOF 3
ENDMDL
MODEL 9
REMARK VINA RESULT:      -8.6      6.368      9.163
REMARK  Name = 
REMARK  3 active torsions:
REMARK  status: ('A' for Active; 'I' for Inactive)
REMARK    1  A    between atoms: C_2  and  C_12
REMARK    2  A    between atoms: C_15  and  S_16
REMARK    3  A    between atoms: S_16  and  N_19
REMARK                            x       y       z     vdW  Elec       q    Type
REMARK                         _______ _______ _______ _____ _____    ______ ____
ROOT
ATOM      1  C   UNL     1       0.665   9.449  19.952  0.00  0.00    +0.000 A 
ATOM      2  C   UNL     1       0.722   8.596  21.070  0.00  0.00    +0.000 A 
ATOM      3  C   UNL     1       1.477   7.424  21.048  0.00  0.00    +0.000 A 
ATOM      4  C   UNL     1       2.198   7.098  19.901  0.00  0.00    +0.000 A 
ATOM      5  C   UNL     1       2.175   7.946  18.790  0.00  0.00    +0.000 A 
ATOM      6  C   UNL     1       1.398   9.114  18.807  0.00  0.00    +0.000 A 
ENDROOT
BRANCH   1   8
ATOM      7  O   UNL     1      -0.187  11.441  19.110  0.00  0.00    +0.000 OA
ATOM      8  C   UNL     1      -0.139  10.707  20.092  0.00  0.00    +0.000 C 
ATOM      9  N   UNL     1      -0.718  10.962  21.320  0.00  0.00    +0.000 N 
ATOM     10  C   UNL     1      -1.526  12.047  21.594  0.00  0.00    +0.000 A 
ATOM     11  N   UNL     1      -1.797  12.427  22.835  0.00  0.00    +0.000 NA
ATOM     12  C   UNL     1      -2.588  13.541  22.758  0.00  0.00    +0.000 A 
ATOM     13  C   UNL     1      -2.949  13.944  21.506  0.00  0.00    +0.000 A 
ATOM     14  S   UNL     1      -2.308  12.947  20.337  0.00  0.00    +0.000 S 
ATOM     15  C   UNL     1      -3.768  15.169  21.475  0.00  0.00    +0.000 C 
ATOM     16  C   UNL     1      -3.537  15.695  22.931  0.00  0.00    +0.000 C 
ATOM     17  C   UNL     1      -3.108  14.459  23.796  0.00  0.00    +0.000 C 
ATOM     18  H   UNL     1      -0.423  10.470  22.147  0.00  0.00    +0.000 HD
ENDBRANCH   1   8
BRANCH   4  19
ATOM     19  S   UNL     1       3.134   5.578  19.869  0.00  0.00    +0.000 S 
ATOM     20  O   UNL     1       4.530   5.960  19.932  0.00  0.00    +0.000 OA
ATOM     21  O   UNL     1       2.570   4.716  20.892  0.00  0.00    +0.000 OA
BRANCH  19  22
ATOM     22  N   UNL     1       2.785   4.915  18.335  0.00  0.00    +0.000 N 
ATOM     23  C   UNL     1       1.729   3.891  18.238  0.00  0.00    +0.000 C 
ATOM     24  C   UNL     1       2.206   2.528  17.767  0.00  0.00    +0.000 C 
ATOM     25  C   UNL     1       3.445   2.485  16.885  0.00  0.00    +0.000 C 
ATOM     26  C   UNL     1       4.178   3.774  16.685  0.00  0.00    +0.000 A 
ATOM     27  C   UNL     1       5.289   3.779  15.819  0.00  0.00    +0.000 A 
ATOM     28  C   UNL     1       5.976   4.957  15.548  0.00  0.00    +0.000 A 
ATOM     29  C   UNL     1       5.547   6.149  16.113  0.00  0.00    +0.000 A 
ATOM     30  C   UNL     1       4.459   6.153  16.991  0.00  0.00    +0.000 A 
ATOM     31  C   UNL     1       3.798   4.963  17.316  0.00  0.00    +0.000 A 
ENDBRANCH  19  22
ENDBRANCH   4  19
TORSDOF 3
ENDMDL
