MODEL 1
REMARK VINA RESULT:      -8.1      0.000      0.000
REMARK  Name = 
REMARK  6 active torsions:
REMARK  status: ('A' for Active; 'I' for Inactive)
REMARK    1  A    between atoms: C_1  and  N_2
REMARK    2  A    between atoms: C_4  and  C_5
REMARK    3  A    between atoms: C_9  and  C_10
REMARK    4  A    between atoms: C_10  and  N_11
REMARK    5  A    between atoms: N_11  and  C_12
REMARK    6  A    between atoms: C_15  and  C_16
REMARK                            x       y       z     vdW  Elec       q    Type
REMARK                         _______ _______ _______ _____ _____    ______ ____
ROOT
ATOM      1  C   UNL     1       7.277   5.677  17.812  0.00  0.00    +0.000 A 
ATOM      2  C   UNL     1       7.020   6.736  16.929  0.00  0.00    +0.000 A 
ATOM      3  C   UNL     1       7.510   8.030  17.170  0.00  0.00    +0.000 A 
ATOM      4  C   UNL     1       8.246   8.307  18.327  0.00  0.00    +0.000 A 
ATOM      5  C   UNL     1       8.429   7.270  19.249  0.00  0.00    +0.000 A 
ATOM      6  C   UNL     1       7.936   5.982  19.005  0.00  0.00    +0.000 A 
ENDROOT
BRANCH   4   7
ATOM      7  C   UNL     1       8.837   9.610  18.601  0.00  0.00    +0.000 A 
ATOM      8  C   UNL     1       8.981  10.670  17.726  0.00  0.00    +0.000 A 
ATOM      9  N   UNL     1       9.646  11.646  18.430  0.00  0.00    +0.000 N 
ATOM     10  C   UNL     1      10.065  12.915  18.024  0.00  0.00    +0.000 A 
ATOM     11  C   UNL     1      10.723  13.698  18.898  0.00  0.00    +0.000 A 
ATOM     12  C   UNL     1      10.971  13.199  20.243  0.00  0.00    +0.000 A 
ATOM     13  C   UNL     1      10.557  11.976  20.628  0.00  0.00    +0.000 A 
ATOM     14  C   UNL     1       9.865  11.142  19.706  0.00  0.00    +0.000 A 
ATOM     15  N   UNL     1       9.383   9.925  19.830  0.00  0.00    +0.000 NA
ENDBRANCH   4   7
BRANCH   1  16
ATOM     16  N   UNL     1       6.765   4.401  17.516  0.00  0.00    +0.000 N 
ATOM     17  H   UNL     1       6.974   3.751  18.272  0.00  0.00    +0.000 HD
BRANCH  16  18
ATOM     18  C   UNL     1       5.361   4.310  17.114  0.00  0.00    +0.000 C 
BRANCH  18  24
ATOM     19  C   UNL     1       3.693   6.891  17.557  0.00  0.00    +0.000 C 
ATOM     20  N   UNL     1       3.672   5.707  18.384  0.00  0.00    +0.000 N 
ATOM     21  N   UNL     1       2.827   5.663  19.432  0.00  0.00    +0.000 NA
ATOM     22  C   UNL     1       3.063   4.474  19.990  0.00  0.00    +0.000 A 
ATOM     23  C   UNL     1       4.069   3.763  19.311  0.00  0.00    +0.000 A 
ATOM     24  C   UNL     1       4.411   4.562  18.235  0.00  0.00    +0.000 A 
BRANCH  22  25
ATOM     25  C   UNL     1       2.263   4.004  21.192  0.00  0.00    +0.000 C 
ATOM     26  C   UNL     1       2.331   2.567  21.661  0.00  0.00    +0.000 C 
ATOM     27  C   UNL     1       1.104   3.052  20.969  0.00  0.00    +0.000 C 
ENDBRANCH  22  25
ENDBRANCH  18  24
ENDBRANCH  16  18
ENDBRANCH   1  16
TORSDOF 5
ENDMDL
MODEL 2
REMARK VINA RESULT:      -8.1      4.351      7.810
REMARK  Name = 
REMARK  6 active torsions:
REMARK  status: ('A' for Active; 'I' for Inactive)
REMARK    1  A    between atoms: C_1  and  N_2
REMARK    2  A    between atoms: C_4  and  C_5
REMARK    3  A    between atoms: C_9  and  C_10
REMARK    4  A    between atoms: C_10  and  N_11
REMARK    5  A    between atoms: N_11  and  C_12
REMARK    6  A    between atoms: C_15  and  C_16
REMARK                            x       y       z     vdW  Elec       q    Type
REMARK                         _______ _______ _______ _____ _____    ______ ____
ROOT
ATOM      1  C   UNL     1       3.325   5.349  18.904  0.00  0.00    +0.000 A 
ATOM      2  C   UNL     1       3.194   6.536  18.168  0.00  0.00    +0.000 A 
ATOM      3  C   UNL     1       2.456   7.627  18.656  0.00  0.00    +0.000 A 
ATOM      4  C   UNL     1       1.796   7.545  19.886  0.00  0.00    +0.000 A 
ATOM      5  C   UNL     1       1.856   6.331  20.581  0.00  0.00    +0.000 A 
ATOM      6  C   UNL     1       2.592   5.245  20.089  0.00  0.00    +0.000 A 
ENDROOT
BRANCH   4   7
ATOM      7  C   UNL     1       1.071   8.662  20.477  0.00  0.00    +0.000 A 
ATOM      8  C   UNL     1       0.955   9.946  19.981  0.00  0.00    +0.000 A 
ATOM      9  N   UNL     1       0.230  10.643  20.917  0.00  0.00    +0.000 N 
ATOM     10  C   UNL     1      -0.162  11.984  20.932  0.00  0.00    +0.000 A 
ATOM     11  C   UNL     1      -0.863  12.451  21.981  0.00  0.00    +0.000 A 
ATOM     12  C   UNL     1      -1.197  11.540  23.066  0.00  0.00    +0.000 A 
ATOM     13  C   UNL     1      -0.821  10.246  23.041  0.00  0.00    +0.000 A 
ATOM     14  C   UNL     1      -0.075   9.748  21.937  0.00  0.00    +0.000 A 
ATOM     15  N   UNL     1       0.416   8.554  21.688  0.00  0.00    +0.000 NA
ENDBRANCH   4   7
BRANCH   1  16
ATOM     16  N   UNL     1       4.082   4.292  18.369  0.00  0.00    +0.000 N 
ATOM     17  H   UNL     1       3.685   3.983  17.484  0.00  0.00    +0.000 HD
BRANCH  16  18
ATOM     18  C   UNL     1       5.529   4.481  18.260  0.00  0.00    +0.000 C 
BRANCH  18  24
ATOM     19  C   UNL     1       7.311   6.704  17.025  0.00  0.00    +0.000 C 
ATOM     20  N   UNL     1       6.818   5.527  16.347  0.00  0.00    +0.000 N 
ATOM     21  N   UNL     1       7.181   5.315  15.067  0.00  0.00    +0.000 NA
ATOM     22  C   UNL     1       6.556   4.185  14.734  0.00  0.00    +0.000 A 
ATOM     23  C   UNL     1       5.779   3.681  15.792  0.00  0.00    +0.000 A 
ATOM     24  C   UNL     1       6.010   4.540  16.851  0.00  0.00    +0.000 A 
BRANCH  22  25
ATOM     25  C   UNL     1       6.749   3.562  13.363  0.00  0.00    +0.000 C 
ATOM     26  C   UNL     1       6.835   4.422  12.121  0.00  0.00    +0.000 C 
ATOM     27  C   UNL     1       5.606   3.618  12.369  0.00  0.00    +0.000 C 
ENDBRANCH  22  25
ENDBRANCH  18  24
ENDBRANCH  16  18
ENDBRANCH   1  16
TORSDOF 5
ENDMDL
MODEL 3
REMARK VINA RESULT:      -8.0      0.668      1.538
REMARK  Name = 
REMARK  6 active torsions:
REMARK  status: ('A' for Active; 'I' for Inactive)
REMARK    1  A    between atoms: C_1  and  N_2
REMARK    2  A    between atoms: C_4  and  C_5
REMARK    3  A    between atoms: C_9  and  C_10
REMARK    4  A    between atoms: C_10  and  N_11
REMARK    5  A    between atoms: N_11  and  C_12
REMARK    6  A    between atoms: C_15  and  C_16
REMARK                            x       y       z     vdW  Elec       q    Type
REMARK                         _______ _______ _______ _____ _____    ______ ____
ROOT
ATOM      1  C   UNL     1       7.092   5.551  17.692  0.00  0.00    +0.000 A 
ATOM      2  C   UNL     1       7.820   5.795  18.866  0.00  0.00    +0.000 A 
ATOM      3  C   UNL     1       8.358   7.062  19.149  0.00  0.00    +0.000 A 
ATOM      4  C   UNL     1       8.210   8.115  18.240  0.00  0.00    +0.000 A 
ATOM      5  C   UNL     1       7.558   7.848  17.031  0.00  0.00    +0.000 A 
ATOM      6  C   UNL     1       7.025   6.583  16.753  0.00  0.00    +0.000 A 
ENDROOT
BRANCH   4   7
ATOM      7  C   UNL     1       8.686   9.467  18.504  0.00  0.00    +0.000 A 
ATOM      8  C   UNL     1       9.400   9.908  19.601  0.00  0.00    +0.000 A 
ATOM      9  N   UNL     1       9.560  11.261  19.422  0.00  0.00    +0.000 N 
ATOM     10  C   UNL     1      10.189  12.205  20.237  0.00  0.00    +0.000 A 
ATOM     11  C   UNL     1      10.204  13.495  19.854  0.00  0.00    +0.000 A 
ATOM     12  C   UNL     1       9.569  13.865  18.597  0.00  0.00    +0.000 A 
ATOM     13  C   UNL     1       8.971  12.946  17.814  0.00  0.00    +0.000 A 
ATOM     14  C   UNL     1       8.947  11.581  18.216  0.00  0.00    +0.000 A 
ATOM     15  N   UNL     1       8.422  10.518  17.649  0.00  0.00    +0.000 NA
ENDBRANCH   4   7
BRANCH   1  16
ATOM     16  N   UNL     1       6.572   4.265  17.465  0.00  0.00    +0.000 N 
ATOM     17  H   UNL     1       6.810   3.644  18.236  0.00  0.00    +0.000 HD
BRANCH  16  18
ATOM     18  C   UNL     1       5.153   4.159  17.122  0.00  0.00    +0.000 C 
BRANCH  18  24
ATOM     19  C   UNL     1       3.637   6.823  17.622  0.00  0.00    +0.000 C 
ATOM     20  N   UNL     1       3.574   5.635  18.443  0.00  0.00    +0.000 N 
ATOM     21  N   UNL     1       2.756   5.629  19.513  0.00  0.00    +0.000 NA
ATOM     22  C   UNL     1       2.942   4.425  20.058  0.00  0.00    +0.000 A 
ATOM     23  C   UNL     1       3.891   3.667  19.349  0.00  0.00    +0.000 A 
ATOM     24  C   UNL     1       4.247   4.453  18.269  0.00  0.00    +0.000 A 
BRANCH  22  25
ATOM     25  C   UNL     1       2.149   3.991  21.278  0.00  0.00    +0.000 C 
ATOM     26  C   UNL     1       2.286   2.592  21.839  0.00  0.00    +0.000 C 
ATOM     27  C   UNL     1       1.046   2.965  21.103  0.00  0.00    +0.000 C 
ENDBRANCH  22  25
ENDBRANCH  18  24
ENDBRANCH  16  18
ENDBRANCH   1  16
TORSDOF 5
ENDMDL
MODEL 4
REMARK VINA RESULT:      -7.9      4.299      7.836
REMARK  Name = 
REMARK  6 active torsions:
REMARK  status: ('A' for Active; 'I' for Inactive)
REMARK    1  A    between atoms: C_1  and  N_2
REMARK    2  A    between atoms: C_4  and  C_5
REMARK    3  A    between atoms: C_9  and  C_10
REMARK    4  A    between atoms: C_10  and  N_11
REMARK    5  A    between atoms: N_11  and  C_12
REMARK    6  A    between atoms: C_15  and  C_16
REMARK                            x       y       z     vdW  Elec       q    Type
REMARK                         _______ _______ _______ _____ _____    ______ ____
ROOT
ATOM      1  C   UNL     1       3.226   5.236  18.641  0.00  0.00    +0.000 A 
ATOM      2  C   UNL     1       2.669   5.104  19.921  0.00  0.00    +0.000 A 
ATOM      3  C   UNL     1       1.989   6.165  20.541  0.00  0.00    +0.000 A 
ATOM      4  C   UNL     1       1.881   7.407  19.906  0.00  0.00    +0.000 A 
ATOM      5  C   UNL     1       2.511   7.564  18.666  0.00  0.00    +0.000 A 
ATOM      6  C   UNL     1       3.189   6.503  18.052  0.00  0.00    +0.000 A 
ENDROOT
BRANCH   4   7
ATOM      7  C   UNL     1       1.134   8.525  20.466  0.00  0.00    +0.000 A 
ATOM      8  C   UNL     1       0.921   9.765  19.895  0.00  0.00    +0.000 A 
ATOM      9  N   UNL     1       0.217  10.489  20.827  0.00  0.00    +0.000 N 
ATOM     10  C   UNL     1      -0.243  11.807  20.778  0.00  0.00    +0.000 A 
ATOM     11  C   UNL     1      -0.904  12.311  21.836  0.00  0.00    +0.000 A 
ATOM     12  C   UNL     1      -1.124  11.462  22.998  0.00  0.00    +0.000 A 
ATOM     13  C   UNL     1      -0.683  10.189  23.035  0.00  0.00    +0.000 A 
ATOM     14  C   UNL     1       0.021   9.653  21.920  0.00  0.00    +0.000 A 
ATOM     15  N   UNL     1       0.559   8.470  21.720  0.00  0.00    +0.000 NA
ENDBRANCH   4   7
BRANCH   1  16
ATOM     16  N   UNL     1       3.890   4.137  18.066  0.00  0.00    +0.000 N 
ATOM     17  H   UNL     1       3.466   3.894  17.173  0.00  0.00    +0.000 HD
BRANCH  16  18
ATOM     18  C   UNL     1       5.347   4.207  17.958  0.00  0.00    +0.000 C 
BRANCH  18  24
ATOM     19  C   UNL     1       7.483   6.346  17.246  0.00  0.00    +0.000 C 
ATOM     20  N   UNL     1       6.784   5.492  16.314  0.00  0.00    +0.000 N 
ATOM     21  N   UNL     1       7.093   5.570  15.005  0.00  0.00    +0.000 NA
ATOM     22  C   UNL     1       6.275   4.690  14.425  0.00  0.00    +0.000 A 
ATOM     23  C   UNL     1       5.431   4.061  15.356  0.00  0.00    +0.000 A 
ATOM     24  C   UNL     1       5.819   4.557  16.587  0.00  0.00    +0.000 A 
BRANCH  22  25
ATOM     25  C   UNL     1       6.343   4.431  12.930  0.00  0.00    +0.000 C 
ATOM     26  C   UNL     1       5.446   3.403  12.276  0.00  0.00    +0.000 C 
ATOM     27  C   UNL     1       6.895   3.105  12.445  0.00  0.00    +0.000 C 
ENDBRANCH  22  25
ENDBRANCH  18  24
ENDBRANCH  16  18
ENDBRANCH   1  16
TORSDOF 5
ENDMDL
MODEL 5
REMARK VINA RESULT:      -7.8      0.628      1.189
REMARK  Name = 
REMARK  6 active torsions:
REMARK  status: ('A' for Active; 'I' for Inactive)
REMARK    1  A    between atoms: C_1  and  N_2
REMARK    2  A    between atoms: C_4  and  C_5
REMARK    3  A    between atoms: C_9  and  C_10
REMARK    4  A    between atoms: C_10  and  N_11
REMARK    5  A    between atoms: N_11  and  C_12
REMARK    6  A    between atoms: C_15  and  C_16
REMARK                            x       y       z     vdW  Elec       q    Type
REMARK                         _______ _______ _______ _____ _____    ______ ____
ROOT
ATOM      1  C   UNL     1       7.075   5.986  17.737  0.00  0.00    +0.000 A 
ATOM      2  C   UNL     1       6.818   7.130  16.967  0.00  0.00    +0.000 A 
ATOM      3  C   UNL     1       7.423   8.364  17.257  0.00  0.00    +0.000 A 
ATOM      4  C   UNL     1       8.281   8.494  18.355  0.00  0.00    +0.000 A 
ATOM      5  C   UNL     1       8.470   7.373  19.173  0.00  0.00    +0.000 A 
ATOM      6  C   UNL     1       7.862   6.145  18.880  0.00  0.00    +0.000 A 
ENDROOT
BRANCH   4   7
ATOM      7  C   UNL     1       8.990   9.727  18.669  0.00  0.00    +0.000 A 
ATOM      8  C   UNL     1       9.366  10.186  19.917  0.00  0.00    +0.000 A 
ATOM      9  N   UNL     1       9.949  11.412  19.703  0.00  0.00    +0.000 N 
ATOM     10  C   UNL     1      10.488  12.320  20.617  0.00  0.00    +0.000 A 
ATOM     11  C   UNL     1      10.995  13.482  20.165  0.00  0.00    +0.000 A 
ATOM     12  C   UNL     1      10.973  13.751  18.735  0.00  0.00    +0.000 A 
ATOM     13  C   UNL     1      10.457  12.866  17.859  0.00  0.00    +0.000 A 
ATOM     14  C   UNL     1       9.914  11.639  18.332  0.00  0.00    +0.000 A 
ATOM     15  N   UNL     1       9.348  10.637  17.695  0.00  0.00    +0.000 NA
ENDBRANCH   4   7
BRANCH   1  16
ATOM     16  N   UNL     1       6.445   4.776  17.396  0.00  0.00    +0.000 N 
ATOM     17  H   UNL     1       6.614   4.073  18.113  0.00  0.00    +0.000 HD
BRANCH  16  18
ATOM     18  C   UNL     1       5.029   4.829  17.032  0.00  0.00    +0.000 C 
BRANCH  18  24
ATOM     19  C   UNL     1       3.381   7.349  17.791  0.00  0.00    +0.000 C 
ATOM     20  N   UNL     1       3.392   6.089  18.498  0.00  0.00    +0.000 N 
ATOM     21  N   UNL     1       2.589   5.939  19.570  0.00  0.00    +0.000 NA
ATOM     22  C   UNL     1       2.847   4.702  19.999  0.00  0.00    +0.000 A 
ATOM     23  C   UNL     1       3.825   4.065  19.215  0.00  0.00    +0.000 A 
ATOM     24  C   UNL     1       4.124   4.966  18.209  0.00  0.00    +0.000 A 
BRANCH  22  25
ATOM     25  C   UNL     1       2.095   4.114  21.180  0.00  0.00    +0.000 C 
ATOM     26  C   UNL     1       2.361   2.700  21.647  0.00  0.00    +0.000 C 
ATOM     27  C   UNL     1       1.093   3.004  20.926  0.00  0.00    +0.000 C 
ENDBRANCH  22  25
ENDBRANCH  18  24
ENDBRANCH  16  18
ENDBRANCH   1  16
TORSDOF 5
ENDMDL
MODEL 6
REMARK VINA RESULT:      -7.8      0.471      1.045
REMARK  Name = 
REMARK  6 active torsions:
REMARK  status: ('A' for Active; 'I' for Inactive)
REMARK    1  A    between atoms: C_1  and  N_2
REMARK    2  A    between atoms: C_4  and  C_5
REMARK    3  A    between atoms: C_9  and  C_10
REMARK    4  A    between atoms: C_10  and  N_11
REMARK    5  A    between atoms: N_11  and  C_12
REMARK    6  A    between atoms: C_15  and  C_16
REMARK                            x       y       z     vdW  Elec       q    Type
REMARK                         _______ _______ _______ _____ _____    ______ ____
ROOT
ATOM      1  C   UNL     1       6.938   6.121  17.735  0.00  0.00    +0.000 A 
ATOM      2  C   UNL     1       7.852   6.187  18.797  0.00  0.00    +0.000 A 
ATOM      3  C   UNL     1       8.516   7.381  19.124  0.00  0.00    +0.000 A 
ATOM      4  C   UNL     1       8.307   8.539  18.368  0.00  0.00    +0.000 A 
ATOM      5  C   UNL     1       7.461   8.451  17.257  0.00  0.00    +0.000 A 
ATOM      6  C   UNL     1       6.803   7.257  16.934  0.00  0.00    +0.000 A 
ENDROOT
BRANCH   4   7
ATOM      7  C   UNL     1       8.914   9.823  18.695  0.00  0.00    +0.000 A 
ATOM      8  C   UNL     1       9.308  10.815  17.818  0.00  0.00    +0.000 A 
ATOM      9  N   UNL     1       9.873  11.797  18.595  0.00  0.00    +0.000 N 
ATOM     10  C   UNL     1      10.452  13.012  18.223  0.00  0.00    +0.000 A 
ATOM     11  C   UNL     1      10.963  13.814  19.176  0.00  0.00    +0.000 A 
ATOM     12  C   UNL     1      10.891  13.390  20.567  0.00  0.00    +0.000 A 
ATOM     13  C   UNL     1      10.325  12.218  20.917  0.00  0.00    +0.000 A 
ATOM     14  C   UNL     1       9.787  11.365  19.914  0.00  0.00    +0.000 A 
ATOM     15  N   UNL     1       9.210  10.186  19.994  0.00  0.00    +0.000 NA
ENDBRANCH   4   7
BRANCH   1  16
ATOM     16  N   UNL     1       6.298   4.900  17.458  0.00  0.00    +0.000 N 
ATOM     17  H   UNL     1       6.462   4.234  18.211  0.00  0.00    +0.000 HD
BRANCH  16  18
ATOM     18  C   UNL     1       4.883   4.945  17.092  0.00  0.00    +0.000 C 
BRANCH  18  24
ATOM     19  C   UNL     1       3.152   7.402  17.876  0.00  0.00    +0.000 C 
ATOM     20  N   UNL     1       3.205   6.135  18.569  0.00  0.00    +0.000 N 
ATOM     21  N   UNL     1       2.407   5.948  19.639  0.00  0.00    +0.000 NA
ATOM     22  C   UNL     1       2.704   4.716  20.055  0.00  0.00    +0.000 A 
ATOM     23  C   UNL     1       3.703   4.119  19.265  0.00  0.00    +0.000 A 
ATOM     24  C   UNL     1       3.973   5.040  18.269  0.00  0.00    +0.000 A 
BRANCH  22  25
ATOM     25  C   UNL     1       1.971   4.091  21.229  0.00  0.00    +0.000 C 
ATOM     26  C   UNL     1       2.380   2.740  21.774  0.00  0.00    +0.000 C 
ATOM     27  C   UNL     1       1.121   2.859  20.985  0.00  0.00    +0.000 C 
ENDBRANCH  22  25
ENDBRANCH  18  24
ENDBRANCH  16  18
ENDBRANCH   1  16
TORSDOF 5
ENDMDL
MODEL 7
REMARK VINA RESULT:      -7.8      4.269      7.818
REMARK  Name = 
REMARK  6 active torsions:
REMARK  status: ('A' for Active; 'I' for Inactive)
REMARK    1  A    between atoms: C_1  and  N_2
REMARK    2  A    between atoms: C_4  and  C_5
REMARK    3  A    between atoms: C_9  and  C_10
REMARK    4  A    between atoms: C_10  and  N_11
REMARK    5  A    between atoms: N_11  and  C_12
REMARK    6  A    between atoms: C_15  and  C_16
REMARK                            x       y       z     vdW  Elec       q    Type
REMARK                         _______ _______ _______ _____ _____    ______ ____
ROOT
ATOM      1  C   UNL     1       3.356   5.186  18.730  0.00  0.00    +0.000 A 
ATOM      2  C   UNL     1       3.280   6.413  18.056  0.00  0.00    +0.000 A 
ATOM      3  C   UNL     1       2.580   7.506  18.593  0.00  0.00    +0.000 A 
ATOM      4  C   UNL     1       1.905   7.387  19.812  0.00  0.00    +0.000 A 
ATOM      5  C   UNL     1       1.909   6.137  20.443  0.00  0.00    +0.000 A 
ATOM      6  C   UNL     1       2.607   5.049  19.901  0.00  0.00    +0.000 A 
ENDROOT
BRANCH   4   7
ATOM      7  C   UNL     1       1.218   8.500  20.454  0.00  0.00    +0.000 A 
ATOM      8  C   UNL     1       0.777   8.575  21.761  0.00  0.00    +0.000 A 
ATOM      9  N   UNL     1       0.142   9.789  21.871  0.00  0.00    +0.000 N 
ATOM     10  C   UNL     1      -0.503  10.367  22.966  0.00  0.00    +0.000 A 
ATOM     11  C   UNL     1      -1.075  11.577  22.827  0.00  0.00    +0.000 A 
ATOM     12  C   UNL     1      -0.997  12.249  21.537  0.00  0.00    +0.000 A 
ATOM     13  C   UNL     1      -0.366  11.687  20.487  0.00  0.00    +0.000 A 
ATOM     14  C   UNL     1       0.236  10.405  20.628  0.00  0.00    +0.000 A 
ATOM     15  N   UNL     1       0.882   9.650  19.767  0.00  0.00    +0.000 NA
ENDBRANCH   4   7
BRANCH   1  16
ATOM     16  N   UNL     1       4.076   4.128  18.147  0.00  0.00    +0.000 N 
ATOM     17  H   UNL     1       3.651   3.853  17.264  0.00  0.00    +0.000 HD
BRANCH  16  18
ATOM     18  C   UNL     1       5.524   4.290  18.007  0.00  0.00    +0.000 C 
BRANCH  18  24
ATOM     19  C   UNL     1       7.358   6.624  17.099  0.00  0.00    +0.000 C 
ATOM     20  N   UNL     1       6.784   5.607  16.249  0.00  0.00    +0.000 N 
ATOM     21  N   UNL     1       7.086   5.612  14.936  0.00  0.00    +0.000 NA
ATOM     22  C   UNL     1       6.396   4.584  14.439  0.00  0.00    +0.000 A 
ATOM     23  C   UNL     1       5.639   3.931  15.428  0.00  0.00    +0.000 A 
ATOM     24  C   UNL     1       5.951   4.579  16.609  0.00  0.00    +0.000 A 
BRANCH  22  25
ATOM     25  C   UNL     1       6.505   4.207  12.972  0.00  0.00    +0.000 C 
ATOM     26  C   UNL     1       5.289   3.768  12.187  0.00  0.00    +0.000 C 
ATOM     27  C   UNL     1       6.311   2.757  12.576  0.00  0.00    +0.000 C 
ENDBRANCH  22  25
ENDBRANCH  18  24
ENDBRANCH  16  18
ENDBRANCH   1  16
TORSDOF 5
ENDMDL
MODEL 8
REMARK VINA RESULT:      -7.6      4.037      7.660
REMARK  Name = 
REMARK  6 active torsions:
REMARK  status: ('A' for Active; 'I' for Inactive)
REMARK    1  A    between atoms: C_1  and  N_2
REMARK    2  A    between atoms: C_4  and  C_5
REMARK    3  A    between atoms: C_9  and  C_10
REMARK    4  A    between atoms: C_10  and  N_11
REMARK    5  A    between atoms: N_11  and  C_12
REMARK    6  A    between atoms: C_15  and  C_16
REMARK                            x       y       z     vdW  Elec       q    Type
REMARK                         _______ _______ _______ _____ _____    ______ ____
ROOT
ATOM      1  C   UNL     1       3.040   5.409  18.511  0.00  0.00    +0.000 A 
ATOM      2  C   UNL     1       2.505   5.274  19.801  0.00  0.00    +0.000 A 
ATOM      3  C   UNL     1       1.871   6.346  20.451  0.00  0.00    +0.000 A 
ATOM      4  C   UNL     1       1.786   7.600  19.836  0.00  0.00    +0.000 A 
ATOM      5  C   UNL     1       2.395   7.757  18.585  0.00  0.00    +0.000 A 
ATOM      6  C   UNL     1       3.028   6.685  17.942  0.00  0.00    +0.000 A 
ENDROOT
BRANCH   4   7
ATOM      7  C   UNL     1       1.085   8.731  20.428  0.00  0.00    +0.000 A 
ATOM      8  C   UNL     1       0.995  10.018  19.932  0.00  0.00    +0.000 A 
ATOM      9  N   UNL     1       0.286  10.730  20.870  0.00  0.00    +0.000 N 
ATOM     10  C   UNL     1      -0.078  12.078  20.885  0.00  0.00    +0.000 A 
ATOM     11  C   UNL     1      -0.767  12.559  21.935  0.00  0.00    +0.000 A 
ATOM     12  C   UNL     1      -1.119  11.655  23.021  0.00  0.00    +0.000 A 
ATOM     13  C   UNL     1      -0.770  10.354  22.995  0.00  0.00    +0.000 A 
ATOM     14  C   UNL     1      -0.036   9.841  21.889  0.00  0.00    +0.000 A 
ATOM     15  N   UNL     1       0.430   8.637  21.639  0.00  0.00    +0.000 NA
ENDBRANCH   4   7
BRANCH   1  16
ATOM     16  N   UNL     1       3.658   4.300  17.907  0.00  0.00    +0.000 N 
ATOM     17  H   UNL     1       3.570   4.352  16.894  0.00  0.00    +0.000 HD
BRANCH  16  18
ATOM     18  C   UNL     1       5.032   3.993  18.302  0.00  0.00    +0.000 C 
BRANCH  18  24
ATOM     19  C   UNL     1       6.208   3.925  15.429  0.00  0.00    +0.000 C 
ATOM     20  N   UNL     1       6.511   4.897  16.454  0.00  0.00    +0.000 N 
ATOM     21  N   UNL     1       7.346   5.912  16.160  0.00  0.00    +0.000 NA
ATOM     22  C   UNL     1       7.433   6.602  17.299  0.00  0.00    +0.000 A 
ATOM     23  C   UNL     1       6.670   6.021  18.327  0.00  0.00    +0.000 A 
ATOM     24  C   UNL     1       6.033   4.944  17.739  0.00  0.00    +0.000 A 
BRANCH  22  25
ATOM     25  C   UNL     1       8.251   7.879  17.376  0.00  0.00    +0.000 C 
ATOM     26  C   UNL     1       8.468   8.587  18.695  0.00  0.00    +0.000 C 
ATOM     27  C   UNL     1       7.542   9.181  17.691  0.00  0.00    +0.000 C 
ENDBRANCH  22  25
ENDBRANCH  18  24
ENDBRANCH  16  18
ENDBRANCH   1  16
TORSDOF 5
ENDMDL
MODEL 9
REMARK VINA RESULT:      -7.6      4.102      7.844
REMARK  Name = 
REMARK  6 active torsions:
REMARK  status: ('A' for Active; 'I' for Inactive)
REMARK    1  A    between atoms: C_1  and  N_2
REMARK    2  A    between atoms: C_4  and  C_5
REMARK    3  A    between atoms: C_9  and  C_10
REMARK    4  A    between atoms: C_10  and  N_11
REMARK    5  A    between atoms: N_11  and  C_12
REMARK    6  A    between atoms: C_15  and  C_16
REMARK                            x       y       z     vdW  Elec       q    Type
REMARK                         _______ _______ _______ _____ _____    ______ ____
ROOT
ATOM      1  C   UNL     1       3.010   5.435  18.649  0.00  0.00    +0.000 A 
ATOM      2  C   UNL     1       2.469   5.266  19.932  0.00  0.00    +0.000 A 
ATOM      3  C   UNL     1       1.824   6.319  20.604  0.00  0.00    +0.000 A 
ATOM      4  C   UNL     1       1.734   7.585  20.017  0.00  0.00    +0.000 A 
ATOM      5  C   UNL     1       2.348   7.776  18.774  0.00  0.00    +0.000 A 
ATOM      6  C   UNL     1       2.992   6.723  18.110  0.00  0.00    +0.000 A 
ENDROOT
BRANCH   4   7
ATOM      7  C   UNL     1       1.021   8.698  20.631  0.00  0.00    +0.000 A 
ATOM      8  C   UNL     1       0.560   8.787  21.931  0.00  0.00    +0.000 A 
ATOM      9  N   UNL     1      -0.094   9.993  22.012  0.00  0.00    +0.000 N 
ATOM     10  C   UNL     1      -0.764  10.578  23.089  0.00  0.00    +0.000 A 
ATOM     11  C   UNL     1      -1.352  11.777  22.922  0.00  0.00    +0.000 A 
ATOM     12  C   UNL     1      -1.263  12.430  21.623  0.00  0.00    +0.000 A 
ATOM     13  C   UNL     1      -0.609  11.861  20.592  0.00  0.00    +0.000 A 
ATOM     14  C   UNL     1       0.009  10.591  20.762  0.00  0.00    +0.000 A 
ATOM     15  N   UNL     1       0.679   9.832  19.922  0.00  0.00    +0.000 NA
ENDBRANCH   4   7
BRANCH   1  16
ATOM     16  N   UNL     1       3.639   4.344  18.023  0.00  0.00    +0.000 N 
ATOM     17  H   UNL     1       3.546   4.414  17.012  0.00  0.00    +0.000 HD
BRANCH  16  18
ATOM     18  C   UNL     1       5.018   4.046  18.408  0.00  0.00    +0.000 C 
BRANCH  18  24
ATOM     19  C   UNL     1       6.101   3.952  15.499  0.00  0.00    +0.000 C 
ATOM     20  N   UNL     1       6.447   4.924  16.510  0.00  0.00    +0.000 N 
ATOM     21  N   UNL     1       7.284   5.929  16.184  0.00  0.00    +0.000 NA
ATOM     22  C   UNL     1       7.416   6.622  17.316  0.00  0.00    +0.000 A 
ATOM     23  C   UNL     1       6.679   6.055  18.371  0.00  0.00    +0.000 A 
ATOM     24  C   UNL     1       6.011   4.983  17.809  0.00  0.00    +0.000 A 
BRANCH  22  25
ATOM     25  C   UNL     1       8.252   7.889  17.361  0.00  0.00    +0.000 C 
ATOM     26  C   UNL     1       8.539   8.588  18.673  0.00  0.00    +0.000 C 
ATOM     27  C   UNL     1       7.573   9.198  17.717  0.00  0.00    +0.000 C 
ENDBRANCH  22  25
ENDBRANCH  18  24
ENDBRANCH  16  18
ENDBRANCH   1  16
TORSDOF 5
ENDMDL
