MODEL 1
REMARK VINA RESULT:      -8.7      0.000      0.000
REMARK  Name = 
REMARK  5 active torsions:
REMARK  status: ('A' for Active; 'I' for Inactive)
REMARK    1  A    between atoms: C_2  and  C_3
REMARK    2  A    between atoms: C_3  and  C_4
REMARK    3  A    between atoms: C_4  and  C_5
REMARK    4  A    between atoms: C_7  and  C_8
REMARK    5  A    between atoms: C_21  and  C_22
REMARK                            x       y       z     vdW  Elec       q    Type
REMARK                         _______ _______ _______ _____ _____    ______ ____
ROOT
ATOM      1  O   UNL     1       5.353   7.597  17.786  0.00  0.00    +0.000 OA
ATOM      2  C   UNL     1       6.296   6.908  17.395  0.00  0.00    +0.000 C 
ATOM      3  N   UNL     1       6.125   5.639  16.890  0.00  0.00    +0.000 N 
ATOM      4  C   UNL     1       7.156   4.743  16.394  0.00  0.00    +0.000 C 
ATOM      5  C   UNL     1       6.519   4.117  15.172  0.00  0.00    +0.000 C 
ATOM      6  C   UNL     1       5.062   3.953  15.585  0.00  0.00    +0.000 C 
ATOM      7  C   UNL     1       4.791   5.132  16.542  0.00  0.00    +0.000 C 
ENDROOT
BRANCH   7   8
ATOM      8  C   UNL     1       4.006   4.669  17.749  0.00  0.00    +0.000 A 
ATOM      9  N   UNL     1       4.467   3.881  18.702  0.00  0.00    +0.000 NA
ATOM     10  C   UNL     1       3.452   3.568  19.595  0.00  0.00    +0.000 A 
ATOM     11  C   UNL     1       3.572   2.747  20.735  0.00  0.00    +0.000 A 
ATOM     12  C   UNL     1       2.459   2.515  21.552  0.00  0.00    +0.000 A 
ATOM     13  C   UNL     1       1.229   3.086  21.244  0.00  0.00    +0.000 A 
ATOM     14  C   UNL     1       1.080   3.898  20.115  0.00  0.00    +0.000 A 
ATOM     15  C   UNL     1       2.206   4.127  19.305  0.00  0.00    +0.000 A 
ATOM     16  S   UNL     1       2.335   5.065  17.870  0.00  0.00    +0.000 S 
ENDBRANCH   7   8
BRANCH   2  17
ATOM     17  C   UNL     1       7.701   7.482  17.306  0.00  0.00    +0.000 C 
BRANCH  17  18
ATOM     18  C   UNL     1       8.232   7.993  18.638  0.00  0.00    +0.000 C 
BRANCH  18  19
ATOM     19  C   UNL     1       8.608   9.428  18.534  0.00  0.00    +0.000 A 
ATOM     20  N   UNL     1       9.459  10.130  19.251  0.00  0.00    +0.000 NA
ATOM     21  C   UNL     1       9.358  11.388  18.690  0.00  0.00    +0.000 A 
ATOM     22  N   UNL     1       8.493  11.452  17.662  0.00  0.00    +0.000 NA
ATOM     23  O   UNL     1       7.994  10.156  17.562  0.00  0.00    +0.000 OA
BRANCH  21  24
ATOM     24  C   UNL     1      10.109  12.536  19.196  0.00  0.00    +0.000 A 
ATOM     25  C   UNL     1       9.837  13.060  20.470  0.00  0.00    +0.000 A 
ATOM     26  C   UNL     1      10.529  14.180  20.945  0.00  0.00    +0.000 A 
ATOM     27  C   UNL     1      11.497  14.776  20.146  0.00  0.00    +0.000 A 
ATOM     28  F   UNL     1      12.152  15.856  20.595  0.00  0.00    +0.000 F 
ATOM     29  C   UNL     1      11.794  14.270  18.888  0.00  0.00    +0.000 A 
ATOM     30  C   UNL     1      11.102  13.151  18.414  0.00  0.00    +0.000 A 
ENDBRANCH  21  24
ENDBRANCH  18  19
ENDBRANCH  17  18
ENDBRANCH   2  17
TORSDOF 5
ENDMDL
MODEL 2
REMARK VINA RESULT:      -8.5      2.855      3.783
REMARK  Name = 
REMARK  5 active torsions:
REMARK  status: ('A' for Active; 'I' for Inactive)
REMARK    1  A    between atoms: C_2  and  C_3
REMARK    2  A    between atoms: C_3  and  C_4
REMARK    3  A    between atoms: C_4  and  C_5
REMARK    4  A    between atoms: C_7  and  C_8
REMARK    5  A    between atoms: C_21  and  C_22
REMARK                            x       y       z     vdW  Elec       q    Type
REMARK                         _______ _______ _______ _____ _____    ______ ____
ROOT
ATOM      1  O   UNL     1       4.704   6.675  16.448  0.00  0.00    +0.000 OA
ATOM      2  C   UNL     1       5.230   5.815  17.155  0.00  0.00    +0.000 C 
ATOM      3  N   UNL     1       4.511   5.046  18.042  0.00  0.00    +0.000 N 
ATOM      4  C   UNL     1       5.020   4.002  18.916  0.00  0.00    +0.000 C 
ATOM      5  C   UNL     1       3.958   2.927  18.837  0.00  0.00    +0.000 C 
ATOM      6  C   UNL     1       2.662   3.726  18.759  0.00  0.00    +0.000 C 
ATOM      7  C   UNL     1       3.043   5.019  18.010  0.00  0.00    +0.000 C 
ENDROOT
BRANCH   7   8
ATOM      8  C   UNL     1       2.419   6.224  18.676  0.00  0.00    +0.000 A 
ATOM      9  N   UNL     1       2.170   7.378  18.085  0.00  0.00    +0.000 NA
ATOM     10  C   UNL     1       1.699   8.298  19.013  0.00  0.00    +0.000 A 
ATOM     11  C   UNL     1       1.335   9.633  18.747  0.00  0.00    +0.000 A 
ATOM     12  C   UNL     1       0.873  10.453  19.784  0.00  0.00    +0.000 A 
ATOM     13  C   UNL     1       0.777   9.961  21.080  0.00  0.00    +0.000 A 
ATOM     14  C   UNL     1       1.140   8.642  21.374  0.00  0.00    +0.000 A 
ATOM     15  C   UNL     1       1.598   7.828  20.323  0.00  0.00    +0.000 A 
ATOM     16  S   UNL     1       2.112   6.187  20.369  0.00  0.00    +0.000 S 
ENDBRANCH   7   8
BRANCH   2  17
ATOM     17  C   UNL     1       6.694   5.446  16.980  0.00  0.00    +0.000 C 
BRANCH  17  18
ATOM     18  C   UNL     1       7.565   5.840  18.166  0.00  0.00    +0.000 C 
BRANCH  18  19
ATOM     19  C   UNL     1       7.919   7.282  18.096  0.00  0.00    +0.000 A 
ATOM     20  N   UNL     1       8.679   8.003  18.892  0.00  0.00    +0.000 NA
ATOM     21  C   UNL     1       8.607   9.258  18.321  0.00  0.00    +0.000 A 
ATOM     22  N   UNL     1       7.847   9.304  17.213  0.00  0.00    +0.000 NA
ATOM     23  O   UNL     1       7.388   7.997  17.067  0.00  0.00    +0.000 OA
BRANCH  21  24
ATOM     24  C   UNL     1       9.280  10.422  18.896  0.00  0.00    +0.000 A 
ATOM     25  C   UNL     1       9.906  11.367  18.065  0.00  0.00    +0.000 A 
ATOM     26  C   UNL     1      10.580  12.463  18.613  0.00  0.00    +0.000 A 
ATOM     27  C   UNL     1      10.630  12.618  19.993  0.00  0.00    +0.000 A 
ATOM     28  F   UNL     1      11.287  13.661  20.519  0.00  0.00    +0.000 F 
ATOM     29  C   UNL     1      10.011  11.705  20.835  0.00  0.00    +0.000 A 
ATOM     30  C   UNL     1       9.335  10.609  20.288  0.00  0.00    +0.000 A 
ENDBRANCH  21  24
ENDBRANCH  18  19
ENDBRANCH  17  18
ENDBRANCH   2  17
TORSDOF 5
ENDMDL
MODEL 3
REMARK VINA RESULT:      -8.4      3.005      3.744
REMARK  Name = 
REMARK  5 active torsions:
REMARK  status: ('A' for Active; 'I' for Inactive)
REMARK    1  A    between atoms: C_2  and  C_3
REMARK    2  A    between atoms: C_3  and  C_4
REMARK    3  A    between atoms: C_4  and  C_5
REMARK    4  A    between atoms: C_7  and  C_8
REMARK    5  A    between atoms: C_21  and  C_22
REMARK                            x       y       z     vdW  Elec       q    Type
REMARK                         _______ _______ _______ _____ _____    ______ ____
ROOT
ATOM      1  O   UNL     1       4.766   7.088  16.643  0.00  0.00    +0.000 OA
ATOM      2  C   UNL     1       5.143   6.114  17.295  0.00  0.00    +0.000 C 
ATOM      3  N   UNL     1       4.296   5.393  18.107  0.00  0.00    +0.000 N 
ATOM      4  C   UNL     1       4.625   4.229  18.911  0.00  0.00    +0.000 C 
ATOM      5  C   UNL     1       3.426   3.324  18.728  0.00  0.00    +0.000 C 
ATOM      6  C   UNL     1       2.258   4.302  18.683  0.00  0.00    +0.000 C 
ATOM      7  C   UNL     1       2.840   5.578  18.040  0.00  0.00    +0.000 C 
ENDROOT
BRANCH   7   8
ATOM      8  C   UNL     1       2.370   6.810  18.781  0.00  0.00    +0.000 A 
ATOM      9  N   UNL     1       2.114   6.870  20.074  0.00  0.00    +0.000 NA
ATOM     10  C   UNL     1       1.599   8.117  20.401  0.00  0.00    +0.000 A 
ATOM     11  C   UNL     1       1.205   8.542  21.687  0.00  0.00    +0.000 A 
ATOM     12  C   UNL     1       0.699   9.834  21.873  0.00  0.00    +0.000 A 
ATOM     13  C   UNL     1       0.576  10.703  20.794  0.00  0.00    +0.000 A 
ATOM     14  C   UNL     1       0.950  10.304  19.507  0.00  0.00    +0.000 A 
ATOM     15  C   UNL     1       1.461   9.006  19.334  0.00  0.00    +0.000 A 
ATOM     16  S   UNL     1       1.998   8.237  17.893  0.00  0.00    +0.000 S 
ENDBRANCH   7   8
BRANCH   2  17
ATOM     17  C   UNL     1       6.547   5.554  17.125  0.00  0.00    +0.000 C 
BRANCH  17  18
ATOM     18  C   UNL     1       7.485   5.913  18.268  0.00  0.00    +0.000 C 
BRANCH  18  19
ATOM     19  C   UNL     1       7.899   7.338  18.175  0.00  0.00    +0.000 A 
ATOM     20  N   UNL     1       8.685   8.040  18.962  0.00  0.00    +0.000 NA
ATOM     21  C   UNL     1       8.668   9.287  18.369  0.00  0.00    +0.000 A 
ATOM     22  N   UNL     1       7.915   9.344  17.257  0.00  0.00    +0.000 NA
ATOM     23  O   UNL     1       7.403   8.056  17.131  0.00  0.00    +0.000 OA
BRANCH  21  24
ATOM     24  C   UNL     1       9.386  10.432  18.927  0.00  0.00    +0.000 A 
ATOM     25  C   UNL     1       9.347  10.694  20.307  0.00  0.00    +0.000 A 
ATOM     26  C   UNL     1      10.004  11.808  20.841  0.00  0.00    +0.000 A 
ATOM     27  C   UNL     1      10.704  12.661  19.997  0.00  0.00    +0.000 A 
ATOM     28  F   UNL     1      11.323  13.735  20.506  0.00  0.00    +0.000 F 
ATOM     29  C   UNL     1      10.768  12.418  18.632  0.00  0.00    +0.000 A 
ATOM     30  C   UNL     1      10.111  11.305  18.097  0.00  0.00    +0.000 A 
ENDBRANCH  21  24
ENDBRANCH  18  19
ENDBRANCH  17  18
ENDBRANCH   2  17
TORSDOF 5
ENDMDL
MODEL 4
REMARK VINA RESULT:      -8.4      6.362      8.578
REMARK  Name = 
REMARK  5 active torsions:
REMARK  status: ('A' for Active; 'I' for Inactive)
REMARK    1  A    between atoms: C_2  and  C_3
REMARK    2  A    between atoms: C_3  and  C_4
REMARK    3  A    between atoms: C_4  and  C_5
REMARK    4  A    between atoms: C_7  and  C_8
REMARK    5  A    between atoms: C_21  and  C_22
REMARK                            x       y       z     vdW  Elec       q    Type
REMARK                         _______ _______ _______ _____ _____    ______ ____
ROOT
ATOM      1  O   UNL     1       4.653   7.478  17.647  0.00  0.00    +0.000 OA
ATOM      2  C   UNL     1       3.599   6.873  17.849  0.00  0.00    +0.000 C 
ATOM      3  N   UNL     1       3.503   5.503  17.756  0.00  0.00    +0.000 N 
ATOM      4  C   UNL     1       2.322   4.686  17.979  0.00  0.00    +0.000 C 
ATOM      5  C   UNL     1       2.860   3.488  18.730  0.00  0.00    +0.000 C 
ATOM      6  C   UNL     1       4.220   3.255  18.084  0.00  0.00    +0.000 C 
ATOM      7  C   UNL     1       4.703   4.660  17.671  0.00  0.00    +0.000 C 
ENDROOT
BRANCH   7   8
ATOM      8  C   UNL     1       5.303   4.631  16.283  0.00  0.00    +0.000 A 
ATOM      9  N   UNL     1       4.834   3.935  15.265  0.00  0.00    +0.000 NA
ATOM     10  C   UNL     1       5.686   4.050  14.175  0.00  0.00    +0.000 A 
ATOM     11  C   UNL     1       5.511   3.441  12.916  0.00  0.00    +0.000 A 
ATOM     12  C   UNL     1       6.455   3.644  11.902  0.00  0.00    +0.000 A 
ATOM     13  C   UNL     1       7.572   4.440  12.130  0.00  0.00    +0.000 A 
ATOM     14  C   UNL     1       7.775   5.050  13.372  0.00  0.00    +0.000 A 
ATOM     15  C   UNL     1       6.817   4.841  14.381  0.00  0.00    +0.000 A 
ATOM     16  S   UNL     1       6.790   5.447  15.990  0.00  0.00    +0.000 S 
ENDBRANCH   7   8
BRANCH   2  17
ATOM     17  C   UNL     1       2.367   7.599  18.364  0.00  0.00    +0.000 C 
BRANCH  17  18
ATOM     18  C   UNL     1       2.064   8.888  17.613  0.00  0.00    +0.000 C 
BRANCH  18  19
ATOM     19  C   UNL     1       1.464   9.896  18.528  0.00  0.00    +0.000 A 
ATOM     20  N   UNL     1       0.583   9.740  19.492  0.00  0.00    +0.000 NA
ATOM     21  C   UNL     1       0.414  11.029  19.956  0.00  0.00    +0.000 A 
ATOM     22  N   UNL     1       1.170  11.937  19.314  0.00  0.00    +0.000 NA
ATOM     23  O   UNL     1       1.862  11.187  18.366  0.00  0.00    +0.000 OA
BRANCH  21  24
ATOM     24  C   UNL     1      -0.524  11.361  21.028  0.00  0.00    +0.000 A 
ATOM     25  C   UNL     1      -0.485  10.667  22.249  0.00  0.00    +0.000 A 
ATOM     26  C   UNL     1      -1.402  10.957  23.265  0.00  0.00    +0.000 A 
ATOM     27  C   UNL     1      -2.360  11.943  23.063  0.00  0.00    +0.000 A 
ATOM     28  F   UNL     1      -3.246  12.213  24.030  0.00  0.00    +0.000 F 
ATOM     29  C   UNL     1      -2.412  12.652  21.870  0.00  0.00    +0.000 A 
ATOM     30  C   UNL     1      -1.495  12.362  20.855  0.00  0.00    +0.000 A 
ENDBRANCH  21  24
ENDBRANCH  18  19
ENDBRANCH  17  18
ENDBRANCH   2  17
TORSDOF 5
ENDMDL
MODEL 5
REMARK VINA RESULT:      -8.3      1.055      1.442
REMARK  Name = 
REMARK  5 active torsions:
REMARK  status: ('A' for Active; 'I' for Inactive)
REMARK    1  A    between atoms: C_2  and  C_3
REMARK    2  A    between atoms: C_3  and  C_4
REMARK    3  A    between atoms: C_4  and  C_5
REMARK    4  A    between atoms: C_7  and  C_8
REMARK    5  A    between atoms: C_21  and  C_22
REMARK                            x       y       z     vdW  Elec       q    Type
REMARK                         _______ _______ _______ _____ _____    ______ ____
ROOT
ATOM      1  O   UNL     1       5.260   7.473  17.623  0.00  0.00    +0.000 OA
ATOM      2  C   UNL     1       6.257   6.891  17.194  0.00  0.00    +0.000 C 
ATOM      3  N   UNL     1       6.193   5.646  16.610  0.00  0.00    +0.000 N 
ATOM      4  C   UNL     1       7.295   4.872  16.065  0.00  0.00    +0.000 C 
ATOM      5  C   UNL     1       6.714   4.274  14.801  0.00  0.00    +0.000 C 
ATOM      6  C   UNL     1       5.274   3.964  15.195  0.00  0.00    +0.000 C 
ATOM      7  C   UNL     1       4.906   5.054  16.222  0.00  0.00    +0.000 C 
ENDROOT
BRANCH   7   8
ATOM      8  C   UNL     1       4.161   4.452  17.392  0.00  0.00    +0.000 A 
ATOM      9  N   UNL     1       2.849   4.443  17.537  0.00  0.00    +0.000 NA
ATOM     10  C   UNL     1       2.509   3.912  18.774  0.00  0.00    +0.000 A 
ATOM     11  C   UNL     1       1.202   3.750  19.277  0.00  0.00    +0.000 A 
ATOM     12  C   UNL     1       1.004   3.197  20.549  0.00  0.00    +0.000 A 
ATOM     13  C   UNL     1       2.092   2.811  21.324  0.00  0.00    +0.000 A 
ATOM     14  C   UNL     1       3.399   2.969  20.853  0.00  0.00    +0.000 A 
ATOM     15  C   UNL     1       3.584   3.521  19.573  0.00  0.00    +0.000 A 
ATOM     16  S   UNL     1       5.050   3.836  18.732  0.00  0.00    +0.000 S 
ENDBRANCH   7   8
BRANCH   2  17
ATOM     17  C   UNL     1       7.610   7.583  17.152  0.00  0.00    +0.000 C 
BRANCH  17  18
ATOM     18  C   UNL     1       8.215   7.819  18.529  0.00  0.00    +0.000 C 
BRANCH  18  19
ATOM     19  C   UNL     1       8.678   9.225  18.661  0.00  0.00    +0.000 A 
ATOM     20  N   UNL     1       8.943   9.927  19.742  0.00  0.00    +0.000 NA
ATOM     21  C   UNL     1       9.308  11.154  19.222  0.00  0.00    +0.000 A 
ATOM     22  N   UNL     1       9.283  11.198  17.878  0.00  0.00    +0.000 NA
ATOM     23  O   UNL     1       8.863   9.924  17.508  0.00  0.00    +0.000 OA
BRANCH  21  24
ATOM     24  C   UNL     1       9.661  12.292  20.070  0.00  0.00    +0.000 A 
ATOM     25  C   UNL     1       9.156  12.390  21.377  0.00  0.00    +0.000 A 
ATOM     26  C   UNL     1       9.462  13.495  22.179  0.00  0.00    +0.000 A 
ATOM     27  C   UNL     1      10.275  14.503  21.677  0.00  0.00    +0.000 A 
ATOM     28  F   UNL     1      10.559  15.567  22.440  0.00  0.00    +0.000 F 
ATOM     29  C   UNL     1      10.796  14.424  20.393  0.00  0.00    +0.000 A 
ATOM     30  C   UNL     1      10.491  13.320  19.590  0.00  0.00    +0.000 A 
ENDBRANCH  21  24
ENDBRANCH  18  19
ENDBRANCH  17  18
ENDBRANCH   2  17
TORSDOF 5
ENDMDL
MODEL 6
REMARK VINA RESULT:      -8.2      1.565      1.836
REMARK  Name = 
REMARK  5 active torsions:
REMARK  status: ('A' for Active; 'I' for Inactive)
REMARK    1  A    between atoms: C_2  and  C_3
REMARK    2  A    between atoms: C_3  and  C_4
REMARK    3  A    between atoms: C_4  and  C_5
REMARK    4  A    between atoms: C_7  and  C_8
REMARK    5  A    between atoms: C_21  and  C_22
REMARK                            x       y       z     vdW  Elec       q    Type
REMARK                         _______ _______ _______ _____ _____    ______ ____
ROOT
ATOM      1  O   UNL     1       5.094   7.719  17.530  0.00  0.00    +0.000 OA
ATOM      2  C   UNL     1       6.106   7.099  17.201  0.00  0.00    +0.000 C 
ATOM      3  N   UNL     1       6.069   5.784  16.797  0.00  0.00    +0.000 N 
ATOM      4  C   UNL     1       7.191   4.959  16.381  0.00  0.00    +0.000 C 
ATOM      5  C   UNL     1       6.638   4.179  15.207  0.00  0.00    +0.000 C 
ATOM      6  C   UNL     1       5.198   3.903  15.622  0.00  0.00    +0.000 C 
ATOM      7  C   UNL     1       4.797   5.121  16.481  0.00  0.00    +0.000 C 
ENDROOT
BRANCH   7   8
ATOM      8  C   UNL     1       4.044   4.678  17.714  0.00  0.00    +0.000 A 
ATOM      9  N   UNL     1       4.484   3.811  18.607  0.00  0.00    +0.000 NA
ATOM     10  C   UNL     1       3.498   3.552  19.548  0.00  0.00    +0.000 A 
ATOM     11  C   UNL     1       3.607   2.674  20.646  0.00  0.00    +0.000 A 
ATOM     12  C   UNL     1       2.526   2.507  21.520  0.00  0.00    +0.000 A 
ATOM     13  C   UNL     1       1.338   3.198  21.309  0.00  0.00    +0.000 A 
ATOM     14  C   UNL     1       1.199   4.068  20.223  0.00  0.00    +0.000 A 
ATOM     15  C   UNL     1       2.293   4.231  19.355  0.00  0.00    +0.000 A 
ATOM     16  S   UNL     1       2.425   5.215  17.951  0.00  0.00    +0.000 S 
ENDBRANCH   7   8
BRANCH   2  17
ATOM     17  C   UNL     1       7.449   7.802  17.078  0.00  0.00    +0.000 C 
BRANCH  17  18
ATOM     18  C   UNL     1       8.188   7.934  18.402  0.00  0.00    +0.000 C 
BRANCH  18  19
ATOM     19  C   UNL     1       8.638   9.335  18.610  0.00  0.00    +0.000 A 
ATOM     20  N   UNL     1       8.224  10.447  18.042  0.00  0.00    +0.000 NA
ATOM     21  C   UNL     1       9.027  11.404  18.632  0.00  0.00    +0.000 A 
ATOM     22  N   UNL     1       9.888  10.902  19.535  0.00  0.00    +0.000 NA
ATOM     23  O   UNL     1       9.634   9.533  19.517  0.00  0.00    +0.000 OA
BRANCH  21  24
ATOM     24  C   UNL     1       8.952  12.820  18.276  0.00  0.00    +0.000 A 
ATOM     25  C   UNL     1      10.095  13.634  18.344  0.00  0.00    +0.000 A 
ATOM     26  C   UNL     1      10.020  14.997  18.038  0.00  0.00    +0.000 A 
ATOM     27  C   UNL     1       8.802  15.549  17.660  0.00  0.00    +0.000 A 
ATOM     28  F   UNL     1       8.726  16.857  17.379  0.00  0.00    +0.000 F 
ATOM     29  C   UNL     1       7.660  14.764  17.574  0.00  0.00    +0.000 A 
ATOM     30  C   UNL     1       7.735  13.401  17.879  0.00  0.00    +0.000 A 
ENDBRANCH  21  24
ENDBRANCH  18  19
ENDBRANCH  17  18
ENDBRANCH   2  17
TORSDOF 5
ENDMDL
MODEL 7
REMARK VINA RESULT:      -8.2      5.911      8.664
REMARK  Name = 
REMARK  5 active torsions:
REMARK  status: ('A' for Active; 'I' for Inactive)
REMARK    1  A    between atoms: C_2  and  C_3
REMARK    2  A    between atoms: C_3  and  C_4
REMARK    3  A    between atoms: C_4  and  C_5
REMARK    4  A    between atoms: C_7  and  C_8
REMARK    5  A    between atoms: C_21  and  C_22
REMARK                            x       y       z     vdW  Elec       q    Type
REMARK                         _______ _______ _______ _____ _____    ______ ____
ROOT
ATOM      1  O   UNL     1       4.321   7.639  16.360  0.00  0.00    +0.000 OA
ATOM      2  C   UNL     1       4.190   6.978  17.391  0.00  0.00    +0.000 C 
ATOM      3  N   UNL     1       5.152   6.098  17.833  0.00  0.00    +0.000 N 
ATOM      4  C   UNL     1       5.110   5.277  19.031  0.00  0.00    +0.000 C 
ATOM      5  C   UNL     1       6.523   5.363  19.567  0.00  0.00    +0.000 C 
ATOM      6  C   UNL     1       7.374   5.376  18.302  0.00  0.00    +0.000 C 
ATOM      7  C   UNL     1       6.500   6.090  17.250  0.00  0.00    +0.000 C 
ENDROOT
BRANCH   7   8
ATOM      8  C   UNL     1       6.562   5.365  15.925  0.00  0.00    +0.000 A 
ATOM      9  N   UNL     1       7.383   5.657  14.934  0.00  0.00    +0.000 NA
ATOM     10  C   UNL     1       7.097   4.867  13.829  0.00  0.00    +0.000 A 
ATOM     11  C   UNL     1       7.763   4.904  12.586  0.00  0.00    +0.000 A 
ATOM     12  C   UNL     1       7.368   4.045  11.554  0.00  0.00    +0.000 A 
ATOM     13  C   UNL     1       6.315   3.156  11.742  0.00  0.00    +0.000 A 
ATOM     14  C   UNL     1       5.632   3.105  12.961  0.00  0.00    +0.000 A 
ATOM     15  C   UNL     1       6.041   3.969  13.992  0.00  0.00    +0.000 A 
ATOM     16  S   UNL     1       5.404   4.138  15.581  0.00  0.00    +0.000 S 
ENDBRANCH   7   8
BRANCH   2  17
ATOM     17  C   UNL     1       3.011   7.207  18.323  0.00  0.00    +0.000 C 
BRANCH  17  18
ATOM     18  C   UNL     1       2.224   8.471  18.006  0.00  0.00    +0.000 C 
BRANCH  18  19
ATOM     19  C   UNL     1       1.448   8.914  19.195  0.00  0.00    +0.000 A 
ATOM     20  N   UNL     1       0.628   9.933  19.334  0.00  0.00    +0.000 NA
ATOM     21  C   UNL     1       0.238   9.828  20.655  0.00  0.00    +0.000 A 
ATOM     22  N   UNL     1       0.785   8.780  21.296  0.00  0.00    +0.000 NA
ATOM     23  O   UNL     1       1.588   8.178  20.331  0.00  0.00    +0.000 OA
BRANCH  21  24
ATOM     24  C   UNL     1      -0.663  10.790  21.287  0.00  0.00    +0.000 A 
ATOM     25  C   UNL     1      -0.851  10.784  22.679  0.00  0.00    +0.000 A 
ATOM     26  C   UNL     1      -1.739  11.680  23.284  0.00  0.00    +0.000 A 
ATOM     27  C   UNL     1      -2.440  12.586  22.498  0.00  0.00    +0.000 A 
ATOM     28  F   UNL     1      -3.300  13.436  23.075  0.00  0.00    +0.000 F 
ATOM     29  C   UNL     1      -2.264  12.621  21.121  0.00  0.00    +0.000 A 
ATOM     30  C   UNL     1      -1.376  11.725  20.516  0.00  0.00    +0.000 A 
ENDBRANCH  21  24
ENDBRANCH  18  19
ENDBRANCH  17  18
ENDBRANCH   2  17
TORSDOF 5
ENDMDL
MODEL 8
REMARK VINA RESULT:      -8.2      6.342      8.751
REMARK  Name = 
REMARK  5 active torsions:
REMARK  status: ('A' for Active; 'I' for Inactive)
REMARK    1  A    between atoms: C_2  and  C_3
REMARK    2  A    between atoms: C_3  and  C_4
REMARK    3  A    between atoms: C_4  and  C_5
REMARK    4  A    between atoms: C_7  and  C_8
REMARK    5  A    between atoms: C_21  and  C_22
REMARK                            x       y       z     vdW  Elec       q    Type
REMARK                         _______ _______ _______ _____ _____    ______ ____
ROOT
ATOM      1  O   UNL     1       4.584   7.444  17.671  0.00  0.00    +0.000 OA
ATOM      2  C   UNL     1       3.528   6.835  17.848  0.00  0.00    +0.000 C 
ATOM      3  N   UNL     1       3.435   5.466  17.737  0.00  0.00    +0.000 N 
ATOM      4  C   UNL     1       2.252   4.645  17.931  0.00  0.00    +0.000 C 
ATOM      5  C   UNL     1       2.780   3.439  18.677  0.00  0.00    +0.000 C 
ATOM      6  C   UNL     1       4.151   3.216  18.050  0.00  0.00    +0.000 C 
ATOM      7  C   UNL     1       4.638   4.627  17.661  0.00  0.00    +0.000 C 
ENDROOT
BRANCH   7   8
ATOM      8  C   UNL     1       5.260   4.615  16.284  0.00  0.00    +0.000 A 
ATOM      9  N   UNL     1       4.816   3.921  15.253  0.00  0.00    +0.000 NA
ATOM     10  C   UNL     1       5.684   4.054  14.178  0.00  0.00    +0.000 A 
ATOM     11  C   UNL     1       5.537   3.452  12.911  0.00  0.00    +0.000 A 
ATOM     12  C   UNL     1       6.495   3.674  11.914  0.00  0.00    +0.000 A 
ATOM     13  C   UNL     1       7.598   4.482  12.166  0.00  0.00    +0.000 A 
ATOM     14  C   UNL     1       7.773   5.085  13.416  0.00  0.00    +0.000 A 
ATOM     15  C   UNL     1       6.802   4.857  14.407  0.00  0.00    +0.000 A 
ATOM     16  S   UNL     1       6.742   5.451  16.021  0.00  0.00    +0.000 S 
ENDBRANCH   7   8
BRANCH   2  17
ATOM     17  C   UNL     1       2.285   7.553  18.352  0.00  0.00    +0.000 C 
BRANCH  17  18
ATOM     18  C   UNL     1       2.140   8.967  17.807  0.00  0.00    +0.000 C 
BRANCH  18  19
ATOM     19  C   UNL     1       0.967   9.644  18.421  0.00  0.00    +0.000 A 
ATOM     20  N   UNL     1       0.832  10.177  19.616  0.00  0.00    +0.000 NA
ATOM     21  C   UNL     1      -0.474  10.628  19.598  0.00  0.00    +0.000 A 
ATOM     22  N   UNL     1      -1.109  10.394  18.437  0.00  0.00    +0.000 NA
ATOM     23  O   UNL     1      -0.157   9.739  17.659  0.00  0.00    +0.000 OA
BRANCH  21  24
ATOM     24  C   UNL     1      -1.098  11.272  20.754  0.00  0.00    +0.000 A 
ATOM     25  C   UNL     1      -2.013  12.323  20.575  0.00  0.00    +0.000 A 
ATOM     26  C   UNL     1      -2.586  12.965  21.679  0.00  0.00    +0.000 A 
ATOM     27  C   UNL     1      -2.246  12.557  22.962  0.00  0.00    +0.000 A 
ATOM     28  F   UNL     1      -2.784  13.180  24.019  0.00  0.00    +0.000 F 
ATOM     29  C   UNL     1      -1.353  11.514  23.165  0.00  0.00    +0.000 A 
ATOM     30  C   UNL     1      -0.780  10.871  22.063  0.00  0.00    +0.000 A 
ENDBRANCH  21  24
ENDBRANCH  18  19
ENDBRANCH  17  18
ENDBRANCH   2  17
TORSDOF 5
ENDMDL
MODEL 9
REMARK VINA RESULT:      -8.2      8.538     10.955
REMARK  Name = 
REMARK  5 active torsions:
REMARK  status: ('A' for Active; 'I' for Inactive)
REMARK    1  A    between atoms: C_2  and  C_3
REMARK    2  A    between atoms: C_3  and  C_4
REMARK    3  A    between atoms: C_4  and  C_5
REMARK    4  A    between atoms: C_7  and  C_8
REMARK    5  A    between atoms: C_21  and  C_22
REMARK                            x       y       z     vdW  Elec       q    Type
REMARK                         _______ _______ _______ _____ _____    ______ ____
ROOT
ATOM      1  O   UNL     1      -1.717  11.838  19.565  0.00  0.00    +0.000 OA
ATOM      2  C   UNL     1      -1.895  10.951  18.730  0.00  0.00    +0.000 C 
ATOM      3  N   UNL     1      -3.028  10.886  17.950  0.00  0.00    +0.000 N 
ATOM      4  C   UNL     1      -3.341   9.897  16.933  0.00  0.00    +0.000 C 
ATOM      5  C   UNL     1      -3.968  10.716  15.826  0.00  0.00    +0.000 C 
ATOM      6  C   UNL     1      -4.770  11.768  16.584  0.00  0.00    +0.000 C 
ATOM      7  C   UNL     1      -3.968  12.012  17.879  0.00  0.00    +0.000 C 
ENDROOT
BRANCH   7   8
ATOM      8  C   UNL     1      -4.893  12.081  19.073  0.00  0.00    +0.000 A 
ATOM      9  N   UNL     1      -4.623  12.690  20.213  0.00  0.00    +0.000 NA
ATOM     10  C   UNL     1      -5.641  12.464  21.128  0.00  0.00    +0.000 A 
ATOM     11  C   UNL     1      -5.694  12.952  22.450  0.00  0.00    +0.000 A 
ATOM     12  C   UNL     1      -6.788  12.644  23.268  0.00  0.00    +0.000 A 
ATOM     13  C   UNL     1      -7.824  11.851  22.787  0.00  0.00    +0.000 A 
ATOM     14  C   UNL     1      -7.794  11.346  21.482  0.00  0.00    +0.000 A 
ATOM     15  C   UNL     1      -6.692  11.667  20.670  0.00  0.00    +0.000 A 
ATOM     16  S   UNL     1      -6.372  11.201  19.046  0.00  0.00    +0.000 S 
ENDBRANCH   7   8
BRANCH   2  17
ATOM     17  C   UNL     1      -0.797   9.952  18.403  0.00  0.00    +0.000 C 
BRANCH  17  18
ATOM     18  C   UNL     1       0.466  10.146  19.230  0.00  0.00    +0.000 C 
BRANCH  18  19
ATOM     19  C   UNL     1       1.339   8.947  19.138  0.00  0.00    +0.000 A 
ATOM     20  N   UNL     1       1.993   8.457  18.107  0.00  0.00    +0.000 NA
ATOM     21  C   UNL     1       2.602   7.337  18.641  0.00  0.00    +0.000 A 
ATOM     22  N   UNL     1       2.343   7.156  19.948  0.00  0.00    +0.000 NA
ATOM     23  O   UNL     1       1.505   8.218  20.276  0.00  0.00    +0.000 OA
BRANCH  21  24
ATOM     24  C   UNL     1       3.423   6.433  17.838  0.00  0.00    +0.000 A 
ATOM     25  C   UNL     1       3.177   5.050  17.846  0.00  0.00    +0.000 A 
ATOM     26  C   UNL     1       3.982   4.177  17.107  0.00  0.00    +0.000 A 
ATOM     27  C   UNL     1       5.035   4.685  16.356  0.00  0.00    +0.000 A 
ATOM     28  F   UNL     1       5.815   3.848  15.658  0.00  0.00    +0.000 F 
ATOM     29  C   UNL     1       5.293   6.048  16.323  0.00  0.00    +0.000 A 
ATOM     30  C   UNL     1       4.487   6.922  17.061  0.00  0.00    +0.000 A 
ENDBRANCH  21  24
ENDBRANCH  18  19
ENDBRANCH  17  18
ENDBRANCH   2  17
TORSDOF 5
ENDMDL
