MODEL 1
REMARK VINA RESULT:      -9.0      0.000      0.000
REMARK  Name = 
REMARK  7 active torsions:
REMARK  status: ('A' for Active; 'I' for Inactive)
REMARK    1  A    between atoms: C_1  and  C_2
REMARK    2  A    between atoms: C_6  and  N_7
REMARK    3  A    between atoms: C_8  and  C_10
REMARK    4  A    between atoms: C_13  and  O_14
REMARK    5  A    between atoms: O_14  and  C_15
REMARK    6  A    between atoms: C_15  and  C_16
REMARK    7  A    between atoms: C_22  and  C_23
REMARK                            x       y       z     vdW  Elec       q    Type
REMARK                         _______ _______ _______ _____ _____    ______ ____
ROOT
ATOM      1  C   UNL     1       7.791   8.003  17.962  0.00  0.00    +0.000 A 
ATOM      2  C   UNL     1       7.008   7.678  16.848  0.00  0.00    +0.000 A 
ATOM      3  C   UNL     1       6.647   6.340  16.622  0.00  0.00    +0.000 A 
ATOM      4  C   UNL     1       7.071   5.328  17.493  0.00  0.00    +0.000 A 
ATOM      5  C   UNL     1       7.792   5.665  18.635  0.00  0.00    +0.000 A 
ATOM      6  C   UNL     1       8.160   6.987  18.856  0.00  0.00    +0.000 A 
ENDROOT
BRANCH   1   8
ATOM      7  N   UNL     1       9.203   9.484  19.324  0.00  0.00    +0.000 N 
ATOM      8  C   UNL     1       8.363   9.353  18.234  0.00  0.00    +0.000 C 
ATOM      9  O   UNL     1       8.044  10.238  17.448  0.00  0.00    +0.000 OA
ATOM     10  H   UNL     1       9.442   8.674  19.870  0.00  0.00    +0.000 HD
BRANCH   7  16
ATOM     11  C   UNL     1       9.298  13.338  22.189  0.00  0.00    +0.000 C 
ATOM     12  C   UNL     1       9.914  12.594  21.043  0.00  0.00    +0.000 A 
ATOM     13  C   UNL     1      11.016  13.084  20.368  0.00  0.00    +0.000 A 
ATOM     14  C   UNL     1      11.523  12.341  19.306  0.00  0.00    +0.000 A 
ATOM     15  C   UNL     1      10.912  11.136  18.952  0.00  0.00    +0.000 A 
ATOM     16  C   UNL     1       9.813  10.704  19.679  0.00  0.00    +0.000 A 
ATOM     17  N   UNL     1       9.326  11.424  20.707  0.00  0.00    +0.000 NA
ENDBRANCH   7  16
ENDBRANCH   1   8
BRANCH   4  18
ATOM     18  O   UNL     1       6.760   4.041  17.144  0.00  0.00    +0.000 OA
BRANCH  18  19
ATOM     19  C   UNL     1       5.487   3.889  16.484  0.00  0.00    +0.000 C 
BRANCH  19  20
ATOM     20  C   UNL     1       4.367   3.761  17.456  0.00  0.00    +0.000 A 
ATOM     21  C   UNL     1       3.722   2.614  17.867  0.00  0.00    +0.000 A 
ATOM     22  N   UNL     1       2.804   3.014  18.796  0.00  0.00    +0.000 N 
ATOM     23  C   UNL     1       1.895   2.245  19.505  0.00  0.00    +0.000 A 
ATOM     24  C   UNL     1       1.075   2.849  20.378  0.00  0.00    +0.000 A 
ATOM     25  C   UNL     1       1.174   4.291  20.550  0.00  0.00    +0.000 A 
ATOM     26  C   UNL     1       2.062   5.056  19.868  0.00  0.00    +0.000 A 
ATOM     27  C   UNL     1       2.104   6.544  20.104  0.00  0.00    +0.000 C 
ATOM     28  C   UNL     1       2.931   4.392  18.931  0.00  0.00    +0.000 A 
ATOM     29  N   UNL     1       3.874   4.860  18.134  0.00  0.00    +0.000 NA
ENDBRANCH  19  20
ENDBRANCH  18  19
ENDBRANCH   4  18
TORSDOF 5
ENDMDL
MODEL 2
REMARK VINA RESULT:      -9.0      0.618      1.322
REMARK  Name = 
REMARK  7 active torsions:
REMARK  status: ('A' for Active; 'I' for Inactive)
REMARK    1  A    between atoms: C_1  and  C_2
REMARK    2  A    between atoms: C_6  and  N_7
REMARK    3  A    between atoms: C_8  and  C_10
REMARK    4  A    between atoms: C_13  and  O_14
REMARK    5  A    between atoms: O_14  and  C_15
REMARK    6  A    between atoms: C_15  and  C_16
REMARK    7  A    between atoms: C_22  and  C_23
REMARK                            x       y       z     vdW  Elec       q    Type
REMARK                         _______ _______ _______ _____ _____    ______ ____
ROOT
ATOM      1  C   UNL     1       7.709   8.057  17.893  0.00  0.00    +0.000 A 
ATOM      2  C   UNL     1       6.851   7.762  16.827  0.00  0.00    +0.000 A 
ATOM      3  C   UNL     1       6.488   6.428  16.579  0.00  0.00    +0.000 A 
ATOM      4  C   UNL     1       6.986   5.391  17.379  0.00  0.00    +0.000 A 
ATOM      5  C   UNL     1       7.784   5.697  18.478  0.00  0.00    +0.000 A 
ATOM      6  C   UNL     1       8.153   7.015  18.720  0.00  0.00    +0.000 A 
ENDROOT
BRANCH   1   8
ATOM      7  N   UNL     1       9.211   9.504  19.194  0.00  0.00    +0.000 N 
ATOM      8  C   UNL     1       8.285   9.404  18.173  0.00  0.00    +0.000 C 
ATOM      9  O   UNL     1       7.890  10.315  17.454  0.00  0.00    +0.000 OA
ATOM     10  H   UNL     1       9.505   8.677  19.684  0.00  0.00    +0.000 HD
BRANCH   7  16
ATOM     11  C   UNL     1      12.332  12.986  18.095  0.00  0.00    +0.000 C 
ATOM     12  C   UNL     1      11.329  12.442  19.067  0.00  0.00    +0.000 A 
ATOM     13  C   UNL     1      11.036  13.094  20.250  0.00  0.00    +0.000 A 
ATOM     14  C   UNL     1      10.102  12.520  21.106  0.00  0.00    +0.000 A 
ATOM     15  C   UNL     1       9.494  11.312  20.755  0.00  0.00    +0.000 A 
ATOM     16  C   UNL     1       9.833  10.718  19.548  0.00  0.00    +0.000 A 
ATOM     17  N   UNL     1      10.735  11.278  18.722  0.00  0.00    +0.000 NA
ENDBRANCH   7  16
ENDBRANCH   1   8
BRANCH   4  18
ATOM     18  O   UNL     1       6.664   4.113  17.006  0.00  0.00    +0.000 OA
BRANCH  18  19
ATOM     19  C   UNL     1       5.361   3.974  16.405  0.00  0.00    +0.000 C 
BRANCH  19  20
ATOM     20  C   UNL     1       4.291   3.805  17.426  0.00  0.00    +0.000 A 
ATOM     21  C   UNL     1       3.702   2.635  17.856  0.00  0.00    +0.000 A 
ATOM     22  N   UNL     1       2.816   3.000  18.829  0.00  0.00    +0.000 N 
ATOM     23  C   UNL     1       1.964   2.198  19.574  0.00  0.00    +0.000 A 
ATOM     24  C   UNL     1       1.166   2.771  20.487  0.00  0.00    +0.000 A 
ATOM     25  C   UNL     1       1.228   4.214  20.666  0.00  0.00    +0.000 A 
ATOM     26  C   UNL     1       2.059   5.012  19.949  0.00  0.00    +0.000 A 
ATOM     27  C   UNL     1       2.065   6.499  20.194  0.00  0.00    +0.000 C 
ATOM     28  C   UNL     1       2.905   4.381  18.969  0.00  0.00    +0.000 A 
ATOM     29  N   UNL     1       3.796   4.883  18.134  0.00  0.00    +0.000 NA
ENDBRANCH  19  20
ENDBRANCH  18  19
ENDBRANCH   4  18
TORSDOF 5
ENDMDL
MODEL 3
REMARK VINA RESULT:      -8.4      1.609     10.304
REMARK  Name = 
REMARK  7 active torsions:
REMARK  status: ('A' for Active; 'I' for Inactive)
REMARK    1  A    between atoms: C_1  and  C_2
REMARK    2  A    between atoms: C_6  and  N_7
REMARK    3  A    between atoms: C_8  and  C_10
REMARK    4  A    between atoms: C_13  and  O_14
REMARK    5  A    between atoms: O_14  and  C_15
REMARK    6  A    between atoms: C_15  and  C_16
REMARK    7  A    between atoms: C_22  and  C_23
REMARK                            x       y       z     vdW  Elec       q    Type
REMARK                         _______ _______ _______ _____ _____    ______ ____
ROOT
ATOM      1  C   UNL     1       6.203   5.980  18.215  0.00  0.00    +0.000 A 
ATOM      2  C   UNL     1       5.950   6.982  17.271  0.00  0.00    +0.000 A 
ATOM      3  C   UNL     1       6.859   8.044  17.129  0.00  0.00    +0.000 A 
ATOM      4  C   UNL     1       8.006   8.115  17.929  0.00  0.00    +0.000 A 
ATOM      5  C   UNL     1       8.286   7.082  18.819  0.00  0.00    +0.000 A 
ATOM      6  C   UNL     1       7.384   6.035  18.970  0.00  0.00    +0.000 A 
ENDROOT
BRANCH   1   8
ATOM      7  N   UNL     1       3.906   5.195  18.606  0.00  0.00    +0.000 N 
ATOM      8  C   UNL     1       5.252   4.886  18.567  0.00  0.00    +0.000 C 
ATOM      9  O   UNL     1       5.756   3.789  18.783  0.00  0.00    +0.000 OA
ATOM     10  H   UNL     1       3.599   6.119  18.355  0.00  0.00    +0.000 HD
BRANCH   7  16
ATOM     11  C   UNL     1       1.647   2.561  21.927  0.00  0.00    +0.000 C 
ATOM     12  C   UNL     1       1.772   2.948  20.484  0.00  0.00    +0.000 A 
ATOM     13  C   UNL     1       0.958   2.398  19.512  0.00  0.00    +0.000 A 
ATOM     14  C   UNL     1       1.142   2.800  18.192  0.00  0.00    +0.000 A 
ATOM     15  C   UNL     1       2.135   3.734  17.887  0.00  0.00    +0.000 A 
ATOM     16  C   UNL     1       2.910   4.247  18.916  0.00  0.00    +0.000 A 
ATOM     17  N   UNL     1       2.728   3.858  20.191  0.00  0.00    +0.000 NA
ENDBRANCH   7  16
ENDBRANCH   1   8
BRANCH   4  18
ATOM     18  O   UNL     1       8.785   9.234  17.797  0.00  0.00    +0.000 OA
BRANCH  18  19
ATOM     19  C   UNL     1       9.067   9.919  19.034  0.00  0.00    +0.000 C 
BRANCH  19  20
ATOM     20  C   UNL     1       9.870  11.154  18.817  0.00  0.00    +0.000 A 
ATOM     21  C   UNL     1      10.617  11.501  17.712  0.00  0.00    +0.000 A 
ATOM     22  N   UNL     1      11.123  12.742  17.979  0.00  0.00    +0.000 N 
ATOM     23  C   UNL     1      11.948  13.531  17.192  0.00  0.00    +0.000 A 
ATOM     24  C   UNL     1      12.331  14.730  17.654  0.00  0.00    +0.000 A 
ATOM     25  C   UNL     1      11.862  15.161  18.963  0.00  0.00    +0.000 A 
ATOM     26  C   UNL     1      11.051  14.403  19.742  0.00  0.00    +0.000 A 
ATOM     27  C   UNL     1      10.607  14.920  21.086  0.00  0.00    +0.000 C 
ATOM     28  C   UNL     1      10.653  13.115  19.234  0.00  0.00    +0.000 A 
ATOM     29  N   UNL     1       9.889  12.171  19.752  0.00  0.00    +0.000 NA
ENDBRANCH  19  20
ENDBRANCH  18  19
ENDBRANCH   4  18
TORSDOF 5
ENDMDL
MODEL 4
REMARK VINA RESULT:      -8.4      2.004     10.217
REMARK  Name = 
REMARK  7 active torsions:
REMARK  status: ('A' for Active; 'I' for Inactive)
REMARK    1  A    between atoms: C_1  and  C_2
REMARK    2  A    between atoms: C_6  and  N_7
REMARK    3  A    between atoms: C_8  and  C_10
REMARK    4  A    between atoms: C_13  and  O_14
REMARK    5  A    between atoms: O_14  and  C_15
REMARK    6  A    between atoms: C_15  and  C_16
REMARK    7  A    between atoms: C_22  and  C_23
REMARK                            x       y       z     vdW  Elec       q    Type
REMARK                         _______ _______ _______ _____ _____    ______ ____
ROOT
ATOM      1  C   UNL     1       6.111   5.877  18.278  0.00  0.00    +0.000 A 
ATOM      2  C   UNL     1       5.803   6.853  17.322  0.00  0.00    +0.000 A 
ATOM      3  C   UNL     1       6.707   7.902  17.088  0.00  0.00    +0.000 A 
ATOM      4  C   UNL     1       7.905   7.988  17.810  0.00  0.00    +0.000 A 
ATOM      5  C   UNL     1       8.236   6.979  18.710  0.00  0.00    +0.000 A 
ATOM      6  C   UNL     1       7.339   5.945  18.951  0.00  0.00    +0.000 A 
ENDROOT
BRANCH   1   8
ATOM      7  N   UNL     1       3.825   5.015  18.548  0.00  0.00    +0.000 N 
ATOM      8  C   UNL     1       5.179   4.802  18.724  0.00  0.00    +0.000 C 
ATOM      9  O   UNL     1       5.705   3.804  19.204  0.00  0.00    +0.000 OA
ATOM     10  H   UNL     1       3.507   5.852  18.091  0.00  0.00    +0.000 HD
BRANCH   7  16
ATOM     11  C   UNL     1       1.557   2.623  22.043  0.00  0.00    +0.000 C 
ATOM     12  C   UNL     1       1.705   2.885  20.574  0.00  0.00    +0.000 A 
ATOM     13  C   UNL     1       0.926   2.231  19.638  0.00  0.00    +0.000 A 
ATOM     14  C   UNL     1       1.131   2.520  18.292  0.00  0.00    +0.000 A 
ATOM     15  C   UNL     1       2.107   3.449  17.926  0.00  0.00    +0.000 A 
ATOM     16  C   UNL     1       2.846   4.072  18.922  0.00  0.00    +0.000 A 
ATOM     17  N   UNL     1       2.644   3.791  20.222  0.00  0.00    +0.000 NA
ENDBRANCH   7  16
ENDBRANCH   1   8
BRANCH   4  18
ATOM     18  O   UNL     1       8.680   9.096  17.592  0.00  0.00    +0.000 OA
BRANCH  18  19
ATOM     19  C   UNL     1       8.936   9.889  18.769  0.00  0.00    +0.000 C 
BRANCH  19  20
ATOM     20  C   UNL     1       9.598  11.181  18.437  0.00  0.00    +0.000 A 
ATOM     21  C   UNL     1      10.900  11.392  18.036  0.00  0.00    +0.000 A 
ATOM     22  N   UNL     1      11.007  12.735  17.812  0.00  0.00    +0.000 N 
ATOM     23  C   UNL     1      12.115  13.462  17.402  0.00  0.00    +0.000 A 
ATOM     24  C   UNL     1      11.999  14.788  17.243  0.00  0.00    +0.000 A 
ATOM     25  C   UNL     1      10.711  15.415  17.503  0.00  0.00    +0.000 A 
ATOM     26  C   UNL     1       9.617  14.719  17.899  0.00  0.00    +0.000 A 
ATOM     27  C   UNL     1       8.319  15.442  18.147  0.00  0.00    +0.000 C 
ATOM     28  C   UNL     1       9.761  13.296  18.070  0.00  0.00    +0.000 A 
ATOM     29  N   UNL     1       8.896  12.371  18.443  0.00  0.00    +0.000 NA
ENDBRANCH  19  20
ENDBRANCH  18  19
ENDBRANCH   4  18
TORSDOF 5
ENDMDL
MODEL 5
REMARK VINA RESULT:      -8.3      0.876      1.973
REMARK  Name = 
REMARK  7 active torsions:
REMARK  status: ('A' for Active; 'I' for Inactive)
REMARK    1  A    between atoms: C_1  and  C_2
REMARK    2  A    between atoms: C_6  and  N_7
REMARK    3  A    between atoms: C_8  and  C_10
REMARK    4  A    between atoms: C_13  and  O_14
REMARK    5  A    between atoms: O_14  and  C_15
REMARK    6  A    between atoms: C_15  and  C_16
REMARK    7  A    between atoms: C_22  and  C_23
REMARK                            x       y       z     vdW  Elec       q    Type
REMARK                         _______ _______ _______ _____ _____    ______ ____
ROOT
ATOM      1  C   UNL     1       7.984   7.621  18.043  0.00  0.00    +0.000 A 
ATOM      2  C   UNL     1       8.019   6.557  18.952  0.00  0.00    +0.000 A 
ATOM      3  C   UNL     1       7.508   5.304  18.572  0.00  0.00    +0.000 A 
ATOM      4  C   UNL     1       6.955   5.114  17.299  0.00  0.00    +0.000 A 
ATOM      5  C   UNL     1       6.985   6.156  16.377  0.00  0.00    +0.000 A 
ATOM      6  C   UNL     1       7.479   7.400  16.753  0.00  0.00    +0.000 A 
ENDROOT
BRANCH   1   8
ATOM      7  N   UNL     1       9.220   9.235  19.424  0.00  0.00    +0.000 N 
ATOM      8  C   UNL     1       8.354   9.029  18.367  0.00  0.00    +0.000 C 
ATOM      9  O   UNL     1       7.860   9.891  17.649  0.00  0.00    +0.000 OA
ATOM     10  H   UNL     1       9.609   8.446  19.911  0.00  0.00    +0.000 HD
BRANCH   7  16
ATOM     11  C   UNL     1       8.994  12.834  22.598  0.00  0.00    +0.000 C 
ATOM     12  C   UNL     1       9.588  12.294  21.332  0.00  0.00    +0.000 A 
ATOM     13  C   UNL     1      10.505  13.019  20.594  0.00  0.00    +0.000 A 
ATOM     14  C   UNL     1      11.003  12.454  19.423  0.00  0.00    +0.000 A 
ATOM     15  C   UNL     1      10.568  11.188  19.027  0.00  0.00    +0.000 A 
ATOM     16  C   UNL     1       9.651  10.516  19.823  0.00  0.00    +0.000 A 
ATOM     17  N   UNL     1       9.173  11.064  20.955  0.00  0.00    +0.000 NA
ENDBRANCH   7  16
ENDBRANCH   1   8
BRANCH   4  18
ATOM     18  O   UNL     1       6.390   3.892  17.047  0.00  0.00    +0.000 OA
BRANCH  18  19
ATOM     19  C   UNL     1       5.002   3.943  16.659  0.00  0.00    +0.000 C 
BRANCH  19  20
ATOM     20  C   UNL     1       4.165   4.648  17.669  0.00  0.00    +0.000 A 
ATOM     21  C   UNL     1       3.794   5.976  17.690  0.00  0.00    +0.000 A 
ATOM     22  N   UNL     1       2.995   6.122  18.788  0.00  0.00    +0.000 N 
ATOM     23  C   UNL     1       2.372   7.267  19.261  0.00  0.00    +0.000 A 
ATOM     24  C   UNL     1       1.624   7.186  20.372  0.00  0.00    +0.000 A 
ATOM     25  C   UNL     1       1.492   5.897  21.036  0.00  0.00    +0.000 A 
ATOM     26  C   UNL     1       2.091   4.768  20.582  0.00  0.00    +0.000 A 
ATOM     27  C   UNL     1       1.904   3.471  21.326  0.00  0.00    +0.000 C 
ATOM     28  C   UNL     1       2.894   4.873  19.392  0.00  0.00    +0.000 A 
ATOM     29  N   UNL     1       3.589   3.970  18.726  0.00  0.00    +0.000 NA
ENDBRANCH  19  20
ENDBRANCH  18  19
ENDBRANCH   4  18
TORSDOF 5
ENDMDL
MODEL 6
REMARK VINA RESULT:      -8.2      1.249      2.017
REMARK  Name = 
REMARK  7 active torsions:
REMARK  status: ('A' for Active; 'I' for Inactive)
REMARK    1  A    between atoms: C_1  and  C_2
REMARK    2  A    between atoms: C_6  and  N_7
REMARK    3  A    between atoms: C_8  and  C_10
REMARK    4  A    between atoms: C_13  and  O_14
REMARK    5  A    between atoms: O_14  and  C_15
REMARK    6  A    between atoms: C_15  and  C_16
REMARK    7  A    between atoms: C_22  and  C_23
REMARK                            x       y       z     vdW  Elec       q    Type
REMARK                         _______ _______ _______ _____ _____    ______ ____
ROOT
ATOM      1  C   UNL     1       8.136   7.967  18.204  0.00  0.00    +0.000 A 
ATOM      2  C   UNL     1       8.277   6.916  19.118  0.00  0.00    +0.000 A 
ATOM      3  C   UNL     1       7.714   5.663  18.825  0.00  0.00    +0.000 A 
ATOM      4  C   UNL     1       7.004   5.459  17.634  0.00  0.00    +0.000 A 
ATOM      5  C   UNL     1       6.924   6.488  16.700  0.00  0.00    +0.000 A 
ATOM      6  C   UNL     1       7.471   7.732  16.991  0.00  0.00    +0.000 A 
ENDROOT
BRANCH   1   8
ATOM      7  N   UNL     1       9.331   9.622  19.574  0.00  0.00    +0.000 N 
ATOM      8  C   UNL     1       8.554   9.376  18.457  0.00  0.00    +0.000 C 
ATOM      9  O   UNL     1       8.177  10.202  17.634  0.00  0.00    +0.000 OA
ATOM     10  H   UNL     1       9.629   8.855  20.153  0.00  0.00    +0.000 HD
BRANCH   7  16
ATOM     11  C   UNL     1       8.899  13.542  22.316  0.00  0.00    +0.000 C 
ATOM     12  C   UNL     1       9.640  12.835  21.222  0.00  0.00    +0.000 A 
ATOM     13  C   UNL     1      10.717  13.416  20.580  0.00  0.00    +0.000 A 
ATOM     14  C   UNL     1      11.346  12.701  19.566  0.00  0.00    +0.000 A 
ATOM     15  C   UNL     1      10.878  11.430  19.224  0.00  0.00    +0.000 A 
ATOM     16  C   UNL     1       9.796  10.907  19.917  0.00  0.00    +0.000 A 
ATOM     17  N   UNL     1       9.191  11.601  20.898  0.00  0.00    +0.000 NA
ENDBRANCH   7  16
ENDBRANCH   1   8
BRANCH   4  18
ATOM     18  O   UNL     1       6.402   4.240  17.474  0.00  0.00    +0.000 OA
BRANCH  18  19
ATOM     19  C   UNL     1       5.066   4.296  16.935  0.00  0.00    +0.000 C 
BRANCH  19  20
ATOM     20  C   UNL     1       4.133   5.033  17.831  0.00  0.00    +0.000 A 
ATOM     21  C   UNL     1       3.622   4.629  19.046  0.00  0.00    +0.000 A 
ATOM     22  N   UNL     1       2.856   5.668  19.492  0.00  0.00    +0.000 N 
ATOM     23  C   UNL     1       2.117   5.762  20.662  0.00  0.00    +0.000 A 
ATOM     24  C   UNL     1       1.428   6.887  20.905  0.00  0.00    +0.000 A 
ATOM     25  C   UNL     1       1.487   7.969  19.934  0.00  0.00    +0.000 A 
ATOM     26  C   UNL     1       2.210   7.895  18.788  0.00  0.00    +0.000 A 
ATOM     27  C   UNL     1       2.220   9.060  17.833  0.00  0.00    +0.000 C 
ATOM     28  C   UNL     1       2.939   6.678  18.540  0.00  0.00    +0.000 A 
ATOM     29  N   UNL     1       3.711   6.314  17.532  0.00  0.00    +0.000 NA
ENDBRANCH  19  20
ENDBRANCH  18  19
ENDBRANCH   4  18
TORSDOF 5
ENDMDL
MODEL 7
REMARK VINA RESULT:      -8.2      6.152      8.901
REMARK  Name = 
REMARK  7 active torsions:
REMARK  status: ('A' for Active; 'I' for Inactive)
REMARK    1  A    between atoms: C_1  and  C_2
REMARK    2  A    between atoms: C_6  and  N_7
REMARK    3  A    between atoms: C_8  and  C_10
REMARK    4  A    between atoms: C_13  and  O_14
REMARK    5  A    between atoms: O_14  and  C_15
REMARK    6  A    between atoms: C_15  and  C_16
REMARK    7  A    between atoms: C_22  and  C_23
REMARK                            x       y       z     vdW  Elec       q    Type
REMARK                         _______ _______ _______ _____ _____    ______ ____
ROOT
ATOM      1  C   UNL     1       0.284  10.283  21.175  0.00  0.00    +0.000 A 
ATOM      2  C   UNL     1       1.038   9.111  21.302  0.00  0.00    +0.000 A 
ATOM      3  C   UNL     1       1.558   8.494  20.151  0.00  0.00    +0.000 A 
ATOM      4  C   UNL     1       1.319   9.034  18.881  0.00  0.00    +0.000 A 
ATOM      5  C   UNL     1       0.626  10.235  18.767  0.00  0.00    +0.000 A 
ATOM      6  C   UNL     1       0.101  10.843  19.902  0.00  0.00    +0.000 A 
ENDROOT
BRANCH   1   8
ATOM      7  N   UNL     1      -1.313  11.975  21.968  0.00  0.00    +0.000 N 
ATOM      8  C   UNL     1      -0.444  10.950  22.292  0.00  0.00    +0.000 C 
ATOM      9  O   UNL     1      -0.213  10.517  23.416  0.00  0.00    +0.000 OA
ATOM     10  H   UNL     1      -1.468  12.212  21.003  0.00  0.00    +0.000 HD
BRANCH   7  16
ATOM     11  C   UNL     1      -5.327  12.318  24.585  0.00  0.00    +0.000 C 
ATOM     12  C   UNL     1      -3.988  12.893  24.234  0.00  0.00    +0.000 A 
ATOM     13  C   UNL     1      -3.520  14.053  24.822  0.00  0.00    +0.000 A 
ATOM     14  C   UNL     1      -2.271  14.531  24.436  0.00  0.00    +0.000 A 
ATOM     15  C   UNL     1      -1.533  13.838  23.474  0.00  0.00    +0.000 A 
ATOM     16  C   UNL     1      -2.064  12.676  22.933  0.00  0.00    +0.000 A 
ATOM     17  N   UNL     1      -3.271  12.216  23.310  0.00  0.00    +0.000 NA
ENDBRANCH   7  16
ENDBRANCH   1   8
BRANCH   4  18
ATOM     18  O   UNL     1       1.776   8.316  17.808  0.00  0.00    +0.000 OA
BRANCH  18  19
ATOM     19  C   UNL     1       3.103   7.775  17.969  0.00  0.00    +0.000 C 
BRANCH  19  20
ATOM     20  C   UNL     1       3.094   6.288  18.046  0.00  0.00    +0.000 A 
ATOM     21  C   UNL     1       3.922   5.397  17.399  0.00  0.00    +0.000 A 
ATOM     22  N   UNL     1       3.546   4.157  17.831  0.00  0.00    +0.000 N 
ATOM     23  C   UNL     1       4.060   2.919  17.474  0.00  0.00    +0.000 A 
ATOM     24  C   UNL     1       3.535   1.815  18.025  0.00  0.00    +0.000 A 
ATOM     25  C   UNL     1       2.448   1.958  18.982  0.00  0.00    +0.000 A 
ATOM     26  C   UNL     1       1.937   3.161  19.345  0.00  0.00    +0.000 A 
ATOM     27  C   UNL     1       0.811   3.225  20.345  0.00  0.00    +0.000 C 
ATOM     28  C   UNL     1       2.509   4.336  18.740  0.00  0.00    +0.000 A 
ATOM     29  N   UNL     1       2.227   5.617  18.888  0.00  0.00    +0.000 NA
ENDBRANCH  19  20
ENDBRANCH  18  19
ENDBRANCH   4  18
TORSDOF 5
ENDMDL
MODEL 8
REMARK VINA RESULT:      -8.2      5.883      9.134
REMARK  Name = 
REMARK  7 active torsions:
REMARK  status: ('A' for Active; 'I' for Inactive)
REMARK    1  A    between atoms: C_1  and  C_2
REMARK    2  A    between atoms: C_6  and  N_7
REMARK    3  A    between atoms: C_8  and  C_10
REMARK    4  A    between atoms: C_13  and  O_14
REMARK    5  A    between atoms: O_14  and  C_15
REMARK    6  A    between atoms: C_15  and  C_16
REMARK    7  A    between atoms: C_22  and  C_23
REMARK                            x       y       z     vdW  Elec       q    Type
REMARK                         _______ _______ _______ _____ _____    ______ ____
ROOT
ATOM      1  C   UNL     1       2.401   7.299  19.042  0.00  0.00    +0.000 A 
ATOM      2  C   UNL     1       1.912   7.289  20.354  0.00  0.00    +0.000 A 
ATOM      3  C   UNL     1       1.153   8.377  20.819  0.00  0.00    +0.000 A 
ATOM      4  C   UNL     1       0.892   9.473  19.987  0.00  0.00    +0.000 A 
ATOM      5  C   UNL     1       1.323   9.448  18.664  0.00  0.00    +0.000 A 
ATOM      6  C   UNL     1       2.083   8.378  18.204  0.00  0.00    +0.000 A 
ENDROOT
BRANCH   1   8
ATOM      7  N   UNL     1       4.395   6.745  17.717  0.00  0.00    +0.000 N 
ATOM      8  C   UNL     1       3.336   6.285  18.476  0.00  0.00    +0.000 C 
ATOM      9  O   UNL     1       3.086   5.116  18.749  0.00  0.00    +0.000 OA
ATOM     10  H   UNL     1       4.535   7.735  17.603  0.00  0.00    +0.000 HD
BRANCH   7  16
ATOM     11  C   UNL     1       5.809   4.148  13.932  0.00  0.00    +0.000 C 
ATOM     12  C   UNL     1       6.093   4.614  15.328  0.00  0.00    +0.000 A 
ATOM     13  C   UNL     1       7.228   4.217  16.009  0.00  0.00    +0.000 A 
ATOM     14  C   UNL     1       7.415   4.683  17.307  0.00  0.00    +0.000 A 
ATOM     15  C   UNL     1       6.462   5.526  17.882  0.00  0.00    +0.000 A 
ATOM     16  C   UNL     1       5.351   5.888  17.135  0.00  0.00    +0.000 A 
ATOM     17  N   UNL     1       5.174   5.437  15.880  0.00  0.00    +0.000 NA
ENDBRANCH   7  16
ENDBRANCH   1   8
BRANCH   4  18
ATOM     18  O   UNL     1       0.232  10.533  20.550  0.00  0.00    +0.000 OA
BRANCH  18  19
ATOM     19  C   UNL     1       0.045  11.659  19.670  0.00  0.00    +0.000 C 
BRANCH  19  20
ATOM     20  C   UNL     1      -1.362  11.770  19.197  0.00  0.00    +0.000 A 
ATOM     21  C   UNL     1      -1.879  11.414  17.970  0.00  0.00    +0.000 A 
ATOM     22  N   UNL     1      -3.220  11.665  18.043  0.00  0.00    +0.000 N 
ATOM     23  C   UNL     1      -4.191  11.488  17.069  0.00  0.00    +0.000 A 
ATOM     24  C   UNL     1      -5.463  11.803  17.355  0.00  0.00    +0.000 A 
ATOM     25  C   UNL     1      -5.776  12.317  18.681  0.00  0.00    +0.000 A 
ATOM     26  C   UNL     1      -4.839  12.492  19.645  0.00  0.00    +0.000 A 
ATOM     27  C   UNL     1      -5.244  13.028  20.995  0.00  0.00    +0.000 C 
ATOM     28  C   UNL     1      -3.477  12.153  19.320  0.00  0.00    +0.000 A 
ATOM     29  N   UNL     1      -2.368  12.216  20.033  0.00  0.00    +0.000 NA
ENDBRANCH  19  20
ENDBRANCH  18  19
ENDBRANCH   4  18
TORSDOF 5
ENDMDL
MODEL 9
REMARK VINA RESULT:      -8.2      6.221      9.520
REMARK  Name = 
REMARK  7 active torsions:
REMARK  status: ('A' for Active; 'I' for Inactive)
REMARK    1  A    between atoms: C_1  and  C_2
REMARK    2  A    between atoms: C_6  and  N_7
REMARK    3  A    between atoms: C_8  and  C_10
REMARK    4  A    between atoms: C_13  and  O_14
REMARK    5  A    between atoms: O_14  and  C_15
REMARK    6  A    between atoms: C_15  and  C_16
REMARK    7  A    between atoms: C_22  and  C_23
REMARK                            x       y       z     vdW  Elec       q    Type
REMARK                         _______ _______ _______ _____ _____    ______ ____
ROOT
ATOM      1  C   UNL     1       2.304   7.661  18.805  0.00  0.00    +0.000 A 
ATOM      2  C   UNL     1       1.843   7.827  20.116  0.00  0.00    +0.000 A 
ATOM      3  C   UNL     1       1.050   8.942  20.436  0.00  0.00    +0.000 A 
ATOM      4  C   UNL     1       0.727   9.893  19.460  0.00  0.00    +0.000 A 
ATOM      5  C   UNL     1       1.130   9.687  18.143  0.00  0.00    +0.000 A 
ATOM      6  C   UNL     1       1.924   8.591  17.826  0.00  0.00    +0.000 A 
ENDROOT
BRANCH   1   8
ATOM      7  N   UNL     1       4.333   7.006  17.582  0.00  0.00    +0.000 N 
ATOM      8  C   UNL     1       3.268   6.611  18.369  0.00  0.00    +0.000 C 
ATOM      9  O   UNL     1       3.034   5.473  18.763  0.00  0.00    +0.000 OA
ATOM     10  H   UNL     1       4.458   7.980  17.365  0.00  0.00    +0.000 HD
BRANCH   7  16
ATOM     11  C   UNL     1       5.924   4.127  14.082  0.00  0.00    +0.000 C 
ATOM     12  C   UNL     1       6.142   4.702  15.449  0.00  0.00    +0.000 A 
ATOM     13  C   UNL     1       7.245   4.365  16.211  0.00  0.00    +0.000 A 
ATOM     14  C   UNL     1       7.371   4.931  17.476  0.00  0.00    +0.000 A 
ATOM     15  C   UNL     1       6.391   5.813  17.939  0.00  0.00    +0.000 A 
ATOM     16  C   UNL     1       5.316   6.110  17.115  0.00  0.00    +0.000 A 
ATOM     17  N   UNL     1       5.198   5.562  15.892  0.00  0.00    +0.000 NA
ENDBRANCH   7  16
ENDBRANCH   1   8
BRANCH   4  18
ATOM     18  O   UNL     1       0.036  10.998  19.878  0.00  0.00    +0.000 OA
BRANCH  18  19
ATOM     19  C   UNL     1       0.616  11.675  21.011  0.00  0.00    +0.000 C 
BRANCH  19  20
ATOM     20  C   UNL     1      -0.422  12.248  21.911  0.00  0.00    +0.000 A 
ATOM     21  C   UNL     1      -1.651  11.718  22.240  0.00  0.00    +0.000 A 
ATOM     22  N   UNL     1      -2.209  12.592  23.129  0.00  0.00    +0.000 N 
ATOM     23  C   UNL     1      -3.444  12.524  23.755  0.00  0.00    +0.000 A 
ATOM     24  C   UNL     1      -3.798  13.502  24.602  0.00  0.00    +0.000 A 
ATOM     25  C   UNL     1      -2.867  14.597  24.834  0.00  0.00    +0.000 A 
ATOM     26  C   UNL     1      -1.654  14.676  24.234  0.00  0.00    +0.000 A 
ATOM     27  C   UNL     1      -0.747  15.843  24.529  0.00  0.00    +0.000 C 
ATOM     28  C   UNL     1      -1.292  13.620  23.324  0.00  0.00    +0.000 A 
ATOM     29  N   UNL     1      -0.205  13.425  22.602  0.00  0.00    +0.000 NA
ENDBRANCH  19  20
ENDBRANCH  18  19
ENDBRANCH   4  18
TORSDOF 5
ENDMDL
