MODEL 1
REMARK VINA RESULT:      -7.7      0.000      0.000
REMARK  Name = 
REMARK  3 active torsions:
REMARK  status: ('A' for Active; 'I' for Inactive)
REMARK    1  A    between atoms: C_1  and  C_2
REMARK    2  A    between atoms: C_10  and  C_11
REMARK    3  A    between atoms: C_11  and  N_12
REMARK                            x       y       z     vdW  Elec       q    Type
REMARK                         _______ _______ _______ _____ _____    ______ ____
ROOT
ATOM      1  N   UNL     1       5.237   5.579  17.115  0.00  0.00    +0.000 N 
ATOM      2  C   UNL     1       6.267   4.935  17.766  0.00  0.00    +0.000 C 
ATOM      3  O   UNL     1       6.227   4.345  18.832  0.00  0.00    +0.000 OA
ATOM      4  N   UNL     1       7.360   4.842  16.862  0.00  0.00    +0.000 N 
ATOM      5  C   UNL     1       6.741   4.769  15.571  0.00  0.00    +0.000 C 
ATOM      6  C   UNL     1       6.122   3.344  15.434  0.00  0.00    +0.000 C 
ATOM      7  C   UNL     1       5.596   3.257  14.017  0.00  0.00    +0.000 C 
ATOM      8  C   UNL     1       6.614   4.100  13.316  0.00  0.00    +0.000 A 
ATOM      9  C   UNL     1       6.730   4.213  11.944  0.00  0.00    +0.000 A 
ATOM     10  C   UNL     1       7.613   5.162  11.447  0.00  0.00    +0.000 A 
ATOM     11  C   UNL     1       8.370   5.959  12.323  0.00  0.00    +0.000 A 
ATOM     12  C   UNL     1       8.248   5.835  13.716  0.00  0.00    +0.000 A 
ATOM     13  C   UNL     1       7.343   4.916  14.216  0.00  0.00    +0.000 A 
ATOM     14  C   UNL     1       5.700   5.845  15.859  0.00  0.00    +0.000 C 
ATOM     15  O   UNL     1       5.324   6.758  15.140  0.00  0.00    +0.000 OA
ATOM     16  H   UNL     1       8.090   4.193  17.131  0.00  0.00    +0.000 HD
ENDROOT
BRANCH   1  17
ATOM     17  C   UNL     1       3.849   5.141  17.174  0.00  0.00    +0.000 C 
BRANCH  17  27
ATOM     18  C   UNL     1       1.640   9.724  17.741  0.00  0.00    +0.000 C 
ATOM     19  C   UNL     1       1.583   9.020  19.062  0.00  0.00    +0.000 A 
ATOM     20  C   UNL     1       1.126   9.633  20.168  0.00  0.00    +0.000 A 
ATOM     21  C   UNL     1       0.974   8.923  21.407  0.00  0.00    +0.000 A 
ATOM     22  C   UNL     1       1.254   7.620  21.461  0.00  0.00    +0.000 A 
ATOM     23  N   UNL     1       1.780   6.937  20.371  0.00  0.00    +0.000 N 
ATOM     24  C   UNL     1       2.068   5.591  20.520  0.00  0.00    +0.000 A 
ATOM     25  O   UNL     1       1.769   4.896  21.489  0.00  0.00    +0.000 OA
ATOM     26  C   UNL     1       2.816   4.976  19.423  0.00  0.00    +0.000 A 
ATOM     27  C   UNL     1       3.045   5.691  18.319  0.00  0.00    +0.000 A 
ATOM     28  N   UNL     1       2.602   6.993  18.150  0.00  0.00    +0.000 NA
ATOM     29  C   UNL     1       2.029   7.585  19.150  0.00  0.00    +0.000 A 
ENDBRANCH  17  27
ENDBRANCH   1  17
TORSDOF 2
ENDMDL
MODEL 2
REMARK VINA RESULT:      -7.6      2.241      3.688
REMARK  Name = 
REMARK  3 active torsions:
REMARK  status: ('A' for Active; 'I' for Inactive)
REMARK    1  A    between atoms: C_1  and  C_2
REMARK    2  A    between atoms: C_10  and  C_11
REMARK    3  A    between atoms: C_11  and  N_12
REMARK                            x       y       z     vdW  Elec       q    Type
REMARK                         _______ _______ _______ _____ _____    ______ ____
ROOT
ATOM      1  N   UNL     1       3.374   4.656  20.281  0.00  0.00    +0.000 N 
ATOM      2  C   UNL     1       3.660   3.339  20.566  0.00  0.00    +0.000 C 
ATOM      3  O   UNL     1       2.993   2.551  21.215  0.00  0.00    +0.000 OA
ATOM      4  N   UNL     1       4.763   2.949  19.758  0.00  0.00    +0.000 N 
ATOM      5  C   UNL     1       4.630   3.750  18.577  0.00  0.00    +0.000 C 
ATOM      6  C   UNL     1       3.440   3.167  17.753  0.00  0.00    +0.000 C 
ATOM      7  C   UNL     1       3.414   3.949  16.457  0.00  0.00    +0.000 C 
ATOM      8  C   UNL     1       4.879   4.190  16.276  0.00  0.00    +0.000 A 
ATOM      9  C   UNL     1       5.454   4.709  15.132  0.00  0.00    +0.000 A 
ATOM     10  C   UNL     1       6.803   5.031  15.177  0.00  0.00    +0.000 A 
ATOM     11  C   UNL     1       7.550   4.813  16.348  0.00  0.00    +0.000 A 
ATOM     12  C   UNL     1       6.958   4.282  17.506  0.00  0.00    +0.000 A 
ATOM     13  C   UNL     1       5.605   3.993  17.477  0.00  0.00    +0.000 A 
ATOM     14  C   UNL     1       4.269   5.031  19.320  0.00  0.00    +0.000 C 
ATOM     15  O   UNL     1       4.665   6.169  19.121  0.00  0.00    +0.000 OA
ATOM     16  H   UNL     1       4.926   1.951  19.700  0.00  0.00    +0.000 HD
ENDROOT
BRANCH   1  17
ATOM     17  C   UNL     1       2.022   5.162  20.085  0.00  0.00    +0.000 C 
BRANCH  17  27
ATOM     18  C   UNL     1       0.643   9.157  22.973  0.00  0.00    +0.000 C 
ATOM     19  C   UNL     1       0.715   9.621  21.551  0.00  0.00    +0.000 A 
ATOM     20  C   UNL     1       0.335  10.860  21.194  0.00  0.00    +0.000 A 
ATOM     21  C   UNL     1       0.506  11.337  19.851  0.00  0.00    +0.000 A 
ATOM     22  C   UNL     1       1.085  10.553  18.940  0.00  0.00    +0.000 A 
ATOM     23  N   UNL     1       1.453   9.245  19.226  0.00  0.00    +0.000 N 
ATOM     24  C   UNL     1       2.025   8.490  18.216  0.00  0.00    +0.000 A 
ATOM     25  O   UNL     1       2.375   8.912  17.115  0.00  0.00    +0.000 OA
ATOM     26  C   UNL     1       2.192   7.065  18.503  0.00  0.00    +0.000 A 
ATOM     27  C   UNL     1       1.922   6.620  19.732  0.00  0.00    +0.000 A 
ATOM     28  N   UNL     1       1.496   7.442  20.763  0.00  0.00    +0.000 NA
ATOM     29  C   UNL     1       1.245   8.686  20.498  0.00  0.00    +0.000 A 
ENDBRANCH  17  27
ENDBRANCH   1  17
TORSDOF 2
ENDMDL
MODEL 3
REMARK VINA RESULT:      -7.5      8.240     10.823
REMARK  Name = 
REMARK  3 active torsions:
REMARK  status: ('A' for Active; 'I' for Inactive)
REMARK    1  A    between atoms: C_1  and  C_2
REMARK    2  A    between atoms: C_10  and  C_11
REMARK    3  A    between atoms: C_11  and  N_12
REMARK                            x       y       z     vdW  Elec       q    Type
REMARK                         _______ _______ _______ _____ _____    ______ ____
ROOT
ATOM      1  N   UNL     1       0.751  12.391  19.941  0.00  0.00    +0.000 N 
ATOM      2  C   UNL     1       0.759  11.220  20.667  0.00  0.00    +0.000 C 
ATOM      3  O   UNL     1       1.207  11.035  21.786  0.00  0.00    +0.000 OA
ATOM      4  N   UNL     1      -0.081  10.288  19.998  0.00  0.00    +0.000 N 
ATOM      5  C   UNL     1      -1.070  11.107  19.359  0.00  0.00    +0.000 C 
ATOM      6  C   UNL     1      -2.031  11.627  20.472  0.00  0.00    +0.000 C 
ATOM      7  C   UNL     1      -3.132  12.373  19.750  0.00  0.00    +0.000 C 
ATOM      8  C   UNL     1      -3.217  11.555  18.500  0.00  0.00    +0.000 A 
ATOM      9  C   UNL     1      -4.208  11.679  17.545  0.00  0.00    +0.000 A 
ATOM     10  C   UNL     1      -4.058  10.968  16.363  0.00  0.00    +0.000 A 
ATOM     11  C   UNL     1      -2.938  10.140  16.166  0.00  0.00    +0.000 A 
ATOM     12  C   UNL     1      -1.937  10.018  17.143  0.00  0.00    +0.000 A 
ATOM     13  C   UNL     1      -2.065  10.753  18.309  0.00  0.00    +0.000 A 
ATOM     14  C   UNL     1      -0.082  12.166  18.883  0.00  0.00    +0.000 C 
ATOM     15  O   UNL     1      -0.024  12.727  17.799  0.00  0.00    +0.000 OA
ATOM     16  H   UNL     1      -0.345   9.475  20.541  0.00  0.00    +0.000 HD
ENDROOT
BRANCH   1  17
ATOM     17  C   UNL     1       0.629  13.711  20.544  0.00  0.00    +0.000 C 
BRANCH  17  27
ATOM     18  C   UNL     1      -2.091  17.723  18.897  0.00  0.00    +0.000 C 
ATOM     19  C   UNL     1      -0.793  17.710  18.150  0.00  0.00    +0.000 A 
ATOM     20  C   UNL     1      -0.547  18.574  17.149  0.00  0.00    +0.000 A 
ATOM     21  C   UNL     1       0.736  18.628  16.507  0.00  0.00    +0.000 A 
ATOM     22  C   UNL     1       1.721  17.834  16.930  0.00  0.00    +0.000 A 
ATOM     23  N   UNL     1       1.521  16.882  17.922  0.00  0.00    +0.000 N 
ATOM     24  C   UNL     1       2.590  16.080  18.284  0.00  0.00    +0.000 A 
ATOM     25  O   UNL     1       3.753  16.223  17.910  0.00  0.00    +0.000 OA
ATOM     26  C   UNL     1       2.273  14.958  19.168  0.00  0.00    +0.000 A 
ATOM     27  C   UNL     1       1.040  14.863  19.669  0.00  0.00    +0.000 A 
ATOM     28  N   UNL     1       0.035  15.780  19.402  0.00  0.00    +0.000 NA
ATOM     29  C   UNL     1       0.271  16.720  18.540  0.00  0.00    +0.000 A 
ENDBRANCH  17  27
ENDBRANCH   1  17
TORSDOF 2
ENDMDL
MODEL 4
REMARK VINA RESULT:      -7.3      2.092      3.924
REMARK  Name = 
REMARK  3 active torsions:
REMARK  status: ('A' for Active; 'I' for Inactive)
REMARK    1  A    between atoms: C_1  and  C_2
REMARK    2  A    between atoms: C_10  and  C_11
REMARK    3  A    between atoms: C_11  and  N_12
REMARK                            x       y       z     vdW  Elec       q    Type
REMARK                         _______ _______ _______ _____ _____    ______ ____
ROOT
ATOM      1  N   UNL     1       3.178   5.910  19.678  0.00  0.00    +0.000 N 
ATOM      2  C   UNL     1       3.347   4.739  20.384  0.00  0.00    +0.000 C 
ATOM      3  O   UNL     1       2.589   4.239  21.199  0.00  0.00    +0.000 OA
ATOM      4  N   UNL     1       4.455   4.049  19.822  0.00  0.00    +0.000 N 
ATOM      5  C   UNL     1       4.444   4.437  18.442  0.00  0.00    +0.000 C 
ATOM      6  C   UNL     1       3.255   3.691  17.761  0.00  0.00    +0.000 C 
ATOM      7  C   UNL     1       3.354   4.018  16.286  0.00  0.00    +0.000 C 
ATOM      8  C   UNL     1       4.841   4.104  16.144  0.00  0.00    +0.000 A 
ATOM      9  C   UNL     1       5.511   4.197  14.939  0.00  0.00    +0.000 A 
ATOM     10  C   UNL     1       6.877   4.439  14.977  0.00  0.00    +0.000 A 
ATOM     11  C   UNL     1       7.545   4.563  16.209  0.00  0.00    +0.000 A 
ATOM     12  C   UNL     1       6.856   4.465  17.428  0.00  0.00    +0.000 A 
ATOM     13  C   UNL     1       5.488   4.260  17.394  0.00  0.00    +0.000 A 
ATOM     14  C   UNL     1       4.146   5.907  18.716  0.00  0.00    +0.000 C 
ATOM     15  O   UNL     1       4.638   6.897  18.197  0.00  0.00    +0.000 OA
ATOM     16  H   UNL     1       4.543   3.077  20.094  0.00  0.00    +0.000 HD
ENDROOT
BRANCH   1  17
ATOM     17  C   UNL     1       1.880   6.403  19.236  0.00  0.00    +0.000 C 
BRANCH  17  27
ATOM     18  C   UNL     1       0.110   9.332  23.044  0.00  0.00    +0.000 C 
ATOM     19  C   UNL     1       0.214  10.185  21.818  0.00  0.00    +0.000 A 
ATOM     20  C   UNL     1      -0.233  11.454  21.802  0.00  0.00    +0.000 A 
ATOM     21  C   UNL     1      -0.035  12.301  20.660  0.00  0.00    +0.000 A 
ATOM     22  C   UNL     1       0.635  11.841  19.603  0.00  0.00    +0.000 A 
ATOM     23  N   UNL     1       1.077  10.526  19.531  0.00  0.00    +0.000 N 
ATOM     24  C   UNL     1       1.742  10.121  18.385  0.00  0.00    +0.000 A 
ATOM     25  O   UNL     1       2.111  10.858  17.472  0.00  0.00    +0.000 OA
ATOM     26  C   UNL     1       1.991   8.685  18.268  0.00  0.00    +0.000 A 
ATOM     27  C   UNL     1       1.698   7.894  19.303  0.00  0.00    +0.000 A 
ATOM     28  N   UNL     1       1.173   8.365  20.497  0.00  0.00    +0.000 NA
ATOM     29  C   UNL     1       0.851   9.618  20.578  0.00  0.00    +0.000 A 
ENDBRANCH  17  27
ENDBRANCH   1  17
TORSDOF 2
ENDMDL
MODEL 5
REMARK VINA RESULT:      -7.3      7.500     11.088
REMARK  Name = 
REMARK  3 active torsions:
REMARK  status: ('A' for Active; 'I' for Inactive)
REMARK    1  A    between atoms: C_1  and  C_2
REMARK    2  A    between atoms: C_10  and  C_11
REMARK    3  A    between atoms: C_11  and  N_12
REMARK                            x       y       z     vdW  Elec       q    Type
REMARK                         _______ _______ _______ _____ _____    ______ ____
ROOT
ATOM      1  N   UNL     1       1.658  14.326  19.588  0.00  0.00    +0.000 N 
ATOM      2  C   UNL     1       0.415  14.859  19.323  0.00  0.00    +0.000 C 
ATOM      3  O   UNL     1       0.113  15.659  18.454  0.00  0.00    +0.000 OA
ATOM      4  N   UNL     1      -0.542  14.125  20.075  0.00  0.00    +0.000 N 
ATOM      5  C   UNL     1       0.025  12.812  20.175  0.00  0.00    +0.000 C 
ATOM      6  C   UNL     1      -0.119  12.137  18.776  0.00  0.00    +0.000 C 
ATOM      7  C   UNL     1       0.366  10.714  18.953  0.00  0.00    +0.000 C 
ATOM      8  C   UNL     1      -0.081  10.466  20.359  0.00  0.00    +0.000 A 
ATOM      9  C   UNL     1      -0.062   9.233  20.983  0.00  0.00    +0.000 A 
ATOM     10  C   UNL     1      -0.349   9.193  22.340  0.00  0.00    +0.000 A 
ATOM     11  C   UNL     1      -0.665  10.373  23.037  0.00  0.00    +0.000 A 
ATOM     12  C   UNL     1      -0.685  11.620  22.394  0.00  0.00    +0.000 A 
ATOM     13  C   UNL     1      -0.364  11.670  21.049  0.00  0.00    +0.000 A 
ATOM     14  C   UNL     1       1.442  13.297  20.459  0.00  0.00    +0.000 C 
ATOM     15  O   UNL     1       2.248  12.873  21.274  0.00  0.00    +0.000 OA
ATOM     16  H   UNL     1      -1.507  14.260  19.798  0.00  0.00    +0.000 HD
ENDROOT
BRANCH   1  17
ATOM     17  C   UNL     1       2.654  14.057  18.561  0.00  0.00    +0.000 C 
BRANCH  17  27
ATOM     18  C   UNL     1       7.454  12.960  17.156  0.00  0.00    +0.000 C 
ATOM     19  C   UNL     1       7.482  14.245  17.923  0.00  0.00    +0.000 A 
ATOM     20  C   UNL     1       8.639  14.852  18.241  0.00  0.00    +0.000 A 
ATOM     21  C   UNL     1       8.659  16.136  18.882  0.00  0.00    +0.000 A 
ATOM     22  C   UNL     1       7.511  16.764  19.139  0.00  0.00    +0.000 A 
ATOM     23  N   UNL     1       6.280  16.174  18.887  0.00  0.00    +0.000 N 
ATOM     24  C   UNL     1       5.135  16.885  19.208  0.00  0.00    +0.000 A 
ATOM     25  O   UNL     1       5.098  18.060  19.568  0.00  0.00    +0.000 OA
ATOM     26  C   UNL     1       3.879  16.138  19.127  0.00  0.00    +0.000 A 
ATOM     27  C   UNL     1       3.897  14.900  18.628  0.00  0.00    +0.000 A 
ATOM     28  N   UNL     1       5.049  14.279  18.171  0.00  0.00    +0.000 NA
ATOM     29  C   UNL     1       6.183  14.887  18.332  0.00  0.00    +0.000 A 
ENDBRANCH  17  27
ENDBRANCH   1  17
TORSDOF 2
ENDMDL
MODEL 6
REMARK VINA RESULT:      -7.2      3.558      9.305
REMARK  Name = 
REMARK  3 active torsions:
REMARK  status: ('A' for Active; 'I' for Inactive)
REMARK    1  A    between atoms: C_1  and  C_2
REMARK    2  A    between atoms: C_10  and  C_11
REMARK    3  A    between atoms: C_11  and  N_12
REMARK                            x       y       z     vdW  Elec       q    Type
REMARK                         _______ _______ _______ _____ _____    ______ ____
ROOT
ATOM      1  N   UNL     1       1.347  10.624  19.125  0.00  0.00    +0.000 N 
ATOM      2  C   UNL     1       1.863  11.851  18.767  0.00  0.00    +0.000 C 
ATOM      3  O   UNL     1       2.738  12.086  17.950  0.00  0.00    +0.000 OA
ATOM      4  N   UNL     1       1.027  12.855  19.327  0.00  0.00    +0.000 N 
ATOM      5  C   UNL     1      -0.271  12.246  19.366  0.00  0.00    +0.000 C 
ATOM      6  C   UNL     1      -0.805  12.200  17.901  0.00  0.00    +0.000 C 
ATOM      7  C   UNL     1      -2.222  11.677  17.995  0.00  0.00    +0.000 C 
ATOM      8  C   UNL     1      -2.625  12.270  19.308  0.00  0.00    +0.000 A 
ATOM      9  C   UNL     1      -3.913  12.269  19.808  0.00  0.00    +0.000 A 
ATOM     10  C   UNL     1      -4.100  12.708  21.111  0.00  0.00    +0.000 A 
ATOM     11  C   UNL     1      -3.008  13.153  21.877  0.00  0.00    +0.000 A 
ATOM     12  C   UNL     1      -1.702  13.153  21.360  0.00  0.00    +0.000 A 
ATOM     13  C   UNL     1      -1.507  12.683  20.073  0.00  0.00    +0.000 A 
ATOM     14  C   UNL     1       0.228  10.893  19.861  0.00  0.00    +0.000 C 
ATOM     15  O   UNL     1      -0.249  10.169  20.720  0.00  0.00    +0.000 OA
ATOM     16  H   UNL     1       1.159  13.787  18.953  0.00  0.00    +0.000 HD
ENDROOT
BRANCH   1  17
ATOM     17  C   UNL     1       1.215   9.506  18.201  0.00  0.00    +0.000 C 
BRANCH  17  27
ATOM     18  C   UNL     1       4.986   6.947  15.870  0.00  0.00    +0.000 C 
ATOM     19  C   UNL     1       4.467   6.088  16.982  0.00  0.00    +0.000 A 
ATOM     20  C   UNL     1       4.902   4.828  17.161  0.00  0.00    +0.000 A 
ATOM     21  C   UNL     1       4.482   4.047  18.290  0.00  0.00    +0.000 A 
ATOM     22  C   UNL     1       3.672   4.585  19.203  0.00  0.00    +0.000 A 
ATOM     23  N   UNL     1       3.143   5.861  19.053  0.00  0.00    +0.000 N 
ATOM     24  C   UNL     1       2.289   6.335  20.034  0.00  0.00    +0.000 A 
ATOM     25  O   UNL     1       2.060   5.788  21.112  0.00  0.00    +0.000 OA
ATOM     26  C   UNL     1       1.594   7.584  19.724  0.00  0.00    +0.000 A 
ATOM     27  C   UNL     1       1.921   8.243  18.610  0.00  0.00    +0.000 A 
ATOM     28  N   UNL     1       2.898   7.810  17.727  0.00  0.00    +0.000 NA
ATOM     29  C   UNL     1       3.449   6.654  17.935  0.00  0.00    +0.000 A 
ENDBRANCH  17  27
ENDBRANCH   1  17
TORSDOF 2
ENDMDL
MODEL 7
REMARK VINA RESULT:      -7.1      3.629      9.318
REMARK  Name = 
REMARK  3 active torsions:
REMARK  status: ('A' for Active; 'I' for Inactive)
REMARK    1  A    between atoms: C_1  and  C_2
REMARK    2  A    between atoms: C_10  and  C_11
REMARK    3  A    between atoms: C_11  and  N_12
REMARK                            x       y       z     vdW  Elec       q    Type
REMARK                         _______ _______ _______ _____ _____    ______ ____
ROOT
ATOM      1  N   UNL     1       1.658  10.290  19.123  0.00  0.00    +0.000 N 
ATOM      2  C   UNL     1       2.098  11.477  18.578  0.00  0.00    +0.000 C 
ATOM      3  O   UNL     1       2.686  11.644  17.522  0.00  0.00    +0.000 OA
ATOM      4  N   UNL     1       1.529  12.539  19.331  0.00  0.00    +0.000 N 
ATOM      5  C   UNL     1       0.279  12.009  19.793  0.00  0.00    +0.000 C 
ATOM      6  C   UNL     1      -0.686  11.965  18.567  0.00  0.00    +0.000 C 
ATOM      7  C   UNL     1      -2.028  11.529  19.116  0.00  0.00    +0.000 C 
ATOM      8  C   UNL     1      -1.972  12.171  20.466  0.00  0.00    +0.000 A 
ATOM      9  C   UNL     1      -3.039  12.256  21.340  0.00  0.00    +0.000 A 
ATOM     10  C   UNL     1      -2.788  12.731  22.620  0.00  0.00    +0.000 A 
ATOM     11  C   UNL     1      -1.491  13.126  22.992  0.00  0.00    +0.000 A 
ATOM     12  C   UNL     1      -0.413  13.039  22.096  0.00  0.00    +0.000 A 
ATOM     13  C   UNL     1      -0.652  12.532  20.831  0.00  0.00    +0.000 A 
ATOM     14  C   UNL     1       0.839  10.639  20.159  0.00  0.00    +0.000 C 
ATOM     15  O   UNL     1       0.617   9.961  21.150  0.00  0.00    +0.000 OA
ATOM     16  H   UNL     1       1.584  13.454  18.900  0.00  0.00    +0.000 HD
ENDROOT
BRANCH   1  17
ATOM     17  C   UNL     1       1.189   9.164  18.328  0.00  0.00    +0.000 C 
BRANCH  17  27
ATOM     18  C   UNL     1       1.084   4.506  20.450  0.00  0.00    +0.000 C 
ATOM     19  C   UNL     1       2.426   4.690  19.813  0.00  0.00    +0.000 A 
ATOM     20  C   UNL     1       3.403   3.776  19.950  0.00  0.00    +0.000 A 
ATOM     21  C   UNL     1       4.650   3.905  19.251  0.00  0.00    +0.000 A 
ATOM     22  C   UNL     1       4.839   4.930  18.419  0.00  0.00    +0.000 A 
ATOM     23  N   UNL     1       3.895   5.937  18.270  0.00  0.00    +0.000 N 
ATOM     24  C   UNL     1       4.181   6.981  17.405  0.00  0.00    +0.000 A 
ATOM     25  O   UNL     1       5.140   7.032  16.636  0.00  0.00    +0.000 OA
ATOM     26  C   UNL     1       3.259   8.115  17.450  0.00  0.00    +0.000 A 
ATOM     27  C   UNL     1       2.156   8.019  18.195  0.00  0.00    +0.000 A 
ATOM     28  N   UNL     1       1.828   6.890  18.929  0.00  0.00    +0.000 NA
ATOM     29  C   UNL     1       2.684   5.918  18.981  0.00  0.00    +0.000 A 
ENDBRANCH  17  27
ENDBRANCH   1  17
TORSDOF 2
ENDMDL
MODEL 8
REMARK VINA RESULT:      -7.1      9.112     10.486
REMARK  Name = 
REMARK  3 active torsions:
REMARK  status: ('A' for Active; 'I' for Inactive)
REMARK    1  A    between atoms: C_1  and  C_2
REMARK    2  A    between atoms: C_10  and  C_11
REMARK    3  A    between atoms: C_11  and  N_12
REMARK                            x       y       z     vdW  Elec       q    Type
REMARK                         _______ _______ _______ _____ _____    ______ ____
ROOT
ATOM      1  N   UNL     1       7.603  16.172  18.870  0.00  0.00    +0.000 N 
ATOM      2  C   UNL     1       8.399  17.061  18.181  0.00  0.00    +0.000 C 
ATOM      3  O   UNL     1       8.333  18.279  18.180  0.00  0.00    +0.000 OA
ATOM      4  N   UNL     1       9.501  16.338  17.650  0.00  0.00    +0.000 N 
ATOM      5  C   UNL     1       9.706  15.274  18.590  0.00  0.00    +0.000 C 
ATOM      6  C   UNL     1      10.350  15.901  19.865  0.00  0.00    +0.000 C 
ATOM      7  C   UNL     1      10.673  14.737  20.778  0.00  0.00    +0.000 C 
ATOM      8  C   UNL     1      11.012  13.699  19.756  0.00  0.00    +0.000 A 
ATOM      9  C   UNL     1      11.572  12.469  20.042  0.00  0.00    +0.000 A 
ATOM     10  C   UNL     1      11.673  11.549  19.007  0.00  0.00    +0.000 A 
ATOM     11  C   UNL     1      11.233  11.881  17.714  0.00  0.00    +0.000 A 
ATOM     12  C   UNL     1      10.667  13.134  17.431  0.00  0.00    +0.000 A 
ATOM     13  C   UNL     1      10.532  14.041  18.468  0.00  0.00    +0.000 A 
ATOM     14  C   UNL     1       8.224  14.960  18.765  0.00  0.00    +0.000 C 
ATOM     15  O   UNL     1       7.673  13.871  18.817  0.00  0.00    +0.000 OA
ATOM     16  H   UNL     1      10.274  16.905  17.323  0.00  0.00    +0.000 HD
ENDROOT
BRANCH   1  17
ATOM     17  C   UNL     1       7.030  16.452  20.180  0.00  0.00    +0.000 C 
BRANCH  17  27
ATOM     18  C   UNL     1       3.046  16.921  17.000  0.00  0.00    +0.000 C 
ATOM     19  C   UNL     1       2.519  16.498  18.336  0.00  0.00    +0.000 A 
ATOM     20  C   UNL     1       1.200  16.413  18.580  0.00  0.00    +0.000 A 
ATOM     21  C   UNL     1       0.701  15.905  19.826  0.00  0.00    +0.000 A 
ATOM     22  C   UNL     1       1.556  15.473  20.754  0.00  0.00    +0.000 A 
ATOM     23  N   UNL     1       2.931  15.580  20.590  0.00  0.00    +0.000 N 
ATOM     24  C   UNL     1       3.749  15.130  21.614  0.00  0.00    +0.000 A 
ATOM     25  O   UNL     1       3.378  14.507  22.607  0.00  0.00    +0.000 OA
ATOM     26  C   UNL     1       5.168  15.463  21.486  0.00  0.00    +0.000 A 
ATOM     27  C   UNL     1       5.596  16.037  20.360  0.00  0.00    +0.000 A 
ATOM     28  N   UNL     1       4.765  16.331  19.291  0.00  0.00    +0.000 NA
ATOM     29  C   UNL     1       3.490  16.138  19.429  0.00  0.00    +0.000 A 
ENDBRANCH  17  27
ENDBRANCH   1  17
TORSDOF 2
ENDMDL
MODEL 9
REMARK VINA RESULT:      -7.1      3.396      5.783
REMARK  Name = 
REMARK  3 active torsions:
REMARK  status: ('A' for Active; 'I' for Inactive)
REMARK    1  A    between atoms: C_1  and  C_2
REMARK    2  A    between atoms: C_10  and  C_11
REMARK    3  A    between atoms: C_11  and  N_12
REMARK                            x       y       z     vdW  Elec       q    Type
REMARK                         _______ _______ _______ _____ _____    ______ ____
ROOT
ATOM      1  N   UNL     1       1.899   8.402  19.044  0.00  0.00    +0.000 N 
ATOM      2  C   UNL     1       1.743   7.916  20.324  0.00  0.00    +0.000 C 
ATOM      3  O   UNL     1       0.854   8.169  21.119  0.00  0.00    +0.000 OA
ATOM      4  N   UNL     1       2.666   6.849  20.499  0.00  0.00    +0.000 N 
ATOM      5  C   UNL     1       2.806   6.290  19.186  0.00  0.00    +0.000 C 
ATOM      6  C   UNL     1       1.496   5.501  18.876  0.00  0.00    +0.000 C 
ATOM      7  C   UNL     1       1.732   4.819  17.546  0.00  0.00    +0.000 C 
ATOM      8  C   UNL     1       3.198   4.541  17.657  0.00  0.00    +0.000 A 
ATOM      9  C   UNL     1       3.917   3.749  16.783  0.00  0.00    +0.000 A 
ATOM     10  C   UNL     1       5.297   3.723  16.922  0.00  0.00    +0.000 A 
ATOM     11  C   UNL     1       5.926   4.468  17.935  0.00  0.00    +0.000 A 
ATOM     12  C   UNL     1       5.187   5.268  18.821  0.00  0.00    +0.000 A 
ATOM     13  C   UNL     1       3.814   5.325  18.664  0.00  0.00    +0.000 A 
ATOM     14  C   UNL     1       2.874   7.636  18.472  0.00  0.00    +0.000 C 
ATOM     15  O   UNL     1       3.617   7.987  17.569  0.00  0.00    +0.000 OA
ATOM     16  H   UNL     1       2.498   6.259  21.305  0.00  0.00    +0.000 HD
ENDROOT
BRANCH   1  17
ATOM     17  C   UNL     1       0.784   8.728  18.166  0.00  0.00    +0.000 C 
BRANCH  17  27
ATOM     18  C   UNL     1       2.950  13.363  18.357  0.00  0.00    +0.000 C 
ATOM     19  C   UNL     1       1.532  13.499  18.819  0.00  0.00    +0.000 A 
ATOM     20  C   UNL     1       1.056  14.660  19.301  0.00  0.00    +0.000 A 
ATOM     21  C   UNL     1      -0.330  14.816  19.642  0.00  0.00    +0.000 A 
ATOM     22  C   UNL     1      -1.177  13.804  19.446  0.00  0.00    +0.000 A 
ATOM     23  N   UNL     1      -0.744  12.561  19.002  0.00  0.00    +0.000 N 
ATOM     24  C   UNL     1      -1.685  11.556  18.850  0.00  0.00    +0.000 A 
ATOM     25  O   UNL     1      -2.904  11.697  18.934  0.00  0.00    +0.000 OA
ATOM     26  C   UNL     1      -1.152  10.219  18.593  0.00  0.00    +0.000 A 
ATOM     27  C   UNL     1       0.160  10.078  18.386  0.00  0.00    +0.000 A 
ATOM     28  N   UNL     1       1.051  11.139  18.394  0.00  0.00    +0.000 NA
ATOM     29  C   UNL     1       0.610  12.313  18.722  0.00  0.00    +0.000 A 
ENDBRANCH  17  27
ENDBRANCH   1  17
TORSDOF 2
ENDMDL
