MODEL 1
REMARK VINA RESULT:      -9.2      0.000      0.000
REMARK  Name = 
REMARK  6 active torsions:
REMARK  status: ('A' for Active; 'I' for Inactive)
REMARK    1  A    between atoms: C_1  and  C_2
REMARK    2  A    between atoms: C_7  and  C_8
REMARK    3  A    between atoms: C_8  and  C_9
REMARK    4  A    between atoms: N_12  and  C_13
REMARK    5  A    between atoms: C_13  and  C_14
REMARK    6  A    between atoms: C_17  and  C_18
REMARK                            x       y       z     vdW  Elec       q    Type
REMARK                         _______ _______ _______ _____ _____    ______ ____
ROOT
ATOM      1  C   UNL     1       4.335   5.626  18.269  0.00  0.00    +0.000 A 
ATOM      2  N   UNL     1       4.983   5.423  19.460  0.00  0.00    +0.000 NA
ATOM      3  N   UNL     1       6.222   5.061  19.162  0.00  0.00    +0.000 NA
ATOM      4  N   UNL     1       6.277   5.087  17.816  0.00  0.00    +0.000 N 
ATOM      5  N   UNL     1       5.104   5.353  17.198  0.00  0.00    +0.000 NA
ENDROOT
BRANCH   1   6
ATOM      6  C   UNL     1       2.894   5.973  18.200  0.00  0.00    +0.000 C 
BRANCH   6  13
ATOM      7  C   UNL     1       1.610   5.942  20.965  0.00  0.00    +0.000 C 
ATOM      8  C   UNL     1       1.525   4.773  20.020  0.00  0.00    +0.000 A 
ATOM      9  C   UNL     1       0.860   3.613  20.456  0.00  0.00    +0.000 A 
ATOM     10  C   UNL     1       0.772   2.485  19.641  0.00  0.00    +0.000 A 
ATOM     11  C   UNL     1       1.343   2.500  18.376  0.00  0.00    +0.000 A 
ATOM     12  C   UNL     1       2.007   3.641  17.927  0.00  0.00    +0.000 A 
ATOM     13  C   UNL     1       2.117   4.789  18.738  0.00  0.00    +0.000 A 
ENDBRANCH   6  13
ENDBRANCH   1   6
BRANCH   4  14
ATOM     14  C   UNL     1       7.443   4.632  17.097  0.00  0.00    +0.000 C 
BRANCH  14  15
ATOM     15  C   UNL     1       7.234   4.724  15.641  0.00  0.00    +0.000 A 
ATOM     16  N   UNL     1       7.750   5.601  14.807  0.00  0.00    +0.000 NA
ATOM     17  N   UNL     1       7.341   5.235  13.549  0.00  0.00    +0.000 NA
ATOM     18  C   UNL     1       6.601   4.154  13.684  0.00  0.00    +0.000 A 
ATOM     19  O   UNL     1       6.497   3.751  14.995  0.00  0.00    +0.000 OA
BRANCH  18  20
ATOM     20  C   UNL     1       5.923   3.390  12.640  0.00  0.00    +0.000 A 
ATOM     21  C   UNL     1       6.594   2.281  12.090  0.00  0.00    +0.000 A 
ATOM     22  C   UNL     1       6.037   1.531  11.050  0.00  0.00    +0.000 A 
ATOM     23  C   UNL     1       4.792   1.882  10.545  0.00  0.00    +0.000 A 
ATOM     24  C   UNL     1       4.112   2.966  11.095  0.00  0.00    +0.000 A 
ATOM     25  F   UNL     1       2.911   3.296  10.604  0.00  0.00    +0.000 F 
ATOM     26  C   UNL     1       4.660   3.720  12.136  0.00  0.00    +0.000 A 
ENDBRANCH  18  20
ENDBRANCH  14  15
ENDBRANCH   4  14
TORSDOF 5
ENDMDL
MODEL 2
REMARK VINA RESULT:      -9.1      5.322      7.511
REMARK  Name = 
REMARK  6 active torsions:
REMARK  status: ('A' for Active; 'I' for Inactive)
REMARK    1  A    between atoms: C_1  and  C_2
REMARK    2  A    between atoms: C_7  and  C_8
REMARK    3  A    between atoms: C_8  and  C_9
REMARK    4  A    between atoms: N_12  and  C_13
REMARK    5  A    between atoms: C_13  and  C_14
REMARK    6  A    between atoms: C_17  and  C_18
REMARK                            x       y       z     vdW  Elec       q    Type
REMARK                         _______ _______ _______ _____ _____    ______ ____
ROOT
ATOM      1  C   UNL     1       4.477   5.007  17.698  0.00  0.00    +0.000 A 
ATOM      2  N   UNL     1       5.155   4.264  16.766  0.00  0.00    +0.000 NA
ATOM      3  N   UNL     1       6.446   4.436  17.009  0.00  0.00    +0.000 NA
ATOM      4  N   UNL     1       6.492   5.246  18.083  0.00  0.00    +0.000 N 
ATOM      5  N   UNL     1       5.293   5.704  18.510  0.00  0.00    +0.000 NA
ENDROOT
BRANCH   1   6
ATOM      6  C   UNL     1       2.997   5.122  17.696  0.00  0.00    +0.000 C 
BRANCH   6  13
ATOM      7  C   UNL     1       2.353   2.143  17.607  0.00  0.00    +0.000 C 
ATOM      8  C   UNL     1       2.181   2.972  18.853  0.00  0.00    +0.000 A 
ATOM      9  C   UNL     1       1.664   2.347  20.002  0.00  0.00    +0.000 A 
ATOM     10  C   UNL     1       1.451   3.064  21.178  0.00  0.00    +0.000 A 
ATOM     11  C   UNL     1       1.757   4.418  21.226  0.00  0.00    +0.000 A 
ATOM     12  C   UNL     1       2.269   5.055  20.097  0.00  0.00    +0.000 A 
ATOM     13  C   UNL     1       2.482   4.351  18.894  0.00  0.00    +0.000 A 
ENDBRANCH   6  13
ENDBRANCH   1   6
BRANCH   4  14
ATOM     14  C   UNL     1       7.740   5.768  18.586  0.00  0.00    +0.000 C 
BRANCH  14  15
ATOM     15  C   UNL     1       7.912   7.183  18.209  0.00  0.00    +0.000 A 
ATOM     16  N   UNL     1       7.298   7.840  17.249  0.00  0.00    +0.000 NA
ATOM     17  N   UNL     1       7.717   9.144  17.337  0.00  0.00    +0.000 NA
ATOM     18  C   UNL     1       8.560   9.211  18.347  0.00  0.00    +0.000 A 
ATOM     19  O   UNL     1       8.727   7.996  18.970  0.00  0.00    +0.000 OA
BRANCH  18  20
ATOM     20  C   UNL     1       9.289  10.378  18.836  0.00  0.00    +0.000 A 
ATOM     21  C   UNL     1      10.018  11.142  17.904  0.00  0.00    +0.000 A 
ATOM     22  C   UNL     1      10.786  12.241  18.300  0.00  0.00    +0.000 A 
ATOM     23  C   UNL     1      10.833  12.593  19.642  0.00  0.00    +0.000 A 
ATOM     24  C   UNL     1      10.101  11.856  20.569  0.00  0.00    +0.000 A 
ATOM     25  F   UNL     1      10.151  12.204  21.861  0.00  0.00    +0.000 F 
ATOM     26  C   UNL     1       9.330  10.757  20.182  0.00  0.00    +0.000 A 
ENDBRANCH  18  20
ENDBRANCH  14  15
ENDBRANCH   4  14
TORSDOF 5
ENDMDL
MODEL 3
REMARK VINA RESULT:      -8.9      5.109      7.315
REMARK  Name = 
REMARK  6 active torsions:
REMARK  status: ('A' for Active; 'I' for Inactive)
REMARK    1  A    between atoms: C_1  and  C_2
REMARK    2  A    between atoms: C_7  and  C_8
REMARK    3  A    between atoms: C_8  and  C_9
REMARK    4  A    between atoms: N_12  and  C_13
REMARK    5  A    between atoms: C_13  and  C_14
REMARK    6  A    between atoms: C_17  and  C_18
REMARK                            x       y       z     vdW  Elec       q    Type
REMARK                         _______ _______ _______ _____ _____    ______ ____
ROOT
ATOM      1  C   UNL     1       4.972   4.196  17.159  0.00  0.00    +0.000 A 
ATOM      2  N   UNL     1       5.885   3.925  16.173  0.00  0.00    +0.000 NA
ATOM      3  N   UNL     1       7.050   4.397  16.593  0.00  0.00    +0.000 NA
ATOM      4  N   UNL     1       6.798   4.903  17.815  0.00  0.00    +0.000 N 
ATOM      5  N   UNL     1       5.499   4.881  18.191  0.00  0.00    +0.000 NA
ENDROOT
BRANCH   1   6
ATOM      6  C   UNL     1       3.530   3.879  17.013  0.00  0.00    +0.000 C 
BRANCH   6  13
ATOM      7  C   UNL     1       3.536   1.364  18.736  0.00  0.00    +0.000 C 
ATOM      8  C   UNL     1       2.935   2.663  19.203  0.00  0.00    +0.000 A 
ATOM      9  C   UNL     1       2.319   2.695  20.467  0.00  0.00    +0.000 A 
ATOM     10  C   UNL     1       1.716   3.858  20.944  0.00  0.00    +0.000 A 
ATOM     11  C   UNL     1       1.723   5.009  20.169  0.00  0.00    +0.000 A 
ATOM     12  C   UNL     1       2.328   4.995  18.913  0.00  0.00    +0.000 A 
ATOM     13  C   UNL     1       2.934   3.828  18.405  0.00  0.00    +0.000 A 
ENDBRANCH   6  13
ENDBRANCH   1   6
BRANCH   4  14
ATOM     14  C   UNL     1       7.804   5.625  18.558  0.00  0.00    +0.000 C 
BRANCH  14  15
ATOM     15  C   UNL     1       7.853   7.039  18.144  0.00  0.00    +0.000 A 
ATOM     16  N   UNL     1       7.164   7.622  17.187  0.00  0.00    +0.000 NA
ATOM     17  N   UNL     1       7.481   8.957  17.234  0.00  0.00    +0.000 NA
ATOM     18  C   UNL     1       8.342   9.115  18.217  0.00  0.00    +0.000 A 
ATOM     19  O   UNL     1       8.621   7.933  18.863  0.00  0.00    +0.000 OA
BRANCH  18  20
ATOM     20  C   UNL     1       8.990  10.347  18.660  0.00  0.00    +0.000 A 
ATOM     21  C   UNL     1       9.567  10.366  19.945  0.00  0.00    +0.000 A 
ATOM     22  C   UNL     1      10.157  11.523  20.464  0.00  0.00    +0.000 A 
ATOM     23  C   UNL     1      10.180  12.681  19.698  0.00  0.00    +0.000 A 
ATOM     24  C   UNL     1       9.629  12.666  18.419  0.00  0.00    +0.000 A 
ATOM     25  F   UNL     1       9.656  13.787  17.688  0.00  0.00    +0.000 F 
ATOM     26  C   UNL     1       9.038  11.515  17.892  0.00  0.00    +0.000 A 
ENDBRANCH  18  20
ENDBRANCH  14  15
ENDBRANCH   4  14
TORSDOF 5
ENDMDL
MODEL 4
REMARK VINA RESULT:      -8.6      5.251      7.378
REMARK  Name = 
REMARK  6 active torsions:
REMARK  status: ('A' for Active; 'I' for Inactive)
REMARK    1  A    between atoms: C_1  and  C_2
REMARK    2  A    between atoms: C_7  and  C_8
REMARK    3  A    between atoms: C_8  and  C_9
REMARK    4  A    between atoms: N_12  and  C_13
REMARK    5  A    between atoms: C_13  and  C_14
REMARK    6  A    between atoms: C_17  and  C_18
REMARK                            x       y       z     vdW  Elec       q    Type
REMARK                         _______ _______ _______ _____ _____    ______ ____
ROOT
ATOM      1  C   UNL     1       5.006   3.869  17.452  0.00  0.00    +0.000 A 
ATOM      2  N   UNL     1       5.606   4.248  16.279  0.00  0.00    +0.000 NA
ATOM      3  N   UNL     1       6.722   4.880  16.609  0.00  0.00    +0.000 NA
ATOM      4  N   UNL     1       6.761   4.835  17.954  0.00  0.00    +0.000 N 
ATOM      5  N   UNL     1       5.674   4.287  18.543  0.00  0.00    +0.000 NA
ENDROOT
BRANCH   1   6
ATOM      6  C   UNL     1       3.684   3.194  17.485  0.00  0.00    +0.000 C 
BRANCH   6  13
ATOM      7  C   UNL     1       2.193   5.778  18.113  0.00  0.00    +0.000 C 
ATOM      8  C   UNL     1       2.374   4.681  19.128  0.00  0.00    +0.000 A 
ATOM      9  C   UNL     1       1.867   4.884  20.425  0.00  0.00    +0.000 A 
ATOM     10  C   UNL     1       2.029   3.921  21.419  0.00  0.00    +0.000 A 
ATOM     11  C   UNL     1       2.695   2.737  21.133  0.00  0.00    +0.000 A 
ATOM     12  C   UNL     1       3.205   2.519  19.854  0.00  0.00    +0.000 A 
ATOM     13  C   UNL     1       3.063   3.483  18.836  0.00  0.00    +0.000 A 
ENDBRANCH   6  13
ENDBRANCH   1   6
BRANCH   4  14
ATOM     14  C   UNL     1       7.778   5.530  18.706  0.00  0.00    +0.000 C 
BRANCH  14  15
ATOM     15  C   UNL     1       7.883   6.937  18.278  0.00  0.00    +0.000 A 
ATOM     16  N   UNL     1       7.209   7.539  17.322  0.00  0.00    +0.000 NA
ATOM     17  N   UNL     1       7.583   8.860  17.351  0.00  0.00    +0.000 NA
ATOM     18  C   UNL     1       8.461   8.990  18.323  0.00  0.00    +0.000 A 
ATOM     19  O   UNL     1       8.696   7.804  18.979  0.00  0.00    +0.000 OA
BRANCH  18  20
ATOM     20  C   UNL     1       9.166  10.198  18.746  0.00  0.00    +0.000 A 
ATOM     21  C   UNL     1       9.775  10.989  17.753  0.00  0.00    +0.000 A 
ATOM     22  C   UNL     1      10.514  12.131  18.078  0.00  0.00    +0.000 A 
ATOM     23  C   UNL     1      10.652  12.498  19.410  0.00  0.00    +0.000 A 
ATOM     24  C   UNL     1      10.037  11.733  20.398  0.00  0.00    +0.000 A 
ATOM     25  F   UNL     1      10.173  12.095  21.679  0.00  0.00    +0.000 F 
ATOM     26  C   UNL     1       9.296  10.591  20.082  0.00  0.00    +0.000 A 
ENDBRANCH  18  20
ENDBRANCH  14  15
ENDBRANCH   4  14
TORSDOF 5
ENDMDL
MODEL 5
REMARK VINA RESULT:      -8.6      5.296      7.309
REMARK  Name = 
REMARK  6 active torsions:
REMARK  status: ('A' for Active; 'I' for Inactive)
REMARK    1  A    between atoms: C_1  and  C_2
REMARK    2  A    between atoms: C_7  and  C_8
REMARK    3  A    between atoms: C_8  and  C_9
REMARK    4  A    between atoms: N_12  and  C_13
REMARK    5  A    between atoms: C_13  and  C_14
REMARK    6  A    between atoms: C_17  and  C_18
REMARK                            x       y       z     vdW  Elec       q    Type
REMARK                         _______ _______ _______ _____ _____    ______ ____
ROOT
ATOM      1  C   UNL     1       4.415   5.125  17.771  0.00  0.00    +0.000 A 
ATOM      2  N   UNL     1       5.058   4.067  17.186  0.00  0.00    +0.000 NA
ATOM      3  N   UNL     1       6.345   4.196  17.475  0.00  0.00    +0.000 NA
ATOM      4  N   UNL     1       6.418   5.303  18.238  0.00  0.00    +0.000 N 
ATOM      5  N   UNL     1       5.255   5.975  18.391  0.00  0.00    +0.000 NA
ENDROOT
BRANCH   1   6
ATOM      6  C   UNL     1       2.959   5.360  17.602  0.00  0.00    +0.000 C 
BRANCH   6  13
ATOM      7  C   UNL     1       2.045   6.176  20.395  0.00  0.00    +0.000 C 
ATOM      8  C   UNL     1       1.816   4.796  19.839  0.00  0.00    +0.000 A 
ATOM      9  C   UNL     1       1.191   3.842  20.663  0.00  0.00    +0.000 A 
ATOM     10  C   UNL     1       0.977   2.538  20.221  0.00  0.00    +0.000 A 
ATOM     11  C   UNL     1       1.379   2.167  18.945  0.00  0.00    +0.000 A 
ATOM     12  C   UNL     1       2.000   3.098  18.114  0.00  0.00    +0.000 A 
ATOM     13  C   UNL     1       2.236   4.419  18.545  0.00  0.00    +0.000 A 
ENDBRANCH   6  13
ENDBRANCH   1   6
BRANCH   4  14
ATOM     14  C   UNL     1       7.686   5.850  18.658  0.00  0.00    +0.000 C 
BRANCH  14  15
ATOM     15  C   UNL     1       7.861   7.225  18.157  0.00  0.00    +0.000 A 
ATOM     16  N   UNL     1       7.347   7.757  17.069  0.00  0.00    +0.000 NA
ATOM     17  N   UNL     1       7.715   9.079  17.067  0.00  0.00    +0.000 NA
ATOM     18  C   UNL     1       8.430   9.282  18.155  0.00  0.00    +0.000 A 
ATOM     19  O   UNL     1       8.556   8.144  18.917  0.00  0.00    +0.000 OA
BRANCH  18  20
ATOM     20  C   UNL     1       9.063  10.521  18.600  0.00  0.00    +0.000 A 
ATOM     21  C   UNL     1       8.845  11.685  17.838  0.00  0.00    +0.000 A 
ATOM     22  C   UNL     1       9.458  12.899  18.165  0.00  0.00    +0.000 A 
ATOM     23  C   UNL     1      10.300  12.963  19.267  0.00  0.00    +0.000 A 
ATOM     24  C   UNL     1      10.506  11.822  20.038  0.00  0.00    +0.000 A 
ATOM     25  F   UNL     1      11.317  11.894  21.100  0.00  0.00    +0.000 F 
ATOM     26  C   UNL     1       9.897  10.606  19.719  0.00  0.00    +0.000 A 
ENDBRANCH  18  20
ENDBRANCH  14  15
ENDBRANCH   4  14
TORSDOF 5
ENDMDL
MODEL 6
REMARK VINA RESULT:      -8.5      5.204      7.256
REMARK  Name = 
REMARK  6 active torsions:
REMARK  status: ('A' for Active; 'I' for Inactive)
REMARK    1  A    between atoms: C_1  and  C_2
REMARK    2  A    between atoms: C_7  and  C_8
REMARK    3  A    between atoms: C_8  and  C_9
REMARK    4  A    between atoms: N_12  and  C_13
REMARK    5  A    between atoms: C_13  and  C_14
REMARK    6  A    between atoms: C_17  and  C_18
REMARK                            x       y       z     vdW  Elec       q    Type
REMARK                         _______ _______ _______ _____ _____    ______ ____
ROOT
ATOM      1  C   UNL     1       4.560   5.303  18.098  0.00  0.00    +0.000 A 
ATOM      2  N   UNL     1       5.066   4.035  17.983  0.00  0.00    +0.000 NA
ATOM      3  N   UNL     1       6.351   4.108  18.300  0.00  0.00    +0.000 NA
ATOM      4  N   UNL     1       6.557   5.400  18.616  0.00  0.00    +0.000 N 
ATOM      5  N   UNL     1       5.493   6.215  18.430  0.00  0.00    +0.000 NA
ENDROOT
BRANCH   1   6
ATOM      6  C   UNL     1       3.155   5.631  17.749  0.00  0.00    +0.000 C 
BRANCH   6  13
ATOM      7  C   UNL     1       2.115   6.217  20.555  0.00  0.00    +0.000 C 
ATOM      8  C   UNL     1       1.784   4.946  19.818  0.00  0.00    +0.000 A 
ATOM      9  C   UNL     1       0.998   3.982  20.475  0.00  0.00    +0.000 A 
ATOM     10  C   UNL     1       0.681   2.772  19.861  0.00  0.00    +0.000 A 
ATOM     11  C   UNL     1       1.141   2.507  18.578  0.00  0.00    +0.000 A 
ATOM     12  C   UNL     1       1.922   3.450  17.912  0.00  0.00    +0.000 A 
ATOM     13  C   UNL     1       2.264   4.676  18.518  0.00  0.00    +0.000 A 
ENDBRANCH   6  13
ENDBRANCH   1   6
BRANCH   4  14
ATOM     14  C   UNL     1       7.877   5.908  18.902  0.00  0.00    +0.000 C 
BRANCH  14  15
ATOM     15  C   UNL     1       8.053   7.263  18.349  0.00  0.00    +0.000 A 
ATOM     16  N   UNL     1       7.591   7.734  17.211  0.00  0.00    +0.000 NA
ATOM     17  N   UNL     1       7.934   9.063  17.168  0.00  0.00    +0.000 NA
ATOM     18  C   UNL     1       8.583   9.329  18.283  0.00  0.00    +0.000 A 
ATOM     19  O   UNL     1       8.688   8.230  19.103  0.00  0.00    +0.000 OA
BRANCH  18  20
ATOM     20  C   UNL     1       9.167  10.600  18.704  0.00  0.00    +0.000 A 
ATOM     21  C   UNL     1       9.782  10.658  19.970  0.00  0.00    +0.000 A 
ATOM     22  C   UNL     1      10.316  11.850  20.470  0.00  0.00    +0.000 A 
ATOM     23  C   UNL     1      10.241  13.006  19.704  0.00  0.00    +0.000 A 
ATOM     24  C   UNL     1       9.652  12.954  18.444  0.00  0.00    +0.000 A 
ATOM     25  F   UNL     1       9.587  14.073  17.712  0.00  0.00    +0.000 F 
ATOM     26  C   UNL     1       9.118  11.768  17.935  0.00  0.00    +0.000 A 
ENDBRANCH  18  20
ENDBRANCH  14  15
ENDBRANCH   4  14
TORSDOF 5
ENDMDL
MODEL 7
REMARK VINA RESULT:      -8.4      5.328      7.605
REMARK  Name = 
REMARK  6 active torsions:
REMARK  status: ('A' for Active; 'I' for Inactive)
REMARK    1  A    between atoms: C_1  and  C_2
REMARK    2  A    between atoms: C_7  and  C_8
REMARK    3  A    between atoms: C_8  and  C_9
REMARK    4  A    between atoms: N_12  and  C_13
REMARK    5  A    between atoms: C_13  and  C_14
REMARK    6  A    between atoms: C_17  and  C_18
REMARK                            x       y       z     vdW  Elec       q    Type
REMARK                         _______ _______ _______ _____ _____    ______ ____
ROOT
ATOM      1  C   UNL     1       4.320   5.153  18.396  0.00  0.00    +0.000 A 
ATOM      2  N   UNL     1       4.693   4.098  19.188  0.00  0.00    +0.000 NA
ATOM      3  N   UNL     1       6.009   4.172  19.324  0.00  0.00    +0.000 NA
ATOM      4  N   UNL     1       6.368   5.273  18.637  0.00  0.00    +0.000 N 
ATOM      5  N   UNL     1       5.365   5.884  17.965  0.00  0.00    +0.000 NA
ENDROOT
BRANCH   1   6
ATOM      6  C   UNL     1       2.917   5.359  17.959  0.00  0.00    +0.000 C 
BRANCH   6  13
ATOM      7  C   UNL     1       1.978   5.346  20.860  0.00  0.00    +0.000 C 
ATOM      8  C   UNL     1       1.962   6.588  20.009  0.00  0.00    +0.000 A 
ATOM      9  C   UNL     1       1.455   7.773  20.573  0.00  0.00    +0.000 A 
ATOM     10  C   UNL     1       1.383   8.950  19.829  0.00  0.00    +0.000 A 
ATOM     11  C   UNL     1       1.823   8.964  18.513  0.00  0.00    +0.000 A 
ATOM     12  C   UNL     1       2.328   7.799  17.937  0.00  0.00    +0.000 A 
ATOM     13  C   UNL     1       2.399   6.594  18.667  0.00  0.00    +0.000 A 
ENDBRANCH   6  13
ENDBRANCH   1   6
BRANCH   4  14
ATOM     14  C   UNL     1       7.754   5.628  18.446  0.00  0.00    +0.000 C 
BRANCH  14  15
ATOM     15  C   UNL     1       7.893   7.061  18.127  0.00  0.00    +0.000 A 
ATOM     16  N   UNL     1       7.254   7.745  17.202  0.00  0.00    +0.000 NA
ATOM     17  N   UNL     1       7.648   9.053  17.340  0.00  0.00    +0.000 NA
ATOM     18  C   UNL     1       8.504   9.094  18.340  0.00  0.00    +0.000 A 
ATOM     19  O   UNL     1       8.702   7.858  18.911  0.00  0.00    +0.000 OA
BRANCH  18  20
ATOM     20  C   UNL     1       9.217  10.254  18.869  0.00  0.00    +0.000 A 
ATOM     21  C   UNL     1       9.955  11.045  17.967  0.00  0.00    +0.000 A 
ATOM     22  C   UNL     1      10.708  12.139  18.401  0.00  0.00    +0.000 A 
ATOM     23  C   UNL     1      10.732  12.460  19.752  0.00  0.00    +0.000 A 
ATOM     24  C   UNL     1       9.990  11.696  20.649  0.00  0.00    +0.000 A 
ATOM     25  F   UNL     1      10.017  12.013  21.949  0.00  0.00    +0.000 F 
ATOM     26  C   UNL     1       9.233  10.601  20.224  0.00  0.00    +0.000 A 
ENDBRANCH  18  20
ENDBRANCH  14  15
ENDBRANCH   4  14
TORSDOF 5
ENDMDL
MODEL 8
REMARK VINA RESULT:      -8.3      4.786      6.884
REMARK  Name = 
REMARK  6 active torsions:
REMARK  status: ('A' for Active; 'I' for Inactive)
REMARK    1  A    between atoms: C_1  and  C_2
REMARK    2  A    between atoms: C_7  and  C_8
REMARK    3  A    between atoms: C_8  and  C_9
REMARK    4  A    between atoms: N_12  and  C_13
REMARK    5  A    between atoms: C_13  and  C_14
REMARK    6  A    between atoms: C_17  and  C_18
REMARK                            x       y       z     vdW  Elec       q    Type
REMARK                         _______ _______ _______ _____ _____    ______ ____
ROOT
ATOM      1  C   UNL     1       3.460   5.036  17.268  0.00  0.00    +0.000 A 
ATOM      2  N   UNL     1       3.906   3.822  16.815  0.00  0.00    +0.000 NA
ATOM      3  N   UNL     1       5.137   4.012  16.363  0.00  0.00    +0.000 NA
ATOM      4  N   UNL     1       5.389   5.316  16.584  0.00  0.00    +0.000 N 
ATOM      5  N   UNL     1       4.349   6.029  17.073  0.00  0.00    +0.000 NA
ENDROOT
BRANCH   1   6
ATOM      6  C   UNL     1       2.083   5.234  17.784  0.00  0.00    +0.000 C 
BRANCH   6  13
ATOM      7  C   UNL     1       2.077   6.304  20.639  0.00  0.00    +0.000 C 
ATOM      8  C   UNL     1       1.924   4.840  20.323  0.00  0.00    +0.000 A 
ATOM      9  C   UNL     1       1.817   3.936  21.396  0.00  0.00    +0.000 A 
ATOM     10  C   UNL     1       1.704   2.564  21.172  0.00  0.00    +0.000 A 
ATOM     11  C   UNL     1       1.692   2.074  19.873  0.00  0.00    +0.000 A 
ATOM     12  C   UNL     1       1.799   2.955  18.798  0.00  0.00    +0.000 A 
ATOM     13  C   UNL     1       1.925   4.345  19.000  0.00  0.00    +0.000 A 
ENDBRANCH   6  13
ENDBRANCH   1   6
BRANCH   4  14
ATOM     14  C   UNL     1       6.600   5.944  16.112  0.00  0.00    +0.000 C 
BRANCH  14  15
ATOM     15  C   UNL     1       7.271   6.681  17.198  0.00  0.00    +0.000 A 
ATOM     16  N   UNL     1       7.756   6.196  18.321  0.00  0.00    +0.000 NA
ATOM     17  N   UNL     1       8.360   7.243  18.972  0.00  0.00    +0.000 NA
ATOM     18  C   UNL     1       8.212   8.307  18.210  0.00  0.00    +0.000 A 
ATOM     19  O   UNL     1       7.537   8.027  17.044  0.00  0.00    +0.000 OA
BRANCH  18  20
ATOM     20  C   UNL     1       8.667   9.671  18.468  0.00  0.00    +0.000 A 
ATOM     21  C   UNL     1       8.255  10.685  17.581  0.00  0.00    +0.000 A 
ATOM     22  C   UNL     1       8.690  12.006  17.727  0.00  0.00    +0.000 A 
ATOM     23  C   UNL     1       9.547  12.331  18.770  0.00  0.00    +0.000 A 
ATOM     24  C   UNL     1       9.945  11.339  19.663  0.00  0.00    +0.000 A 
ATOM     25  F   UNL     1      10.770  11.663  20.666  0.00  0.00    +0.000 F 
ATOM     26  C   UNL     1       9.514  10.018  19.526  0.00  0.00    +0.000 A 
ENDBRANCH  18  20
ENDBRANCH  14  15
ENDBRANCH   4  14
TORSDOF 5
ENDMDL
MODEL 9
REMARK VINA RESULT:      -8.3      5.000      7.187
REMARK  Name = 
REMARK  6 active torsions:
REMARK  status: ('A' for Active; 'I' for Inactive)
REMARK    1  A    between atoms: C_1  and  C_2
REMARK    2  A    between atoms: C_7  and  C_8
REMARK    3  A    between atoms: C_8  and  C_9
REMARK    4  A    between atoms: N_12  and  C_13
REMARK    5  A    between atoms: C_13  and  C_14
REMARK    6  A    between atoms: C_17  and  C_18
REMARK                            x       y       z     vdW  Elec       q    Type
REMARK                         _______ _______ _______ _____ _____    ______ ____
ROOT
ATOM      1  C   UNL     1       3.067   5.488  17.478  0.00  0.00    +0.000 A 
ATOM      2  N   UNL     1       3.143   6.783  17.923  0.00  0.00    +0.000 NA
ATOM      3  N   UNL     1       4.326   7.245  17.546  0.00  0.00    +0.000 NA
ATOM      4  N   UNL     1       4.898   6.228  16.874  0.00  0.00    +0.000 N 
ATOM      5  N   UNL     1       4.193   5.074  16.868  0.00  0.00    +0.000 NA
ENDROOT
BRANCH   1   6
ATOM      6  C   UNL     1       1.906   4.614  17.779  0.00  0.00    +0.000 C 
BRANCH   6  13
ATOM      7  C   UNL     1       3.194   1.860  18.010  0.00  0.00    +0.000 C 
ATOM      8  C   UNL     1       2.775   2.661  19.214  0.00  0.00    +0.000 A 
ATOM      9  C   UNL     1       2.952   2.090  20.488  0.00  0.00    +0.000 A 
ATOM     10  C   UNL     1       2.556   2.766  21.641  0.00  0.00    +0.000 A 
ATOM     11  C   UNL     1       1.983   4.026  21.541  0.00  0.00    +0.000 A 
ATOM     12  C   UNL     1       1.799   4.608  20.287  0.00  0.00    +0.000 A 
ATOM     13  C   UNL     1       2.181   3.938  19.107  0.00  0.00    +0.000 A 
ENDBRANCH   6  13
ENDBRANCH   1   6
BRANCH   4  14
ATOM     14  C   UNL     1       6.260   6.302  16.403  0.00  0.00    +0.000 C 
BRANCH  14  15
ATOM     15  C   UNL     1       7.124   6.975  17.390  0.00  0.00    +0.000 A 
ATOM     16  N   UNL     1       7.795   6.425  18.380  0.00  0.00    +0.000 NA
ATOM     17  N   UNL     1       8.520   7.431  18.968  0.00  0.00    +0.000 NA
ATOM     18  C   UNL     1       8.254   8.537  18.305  0.00  0.00    +0.000 A 
ATOM     19  O   UNL     1       7.379   8.326  17.265  0.00  0.00    +0.000 OA
BRANCH  18  20
ATOM     20  C   UNL     1       8.768   9.882  18.552  0.00  0.00    +0.000 A 
ATOM     21  C   UNL     1       8.396  10.906  17.659  0.00  0.00    +0.000 A 
ATOM     22  C   UNL     1       8.888  12.208  17.794  0.00  0.00    +0.000 A 
ATOM     23  C   UNL     1       9.762  12.504  18.831  0.00  0.00    +0.000 A 
ATOM     24  C   UNL     1      10.120  11.502  19.730  0.00  0.00    +0.000 A 
ATOM     25  F   UNL     1      10.962  11.797  20.728  0.00  0.00    +0.000 F 
ATOM     26  C   UNL     1       9.633  10.199  19.604  0.00  0.00    +0.000 A 
ENDBRANCH  18  20
ENDBRANCH  14  15
ENDBRANCH   4  14
TORSDOF 5
ENDMDL
