MODEL 1
REMARK VINA RESULT:      -9.0      0.000      0.000
REMARK  Name = 
REMARK  4 active torsions:
REMARK  status: ('A' for Active; 'I' for Inactive)
REMARK    1  A    between atoms: C_2  and  C_12
REMARK    2  A    between atoms: N_3  and  C_4
REMARK    3  A    between atoms: C_4  and  C_5
REMARK    4  A    between atoms: C_19  and  C_20
REMARK                            x       y       z     vdW  Elec       q    Type
REMARK                         _______ _______ _______ _____ _____    ______ ____
ROOT
ATOM      1  C   UNL     1       1.102   8.954  19.656  0.00  0.00    +0.000 A 
ATOM      2  C   UNL     1       1.037   8.158  20.809  0.00  0.00    +0.000 A 
ATOM      3  C   UNL     1       1.720   6.942  20.868  0.00  0.00    +0.000 A 
ATOM      4  C   UNL     1       2.496   6.526  19.779  0.00  0.00    +0.000 A 
ATOM      5  C   UNL     1       2.580   7.323  18.627  0.00  0.00    +0.000 A 
ATOM      6  C   UNL     1       1.873   8.533  18.563  0.00  0.00    +0.000 A 
ATOM      7  C   UNL     1       3.398   6.829  17.469  0.00  0.00    +0.000 C 
ATOM      8  C   UNL     1       4.576   6.024  18.014  0.00  0.00    +0.000 C 
ATOM      9  O   UNL     1       4.114   4.969  18.886  0.00  0.00    +0.000 OA
ATOM     10  C   UNL     1       3.196   5.219  19.849  0.00  0.00    +0.000 C 
ATOM     11  O   UNL     1       2.929   4.401  20.720  0.00  0.00    +0.000 OA
ENDROOT
BRANCH   8  12
ATOM     12  C   UNL     1       5.382   5.401  16.891  0.00  0.00    +0.000 A 
ATOM     13  C   UNL     1       4.873   4.305  16.179  0.00  0.00    +0.000 A 
ATOM     14  C   UNL     1       5.583   3.768  15.102  0.00  0.00    +0.000 A 
ATOM     15  C   UNL     1       6.813   4.308  14.736  0.00  0.00    +0.000 A 
ATOM     16  C   UNL     1       7.350   5.369  15.461  0.00  0.00    +0.000 A 
ATOM     17  C   UNL     1       6.644   5.906  16.536  0.00  0.00    +0.000 A 
ENDBRANCH   8  12
BRANCH   1  19
ATOM     18  O   UNL     1       0.089  10.782  20.725  0.00  0.00    +0.000 OA
ATOM     19  C   UNL     1       0.400  10.262  19.660  0.00  0.00    +0.000 C 
ATOM     20  N   UNL     1       0.115  10.822  18.429  0.00  0.00    +0.000 N 
ATOM     21  H   UNL     1       0.086  10.212  17.622  0.00  0.00    +0.000 HD
BRANCH  20  22
ATOM     22  C   UNL     1      -0.640  12.058  18.364  0.00  0.00    +0.000 C 
BRANCH  22  23
ATOM     23  C   UNL     1      -2.033  11.788  17.853  0.00  0.00    +0.000 A 
ATOM     24  C   UNL     1      -3.141  11.885  18.610  0.00  0.00    +0.000 A 
ATOM     25  C   UNL     1      -4.447  11.668  18.029  0.00  0.00    +0.000 A 
ATOM     26  C   UNL     1      -4.580  11.359  16.732  0.00  0.00    +0.000 A 
ATOM     27  C   UNL     1      -3.368  11.236  15.885  0.00  0.00    +0.000 A 
ATOM     28  O   UNL     1      -3.449  10.944  14.698  0.00  0.00    +0.000 OA
ATOM     29  N   UNL     1      -2.169  11.468  16.516  0.00  0.00    +0.000 N 
ATOM     30  H   UNL     1      -1.342  11.404  15.934  0.00  0.00    +0.000 HD
ENDBRANCH  22  23
ENDBRANCH  20  22
ENDBRANCH   1  19
TORSDOF 4
ENDMDL
MODEL 2
REMARK VINA RESULT:      -8.6      1.155      1.367
REMARK  Name = 
REMARK  4 active torsions:
REMARK  status: ('A' for Active; 'I' for Inactive)
REMARK    1  A    between atoms: C_2  and  C_12
REMARK    2  A    between atoms: N_3  and  C_4
REMARK    3  A    between atoms: C_4  and  C_5
REMARK    4  A    between atoms: C_19  and  C_20
REMARK                            x       y       z     vdW  Elec       q    Type
REMARK                         _______ _______ _______ _____ _____    ______ ____
ROOT
ATOM      1  C   UNL     1       1.082   9.508  19.613  0.00  0.00    +0.000 A 
ATOM      2  C   UNL     1       0.981   8.768  20.800  0.00  0.00    +0.000 A 
ATOM      3  C   UNL     1       1.546   7.496  20.891  0.00  0.00    +0.000 A 
ATOM      4  C   UNL     1       2.239   6.963  19.796  0.00  0.00    +0.000 A 
ATOM      5  C   UNL     1       2.359   7.701  18.609  0.00  0.00    +0.000 A 
ATOM      6  C   UNL     1       1.770   8.971  18.515  0.00  0.00    +0.000 A 
ATOM      7  C   UNL     1       3.084   7.084  17.448  0.00  0.00    +0.000 C 
ATOM      8  C   UNL     1       4.198   6.191  17.991  0.00  0.00    +0.000 C 
ATOM      9  O   UNL     1       3.668   5.221  18.921  0.00  0.00    +0.000 OA
ATOM     10  C   UNL     1       2.812   5.597  19.901  0.00  0.00    +0.000 C 
ATOM     11  O   UNL     1       2.499   4.845  20.814  0.00  0.00    +0.000 OA
ENDROOT
BRANCH   8  12
ATOM     12  C   UNL     1       4.900   5.448  16.871  0.00  0.00    +0.000 A 
ATOM     13  C   UNL     1       5.188   4.082  16.999  0.00  0.00    +0.000 A 
ATOM     14  C   UNL     1       5.778   3.379  15.946  0.00  0.00    +0.000 A 
ATOM     15  C   UNL     1       6.099   4.035  14.760  0.00  0.00    +0.000 A 
ATOM     16  C   UNL     1       5.858   5.401  14.634  0.00  0.00    +0.000 A 
ATOM     17  C   UNL     1       5.271   6.105  15.684  0.00  0.00    +0.000 A 
ENDBRANCH   8  12
BRANCH   1  19
ATOM     18  O   UNL     1       0.695  11.635  20.527  0.00  0.00    +0.000 OA
ATOM     19  C   UNL     1       0.509  10.877  19.583  0.00  0.00    +0.000 C 
ATOM     20  N   UNL     1      -0.236  11.219  18.469  0.00  0.00    +0.000 N 
ATOM     21  H   UNL     1      -0.627  10.472  17.910  0.00  0.00    +0.000 HD
BRANCH  20  22
ATOM     22  C   UNL     1      -0.888  12.512  18.416  0.00  0.00    +0.000 C 
BRANCH  22  23
ATOM     23  C   UNL     1      -2.331  12.383  18.837  0.00  0.00    +0.000 A 
ATOM     24  C   UNL     1      -2.799  12.772  20.037  0.00  0.00    +0.000 A 
ATOM     25  C   UNL     1      -4.208  12.669  20.341  0.00  0.00    +0.000 A 
ATOM     26  C   UNL     1      -5.073  12.179  19.442  0.00  0.00    +0.000 A 
ATOM     27  C   UNL     1      -4.572  11.734  18.118  0.00  0.00    +0.000 A 
ATOM     28  O   UNL     1      -5.330  11.269  17.276  0.00  0.00    +0.000 OA
ATOM     29  N   UNL     1      -3.221  11.875  17.910  0.00  0.00    +0.000 N 
ATOM     30  H   UNL     1      -2.881  11.591  16.999  0.00  0.00    +0.000 HD
ENDBRANCH  22  23
ENDBRANCH  20  22
ENDBRANCH   1  19
TORSDOF 4
ENDMDL
MODEL 3
REMARK VINA RESULT:      -8.6      1.454      1.745
REMARK  Name = 
REMARK  4 active torsions:
REMARK  status: ('A' for Active; 'I' for Inactive)
REMARK    1  A    between atoms: C_2  and  C_12
REMARK    2  A    between atoms: N_3  and  C_4
REMARK    3  A    between atoms: C_4  and  C_5
REMARK    4  A    between atoms: C_19  and  C_20
REMARK                            x       y       z     vdW  Elec       q    Type
REMARK                         _______ _______ _______ _____ _____    ______ ____
ROOT
ATOM      1  C   UNL     1       0.921   9.244  19.728  0.00  0.00    +0.000 A 
ATOM      2  C   UNL     1       0.771   8.429  20.859  0.00  0.00    +0.000 A 
ATOM      3  C   UNL     1       1.452   7.214  20.950  0.00  0.00    +0.000 A 
ATOM      4  C   UNL     1       2.308   6.817  19.915  0.00  0.00    +0.000 A 
ATOM      5  C   UNL     1       2.477   7.633  18.786  0.00  0.00    +0.000 A 
ATOM      6  C   UNL     1       1.773   8.843  18.689  0.00  0.00    +0.000 A 
ATOM      7  C   UNL     1       3.381   7.159  17.685  0.00  0.00    +0.000 C 
ATOM      8  C   UNL     1       4.516   6.348  18.304  0.00  0.00    +0.000 C 
ATOM      9  O   UNL     1       3.994   5.278  19.122  0.00  0.00    +0.000 OA
ATOM     10  C   UNL     1       3.005   5.510  20.017  0.00  0.00    +0.000 C 
ATOM     11  O   UNL     1       2.676   4.678  20.852  0.00  0.00    +0.000 OA
ENDROOT
BRANCH   8  12
ATOM     12  C   UNL     1       5.406   5.745  17.234  0.00  0.00    +0.000 A 
ATOM     13  C   UNL     1       6.608   5.113  17.587  0.00  0.00    +0.000 A 
ATOM     14  C   UNL     1       7.400   4.501  16.613  0.00  0.00    +0.000 A 
ATOM     15  C   UNL     1       7.009   4.527  15.276  0.00  0.00    +0.000 A 
ATOM     16  C   UNL     1       5.841   5.187  14.906  0.00  0.00    +0.000 A 
ATOM     17  C   UNL     1       5.049   5.800  15.876  0.00  0.00    +0.000 A 
ENDBRANCH   8  12
BRANCH   1  19
ATOM     18  O   UNL     1      -0.247  11.013  20.736  0.00  0.00    +0.000 OA
ATOM     19  C   UNL     1       0.216  10.551  19.700  0.00  0.00    +0.000 C 
ATOM     20  N   UNL     1       0.107  11.176  18.473  0.00  0.00    +0.000 N 
ATOM     21  H   UNL     1       0.198  10.609  17.639  0.00  0.00    +0.000 HD
BRANCH  20  22
ATOM     22  C   UNL     1      -0.639  12.414  18.366  0.00  0.00    +0.000 C 
BRANCH  22  23
ATOM     23  C   UNL     1      -2.112  12.121  18.222  0.00  0.00    +0.000 A 
ATOM     24  C   UNL     1      -2.659  11.545  17.137  0.00  0.00    +0.000 A 
ATOM     25  C   UNL     1      -4.072  11.242  17.101  0.00  0.00    +0.000 A 
ATOM     26  C   UNL     1      -4.865  11.537  18.140  0.00  0.00    +0.000 A 
ATOM     27  C   UNL     1      -4.281  12.185  19.341  0.00  0.00    +0.000 A 
ATOM     28  O   UNL     1      -4.976  12.480  20.305  0.00  0.00    +0.000 OA
ATOM     29  N   UNL     1      -2.929  12.428  19.294  0.00  0.00    +0.000 N 
ATOM     30  H   UNL     1      -2.525  12.851  20.120  0.00  0.00    +0.000 HD
ENDBRANCH  22  23
ENDBRANCH  20  22
ENDBRANCH   1  19
TORSDOF 4
ENDMDL
MODEL 4
REMARK VINA RESULT:      -8.6      1.616      1.789
REMARK  Name = 
REMARK  4 active torsions:
REMARK  status: ('A' for Active; 'I' for Inactive)
REMARK    1  A    between atoms: C_2  and  C_12
REMARK    2  A    between atoms: N_3  and  C_4
REMARK    3  A    between atoms: C_4  and  C_5
REMARK    4  A    between atoms: C_19  and  C_20
REMARK                            x       y       z     vdW  Elec       q    Type
REMARK                         _______ _______ _______ _____ _____    ______ ____
ROOT
ATOM      1  C   UNL     1       0.999   9.492  19.424  0.00  0.00    +0.000 A 
ATOM      2  C   UNL     1       0.813   8.753  20.601  0.00  0.00    +0.000 A 
ATOM      3  C   UNL     1       1.446   7.521  20.769  0.00  0.00    +0.000 A 
ATOM      4  C   UNL     1       2.291   7.030  19.765  0.00  0.00    +0.000 A 
ATOM      5  C   UNL     1       2.495   7.769  18.590  0.00  0.00    +0.000 A 
ATOM      6  C   UNL     1       1.839   8.997  18.416  0.00  0.00    +0.000 A 
ATOM      7  C   UNL     1       3.384   7.196  17.525  0.00  0.00    +0.000 C 
ATOM      8  C   UNL     1       4.485   6.380  18.199  0.00  0.00    +0.000 C 
ATOM      9  O   UNL     1       3.918   5.382  19.076  0.00  0.00    +0.000 OA
ATOM     10  C   UNL     1       2.936   5.705  19.949  0.00  0.00    +0.000 C 
ATOM     11  O   UNL     1       2.571   4.938  20.830  0.00  0.00    +0.000 OA
ENDROOT
BRANCH   8  12
ATOM     12  C   UNL     1       5.356   5.680  17.173  0.00  0.00    +0.000 A 
ATOM     13  C   UNL     1       5.004   5.700  15.815  0.00  0.00    +0.000 A 
ATOM     14  C   UNL     1       5.835   5.112  14.859  0.00  0.00    +0.000 A 
ATOM     15  C   UNL     1       7.016   4.485  15.249  0.00  0.00    +0.000 A 
ATOM     16  C   UNL     1       7.356   4.421  16.597  0.00  0.00    +0.000 A 
ATOM     17  C   UNL     1       6.528   5.006  17.554  0.00  0.00    +0.000 A 
ENDBRANCH   8  12
BRANCH   1  19
ATOM     18  O   UNL     1       1.030  11.822  19.140  0.00  0.00    +0.000 OA
ATOM     19  C   UNL     1       0.346  10.821  19.313  0.00  0.00    +0.000 C 
ATOM     20  N   UNL     1      -1.031  10.853  19.433  0.00  0.00    +0.000 N 
ATOM     21  H   UNL     1      -1.488  10.080  19.900  0.00  0.00    +0.000 HD
BRANCH  20  22
ATOM     22  C   UNL     1      -1.720  12.128  19.414  0.00  0.00    +0.000 C 
BRANCH  22  23
ATOM     23  C   UNL     1      -3.038  11.995  18.691  0.00  0.00    +0.000 A 
ATOM     24  C   UNL     1      -3.182  11.382  17.502  0.00  0.00    +0.000 A 
ATOM     25  C   UNL     1      -4.490  11.243  16.903  0.00  0.00    +0.000 A 
ATOM     26  C   UNL     1      -5.581  11.727  17.513  0.00  0.00    +0.000 A 
ATOM     27  C   UNL     1      -5.439  12.416  18.820  0.00  0.00    +0.000 A 
ATOM     28  O   UNL     1      -6.412  12.882  19.401  0.00  0.00    +0.000 OA
ATOM     29  N   UNL     1      -4.162  12.496  19.320  0.00  0.00    +0.000 N 
ATOM     30  H   UNL     1      -4.066  12.947  20.221  0.00  0.00    +0.000 HD
ENDBRANCH  22  23
ENDBRANCH  20  22
ENDBRANCH   1  19
TORSDOF 4
ENDMDL
MODEL 5
REMARK VINA RESULT:      -8.6      3.505      9.990
REMARK  Name = 
REMARK  4 active torsions:
REMARK  status: ('A' for Active; 'I' for Inactive)
REMARK    1  A    between atoms: C_2  and  C_12
REMARK    2  A    between atoms: N_3  and  C_4
REMARK    3  A    between atoms: C_4  and  C_5
REMARK    4  A    between atoms: C_19  and  C_20
REMARK                            x       y       z     vdW  Elec       q    Type
REMARK                         _______ _______ _______ _____ _____    ______ ____
ROOT
ATOM      1  C   UNL     1       1.640   8.085  19.797  0.00  0.00    +0.000 A 
ATOM      2  C   UNL     1       1.913   8.842  18.648  0.00  0.00    +0.000 A 
ATOM      3  C   UNL     1       1.362  10.115  18.493  0.00  0.00    +0.000 A 
ATOM      4  C   UNL     1       0.551  10.649  19.502  0.00  0.00    +0.000 A 
ATOM      5  C   UNL     1       0.284   9.906  20.662  0.00  0.00    +0.000 A 
ATOM      6  C   UNL     1       0.822   8.617  20.803  0.00  0.00    +0.000 A 
ATOM      7  C   UNL     1      -0.614  10.501  21.707  0.00  0.00    +0.000 C 
ATOM      8  C   UNL     1      -0.414  12.015  21.715  0.00  0.00    +0.000 C 
ATOM      9  O   UNL     1      -0.621  12.565  20.396  0.00  0.00    +0.000 OA
ATOM     10  C   UNL     1      -0.048  11.994  19.310  0.00  0.00    +0.000 C 
ATOM     11  O   UNL     1      -0.045  12.540  18.214  0.00  0.00    +0.000 OA
ENDROOT
BRANCH   8  12
ATOM     12  C   UNL     1      -1.375  12.690  22.674  0.00  0.00    +0.000 A 
ATOM     13  C   UNL     1      -2.594  12.080  23.002  0.00  0.00    +0.000 A 
ATOM     14  C   UNL     1      -3.454  12.666  23.933  0.00  0.00    +0.000 A 
ATOM     15  C   UNL     1      -3.113  13.876  24.534  0.00  0.00    +0.000 A 
ATOM     16  C   UNL     1      -1.926  14.515  24.187  0.00  0.00    +0.000 A 
ATOM     17  C   UNL     1      -1.067  13.932  23.257  0.00  0.00    +0.000 A 
ENDBRANCH   8  12
BRANCH   1  19
ATOM     18  O   UNL     1       1.947   6.007  20.845  0.00  0.00    +0.000 OA
ATOM     19  C   UNL     1       2.290   6.758  19.939  0.00  0.00    +0.000 C 
ATOM     20  N   UNL     1       3.282   6.445  19.028  0.00  0.00    +0.000 N 
ATOM     21  H   UNL     1       3.740   7.206  18.543  0.00  0.00    +0.000 HD
BRANCH  20  22
ATOM     22  C   UNL     1       4.009   5.199  19.163  0.00  0.00    +0.000 C 
BRANCH  22  23
ATOM     23  C   UNL     1       4.995   5.049  18.031  0.00  0.00    +0.000 A 
ATOM     24  C   UNL     1       4.713   5.338  16.748  0.00  0.00    +0.000 A 
ATOM     25  C   UNL     1       5.733   5.224  15.730  0.00  0.00    +0.000 A 
ATOM     26  C   UNL     1       6.973   4.821  16.040  0.00  0.00    +0.000 A 
ATOM     27  C   UNL     1       7.298   4.485  17.449  0.00  0.00    +0.000 A 
ATOM     28  O   UNL     1       8.416   4.102  17.768  0.00  0.00    +0.000 OA
ATOM     29  N   UNL     1       6.272   4.630  18.352  0.00  0.00    +0.000 N 
ATOM     30  H   UNL     1       6.498   4.421  19.317  0.00  0.00    +0.000 HD
ENDBRANCH  22  23
ENDBRANCH  20  22
ENDBRANCH   1  19
TORSDOF 4
ENDMDL
MODEL 6
REMARK VINA RESULT:      -8.5      1.161      1.284
REMARK  Name = 
REMARK  4 active torsions:
REMARK  status: ('A' for Active; 'I' for Inactive)
REMARK    1  A    between atoms: C_2  and  C_12
REMARK    2  A    between atoms: N_3  and  C_4
REMARK    3  A    between atoms: C_4  and  C_5
REMARK    4  A    between atoms: C_19  and  C_20
REMARK                            x       y       z     vdW  Elec       q    Type
REMARK                         _______ _______ _______ _____ _____    ______ ____
ROOT
ATOM      1  C   UNL     1       0.992   9.462  19.493  0.00  0.00    +0.000 A 
ATOM      2  C   UNL     1       0.771   8.759  20.685  0.00  0.00    +0.000 A 
ATOM      3  C   UNL     1       1.361   7.511  20.889  0.00  0.00    +0.000 A 
ATOM      4  C   UNL     1       2.198   6.968  19.906  0.00  0.00    +0.000 A 
ATOM      5  C   UNL     1       2.437   7.671  18.716  0.00  0.00    +0.000 A 
ATOM      6  C   UNL     1       1.824   8.915  18.505  0.00  0.00    +0.000 A 
ATOM      7  C   UNL     1       3.317   7.043  17.674  0.00  0.00    +0.000 C 
ATOM      8  C   UNL     1       4.384   6.208  18.378  0.00  0.00    +0.000 C 
ATOM      9  O   UNL     1       3.776   5.251  19.273  0.00  0.00    +0.000 OA
ATOM     10  C   UNL     1       2.797   5.628  20.129  0.00  0.00    +0.000 C 
ATOM     11  O   UNL     1       2.399   4.895  21.025  0.00  0.00    +0.000 OA
ENDROOT
BRANCH   8  12
ATOM     12  C   UNL     1       5.240   5.455  17.378  0.00  0.00    +0.000 A 
ATOM     13  C   UNL     1       4.648   4.820  16.276  0.00  0.00    +0.000 A 
ATOM     14  C   UNL     1       5.437   4.180  15.318  0.00  0.00    +0.000 A 
ATOM     15  C   UNL     1       6.823   4.152  15.458  0.00  0.00    +0.000 A 
ATOM     16  C   UNL     1       7.421   4.740  16.569  0.00  0.00    +0.000 A 
ATOM     17  C   UNL     1       6.635   5.379  17.527  0.00  0.00    +0.000 A 
ENDBRANCH   8  12
BRANCH   1  19
ATOM     18  O   UNL     1       0.939  11.653  18.650  0.00  0.00    +0.000 OA
ATOM     19  C   UNL     1       0.383  10.809  19.343  0.00  0.00    +0.000 C 
ATOM     20  N   UNL     1      -0.795  11.042  20.026  0.00  0.00    +0.000 N 
ATOM     21  H   UNL     1      -1.011  10.453  20.820  0.00  0.00    +0.000 HD
BRANCH  20  22
ATOM     22  C   UNL     1      -1.396  12.361  19.985  0.00  0.00    +0.000 C 
BRANCH  22  23
ATOM     23  C   UNL     1      -2.809  12.271  19.465  0.00  0.00    +0.000 A 
ATOM     24  C   UNL     1      -3.891  12.656  20.165  0.00  0.00    +0.000 A 
ATOM     25  C   UNL     1      -5.208  12.593  19.571  0.00  0.00    +0.000 A 
ATOM     26  C   UNL     1      -5.378  12.144  18.320  0.00  0.00    +0.000 A 
ATOM     27  C   UNL     1      -4.197  11.704  17.538  0.00  0.00    +0.000 A 
ATOM     28  O   UNL     1      -4.315  11.276  16.396  0.00  0.00    +0.000 OA
ATOM     29  N   UNL     1      -2.984  11.805  18.175  0.00  0.00    +0.000 N 
ATOM     30  H   UNL     1      -2.174  11.525  17.635  0.00  0.00    +0.000 HD
ENDBRANCH  22  23
ENDBRANCH  20  22
ENDBRANCH   1  19
TORSDOF 4
ENDMDL
MODEL 7
REMARK VINA RESULT:      -8.5      3.484     10.008
REMARK  Name = 
REMARK  4 active torsions:
REMARK  status: ('A' for Active; 'I' for Inactive)
REMARK    1  A    between atoms: C_2  and  C_12
REMARK    2  A    between atoms: N_3  and  C_4
REMARK    3  A    between atoms: C_4  and  C_5
REMARK    4  A    between atoms: C_19  and  C_20
REMARK                            x       y       z     vdW  Elec       q    Type
REMARK                         _______ _______ _______ _____ _____    ______ ____
ROOT
ATOM      1  C   UNL     1       1.657   8.678  19.204  0.00  0.00    +0.000 A 
ATOM      2  C   UNL     1       1.915   9.575  18.157  0.00  0.00    +0.000 A 
ATOM      3  C   UNL     1       1.337  10.845  18.157  0.00  0.00    +0.000 A 
ATOM      4  C   UNL     1       0.513  11.235  19.220  0.00  0.00    +0.000 A 
ATOM      5  C   UNL     1       0.262  10.351  20.280  0.00  0.00    +0.000 A 
ATOM      6  C   UNL     1       0.827   9.066  20.265  0.00  0.00    +0.000 A 
ATOM      7  C   UNL     1      -0.650  10.794  21.387  0.00  0.00    +0.000 C 
ATOM      8  C   UNL     1      -0.482  12.300  21.580  0.00  0.00    +0.000 C 
ATOM      9  O   UNL     1      -0.700  13.002  20.336  0.00  0.00    +0.000 OA
ATOM     10  C   UNL     1      -0.114  12.581  19.191  0.00  0.00    +0.000 C 
ATOM     11  O   UNL     1      -0.122  13.256  18.170  0.00  0.00    +0.000 OA
ENDROOT
BRANCH   8  12
ATOM     12  C   UNL     1      -1.458  12.833  22.610  0.00  0.00    +0.000 A 
ATOM     13  C   UNL     1      -2.632  12.126  22.905  0.00  0.00    +0.000 A 
ATOM     14  C   UNL     1      -3.503  12.579  23.899  0.00  0.00    +0.000 A 
ATOM     15  C   UNL     1      -3.219  13.751  24.597  0.00  0.00    +0.000 A 
ATOM     16  C   UNL     1      -2.079  14.486  24.285  0.00  0.00    +0.000 A 
ATOM     17  C   UNL     1      -1.209  14.036  23.293  0.00  0.00    +0.000 A 
ENDBRANCH   8  12
BRANCH   1  19
ATOM     18  O   UNL     1       2.344   6.665  20.197  0.00  0.00    +0.000 OA
ATOM     19  C   UNL     1       2.335   7.357  19.185  0.00  0.00    +0.000 C 
ATOM     20  N   UNL     1       2.947   6.984  18.003  0.00  0.00    +0.000 N 
ATOM     21  H   UNL     1       3.194   7.711  17.344  0.00  0.00    +0.000 HD
BRANCH  20  22
ATOM     22  C   UNL     1       3.693   5.742  17.946  0.00  0.00    +0.000 C 
BRANCH  22  23
ATOM     23  C   UNL     1       5.172   6.022  18.053  0.00  0.00    +0.000 A 
ATOM     24  C   UNL     1       5.855   6.787  17.183  0.00  0.00    +0.000 A 
ATOM     25  C   UNL     1       7.260   7.056  17.389  0.00  0.00    +0.000 A 
ATOM     26  C   UNL     1       7.912   6.541  18.441  0.00  0.00    +0.000 A 
ATOM     27  C   UNL     1       7.177   5.684  19.404  0.00  0.00    +0.000 A 
ATOM     28  O   UNL     1       7.741   5.187  20.371  0.00  0.00    +0.000 OA
ATOM     29  N   UNL     1       5.843   5.489  19.137  0.00  0.00    +0.000 N 
ATOM     30  H   UNL     1       5.336   4.921  19.805  0.00  0.00    +0.000 HD
ENDBRANCH  22  23
ENDBRANCH  20  22
ENDBRANCH   1  19
TORSDOF 4
ENDMDL
MODEL 8
REMARK VINA RESULT:      -8.5      1.938      2.914
REMARK  Name = 
REMARK  4 active torsions:
REMARK  status: ('A' for Active; 'I' for Inactive)
REMARK    1  A    between atoms: C_2  and  C_12
REMARK    2  A    between atoms: N_3  and  C_4
REMARK    3  A    between atoms: C_4  and  C_5
REMARK    4  A    between atoms: C_19  and  C_20
REMARK                            x       y       z     vdW  Elec       q    Type
REMARK                         _______ _______ _______ _____ _____    ______ ____
ROOT
ATOM      1  C   UNL     1       2.356   6.811  19.468  0.00  0.00    +0.000 A 
ATOM      2  C   UNL     1       2.312   5.602  20.175  0.00  0.00    +0.000 A 
ATOM      3  C   UNL     1       2.870   4.444  19.631  0.00  0.00    +0.000 A 
ATOM      4  C   UNL     1       3.499   4.496  18.380  0.00  0.00    +0.000 A 
ATOM      5  C   UNL     1       3.561   5.705  17.671  0.00  0.00    +0.000 A 
ATOM      6  C   UNL     1       2.978   6.861  18.212  0.00  0.00    +0.000 A 
ATOM      7  C   UNL     1       4.216   5.714  16.321  0.00  0.00    +0.000 C 
ATOM      8  C   UNL     1       5.350   4.690  16.324  0.00  0.00    +0.000 C 
ATOM      9  O   UNL     1       4.862   3.389  16.720  0.00  0.00    +0.000 OA
ATOM     10  C   UNL     1       4.064   3.250  17.805  0.00  0.00    +0.000 C 
ATOM     11  O   UNL     1       3.794   2.153  18.276  0.00  0.00    +0.000 OA
ENDROOT
BRANCH   8  12
ATOM     12  C   UNL     1       5.984   4.569  14.952  0.00  0.00    +0.000 A 
ATOM     13  C   UNL     1       7.157   5.276  14.650  0.00  0.00    +0.000 A 
ATOM     14  C   UNL     1       7.780   5.119  13.410  0.00  0.00    +0.000 A 
ATOM     15  C   UNL     1       7.231   4.268  12.454  0.00  0.00    +0.000 A 
ATOM     16  C   UNL     1       6.044   3.592  12.725  0.00  0.00    +0.000 A 
ATOM     17  C   UNL     1       5.420   3.748  13.961  0.00  0.00    +0.000 A 
ENDBRANCH   8  12
BRANCH   1  19
ATOM     18  O   UNL     1       1.641   8.055  21.325  0.00  0.00    +0.000 OA
ATOM     19  C   UNL     1       1.794   8.026  20.110  0.00  0.00    +0.000 C 
ATOM     20  N   UNL     1       1.452   9.074  19.275  0.00  0.00    +0.000 N 
ATOM     21  H   UNL     1       1.284   8.870  18.298  0.00  0.00    +0.000 HD
BRANCH  20  22
ATOM     22  C   UNL     1       0.824  10.255  19.833  0.00  0.00    +0.000 C 
BRANCH  22  23
ATOM     23  C   UNL     1      -0.446  10.571  19.082  0.00  0.00    +0.000 A 
ATOM     24  C   UNL     1      -0.770  10.028  17.895  0.00  0.00    +0.000 A 
ATOM     25  C   UNL     1      -2.035  10.337  17.269  0.00  0.00    +0.000 A 
ATOM     26  C   UNL     1      -2.904  11.175  17.851  0.00  0.00    +0.000 A 
ATOM     27  C   UNL     1      -2.558  11.793  19.154  0.00  0.00    +0.000 A 
ATOM     28  O   UNL     1      -3.322  12.573  19.710  0.00  0.00    +0.000 OA
ATOM     29  N   UNL     1      -1.340  11.437  19.682  0.00  0.00    +0.000 N 
ATOM     30  H   UNL     1      -1.111  11.842  20.582  0.00  0.00    +0.000 HD
ENDBRANCH  22  23
ENDBRANCH  20  22
ENDBRANCH   1  19
TORSDOF 4
ENDMDL
MODEL 9
REMARK VINA RESULT:      -8.5      1.484      2.001
REMARK  Name = 
REMARK  4 active torsions:
REMARK  status: ('A' for Active; 'I' for Inactive)
REMARK    1  A    between atoms: C_2  and  C_12
REMARK    2  A    between atoms: N_3  and  C_4
REMARK    3  A    between atoms: C_4  and  C_5
REMARK    4  A    between atoms: C_19  and  C_20
REMARK                            x       y       z     vdW  Elec       q    Type
REMARK                         _______ _______ _______ _____ _____    ______ ____
ROOT
ATOM      1  C   UNL     1       1.913   7.162  20.094  0.00  0.00    +0.000 A 
ATOM      2  C   UNL     1       1.759   5.970  20.816  0.00  0.00    +0.000 A 
ATOM      3  C   UNL     1       2.293   4.776  20.331  0.00  0.00    +0.000 A 
ATOM      4  C   UNL     1       3.009   4.771  19.127  0.00  0.00    +0.000 A 
ATOM      5  C   UNL     1       3.181   5.962  18.404  0.00  0.00    +0.000 A 
ATOM      6  C   UNL     1       2.623   7.156  18.884  0.00  0.00    +0.000 A 
ATOM      7  C   UNL     1       3.928   5.911  17.103  0.00  0.00    +0.000 C 
ATOM      8  C   UNL     1       5.005   4.833  17.203  0.00  0.00    +0.000 C 
ATOM      9  O   UNL     1       4.426   3.566  17.585  0.00  0.00    +0.000 OA
ATOM     10  C   UNL     1       3.549   3.488  18.613  0.00  0.00    +0.000 C 
ATOM     11  O   UNL     1       3.191   2.415  19.082  0.00  0.00    +0.000 OA
ENDROOT
BRANCH   8  12
ATOM     12  C   UNL     1       5.725   4.653  15.880  0.00  0.00    +0.000 A 
ATOM     13  C   UNL     1       5.122   3.934  14.838  0.00  0.00    +0.000 A 
ATOM     14  C   UNL     1       5.753   3.820  13.597  0.00  0.00    +0.000 A 
ATOM     15  C   UNL     1       6.999   4.407  13.389  0.00  0.00    +0.000 A 
ATOM     16  C   UNL     1       7.629   5.086  14.429  0.00  0.00    +0.000 A 
ATOM     17  C   UNL     1       7.002   5.201  15.668  0.00  0.00    +0.000 A 
ENDBRANCH   8  12
BRANCH   1  19
ATOM     18  O   UNL     1       1.141   8.478  21.877  0.00  0.00    +0.000 OA
ATOM     19  C   UNL     1       1.371   8.416  20.675  0.00  0.00    +0.000 C 
ATOM     20  N   UNL     1       1.136   9.460  19.801  0.00  0.00    +0.000 N 
ATOM     21  H   UNL     1       1.022   9.244  18.819  0.00  0.00    +0.000 HD
BRANCH  20  22
ATOM     22  C   UNL     1       0.533  10.683  20.294  0.00  0.00    +0.000 C 
BRANCH  22  23
ATOM     23  C   UNL     1      -0.762  10.952  19.567  0.00  0.00    +0.000 A 
ATOM     24  C   UNL     1      -1.683  11.840  19.981  0.00  0.00    +0.000 A 
ATOM     25  C   UNL     1      -2.871  12.084  19.194  0.00  0.00    +0.000 A 
ATOM     26  C   UNL     1      -3.083  11.426  18.046  0.00  0.00    +0.000 A 
ATOM     27  C   UNL     1      -2.083  10.433  17.581  0.00  0.00    +0.000 A 
ATOM     28  O   UNL     1      -2.248   9.804  16.543  0.00  0.00    +0.000 OA
ATOM     29  N   UNL     1      -0.980  10.271  18.384  0.00  0.00    +0.000 N 
ATOM     30  H   UNL     1      -0.287   9.609  18.057  0.00  0.00    +0.000 HD
ENDBRANCH  22  23
ENDBRANCH  20  22
ENDBRANCH   1  19
TORSDOF 4
ENDMDL
