MODEL 1
REMARK VINA RESULT:      -8.2      0.000      0.000
REMARK  Name = 
REMARK  4 active torsions:
REMARK  status: ('A' for Active; 'I' for Inactive)
REMARK    1  A    between atoms: C_1  and  C_2
REMARK    2  A    between atoms: C_6  and  C_7
REMARK    3  A    between atoms: N_9  and  C_10
REMARK    4  A    between atoms: N_20  and  C_21
REMARK                            x       y       z     vdW  Elec       q    Type
REMARK                         _______ _______ _______ _____ _____    ______ ____
ROOT
ATOM      1  C   UNL     1       4.448   3.162  19.227  0.00  0.00    +0.000 C 
ATOM      2  C   UNL     1       3.751   4.493  19.066  0.00  0.00    +0.000 A 
ATOM      3  C   UNL     1       2.865   4.809  20.023  0.00  0.00    +0.000 A 
ATOM      4  C   UNL     1       2.255   6.136  19.973  0.00  0.00    +0.000 A 
ATOM      5  O   UNL     1       1.502   6.531  20.853  0.00  0.00    +0.000 OA
ATOM      6  C   UNL     1       2.603   7.023  18.811  0.00  0.00    +0.000 A 
ATOM      7  N   UNL     1       3.470   6.627  17.918  0.00  0.00    +0.000 NA
ATOM      8  N   UNL     1       4.072   5.389  18.025  0.00  0.00    +0.000 N 
ENDROOT
BRANCH   8   9
ATOM      9  C   UNL     1       5.051   5.159  16.991  0.00  0.00    +0.000 A 
ATOM     10  C   UNL     1       4.761   4.416  15.833  0.00  0.00    +0.000 A 
ATOM     11  C   UNL     1       5.738   4.123  14.871  0.00  0.00    +0.000 A 
ATOM     12  C   UNL     1       7.024   4.631  15.002  0.00  0.00    +0.000 A 
ATOM     13  C   UNL     1       7.325   5.440  16.093  0.00  0.00    +0.000 A 
ATOM     14  C   UNL     1       6.357   5.692  17.072  0.00  0.00    +0.000 A 
ATOM     15  F   UNL     1       6.742   6.431  18.125  0.00  0.00    +0.000 F 
ENDBRANCH   8   9
BRANCH   6  16
ATOM     16  C   UNL     1       1.974   8.409  18.616  0.00  0.00    +0.000 C 
ATOM     17  O   UNL     1       2.167   8.986  17.553  0.00  0.00    +0.000 OA
ATOM     18  N   UNL     1       1.248   8.902  19.693  0.00  0.00    +0.000 N 
ATOM     19  H   UNL     1       1.246   8.339  20.548  0.00  0.00    +0.000 HD
BRANCH  18  20
ATOM     20  C   UNL     1       0.589  10.147  19.760  0.00  0.00    +0.000 A 
ATOM     21  C   UNL     1      -0.470  10.507  18.904  0.00  0.00    +0.000 A 
ATOM     22  C   UNL     1      -1.062  11.773  18.967  0.00  0.00    +0.000 A 
ATOM     23  C   UNL     1      -0.572  12.664  19.890  0.00  0.00    +0.000 A 
ATOM     24  C   UNL     1       0.444  12.320  20.749  0.00  0.00    +0.000 A 
ATOM     25  C   UNL     1       1.026  11.065  20.730  0.00  0.00    +0.000 A 
ATOM     26  O   UNL     1       0.786  13.343  21.578  0.00  0.00    +0.000 OA
ATOM     27  C   UNL     1      -0.074  14.392  21.083  0.00  0.00    +0.000 C 
ATOM     28  O   UNL     1      -0.994  13.943  20.066  0.00  0.00    +0.000 OA
ENDBRANCH  18  20
ENDBRANCH   6  16
TORSDOF 3
ENDMDL
MODEL 2
REMARK VINA RESULT:      -8.1      5.127      7.087
REMARK  Name = 
REMARK  4 active torsions:
REMARK  status: ('A' for Active; 'I' for Inactive)
REMARK    1  A    between atoms: C_1  and  C_2
REMARK    2  A    between atoms: C_6  and  C_7
REMARK    3  A    between atoms: N_9  and  C_10
REMARK    4  A    between atoms: N_20  and  C_21
REMARK                            x       y       z     vdW  Elec       q    Type
REMARK                         _______ _______ _______ _____ _____    ______ ____
ROOT
ATOM      1  C   UNL     1       3.787   3.232  16.373  0.00  0.00    +0.000 C 
ATOM      2  C   UNL     1       4.835   4.208  16.855  0.00  0.00    +0.000 A 
ATOM      3  C   UNL     1       5.778   4.542  15.960  0.00  0.00    +0.000 A 
ATOM      4  C   UNL     1       6.742   5.572  16.341  0.00  0.00    +0.000 A 
ATOM      5  O   UNL     1       7.580   5.991  15.554  0.00  0.00    +0.000 OA
ATOM      6  C   UNL     1       6.658   6.128  17.735  0.00  0.00    +0.000 A 
ATOM      7  N   UNL     1       5.711   5.734  18.544  0.00  0.00    +0.000 NA
ATOM      8  N   UNL     1       4.780   4.800  18.133  0.00  0.00    +0.000 N 
ENDROOT
BRANCH   8   9
ATOM      9  C   UNL     1       3.773   4.548  19.133  0.00  0.00    +0.000 A 
ATOM     10  C   UNL     1       2.795   5.501  19.472  0.00  0.00    +0.000 A 
ATOM     11  C   UNL     1       1.870   5.286  20.503  0.00  0.00    +0.000 A 
ATOM     12  C   UNL     1       1.847   4.074  21.182  0.00  0.00    +0.000 A 
ATOM     13  C   UNL     1       2.745   3.076  20.817  0.00  0.00    +0.000 A 
ATOM     14  C   UNL     1       3.694   3.314  19.817  0.00  0.00    +0.000 A 
ATOM     15  F   UNL     1       4.566   2.324  19.565  0.00  0.00    +0.000 F 
ENDBRANCH   8   9
BRANCH   6  16
ATOM     16  C   UNL     1       7.656   7.163  18.270  0.00  0.00    +0.000 C 
ATOM     17  O   UNL     1       8.501   6.788  19.073  0.00  0.00    +0.000 OA
ATOM     18  N   UNL     1       7.492   8.461  17.803  0.00  0.00    +0.000 N 
ATOM     19  H   UNL     1       6.685   8.638  17.199  0.00  0.00    +0.000 HD
BRANCH  18  20
ATOM     20  C   UNL     1       8.272   9.582  18.153  0.00  0.00    +0.000 A 
ATOM     21  C   UNL     1       9.202   9.575  19.211  0.00  0.00    +0.000 A 
ATOM     22  C   UNL     1       9.918  10.725  19.562  0.00  0.00    +0.000 A 
ATOM     23  C   UNL     1       9.679  11.872  18.844  0.00  0.00    +0.000 A 
ATOM     24  C   UNL     1       8.793  11.889  17.794  0.00  0.00    +0.000 A 
ATOM     25  C   UNL     1       8.096  10.759  17.405  0.00  0.00    +0.000 A 
ATOM     26  O   UNL     1       8.698  13.119  17.221  0.00  0.00    +0.000 OA
ATOM     27  C   UNL     1       9.561  13.889  18.085  0.00  0.00    +0.000 C 
ATOM     28  O   UNL     1      10.248  13.085  19.067  0.00  0.00    +0.000 OA
ENDBRANCH  18  20
ENDBRANCH   6  16
TORSDOF 3
ENDMDL
MODEL 3
REMARK VINA RESULT:      -8.1      1.544      1.901
REMARK  Name = 
REMARK  4 active torsions:
REMARK  status: ('A' for Active; 'I' for Inactive)
REMARK    1  A    between atoms: C_1  and  C_2
REMARK    2  A    between atoms: C_6  and  C_7
REMARK    3  A    between atoms: N_9  and  C_10
REMARK    4  A    between atoms: N_20  and  C_21
REMARK                            x       y       z     vdW  Elec       q    Type
REMARK                         _______ _______ _______ _____ _____    ______ ____
ROOT
ATOM      1  C   UNL     1       3.857   1.957  18.326  0.00  0.00    +0.000 C 
ATOM      2  C   UNL     1       3.312   3.329  18.650  0.00  0.00    +0.000 A 
ATOM      3  C   UNL     1       2.296   3.362  19.526  0.00  0.00    +0.000 A 
ATOM      4  C   UNL     1       1.816   4.672  19.960  0.00  0.00    +0.000 A 
ATOM      5  O   UNL     1       0.951   4.788  20.818  0.00  0.00    +0.000 OA
ATOM      6  C   UNL     1       2.440   5.888  19.336  0.00  0.00    +0.000 A 
ATOM      7  N   UNL     1       3.418   5.760  18.480  0.00  0.00    +0.000 NA
ATOM      8  N   UNL     1       3.888   4.508  18.134  0.00  0.00    +0.000 N 
ENDROOT
BRANCH   8   9
ATOM      9  C   UNL     1       5.015   4.569  17.238  0.00  0.00    +0.000 A 
ATOM     10  C   UNL     1       4.870   4.492  15.841  0.00  0.00    +0.000 A 
ATOM     11  C   UNL     1       5.974   4.467  14.976  0.00  0.00    +0.000 A 
ATOM     12  C   UNL     1       7.261   4.593  15.481  0.00  0.00    +0.000 A 
ATOM     13  C   UNL     1       7.439   4.755  16.851  0.00  0.00    +0.000 A 
ATOM     14  C   UNL     1       6.336   4.736  17.712  0.00  0.00    +0.000 A 
ATOM     15  F   UNL     1       6.594   4.836  19.026  0.00  0.00    +0.000 F 
ENDBRANCH   8   9
BRANCH   6  16
ATOM     16  C   UNL     1       1.973   7.313  19.662  0.00  0.00    +0.000 C 
ATOM     17  O   UNL     1       2.223   8.201  18.856  0.00  0.00    +0.000 OA
ATOM     18  N   UNL     1       1.314   7.472  20.875  0.00  0.00    +0.000 N 
ATOM     19  H   UNL     1       1.254   6.650  21.481  0.00  0.00    +0.000 HD
BRANCH  18  20
ATOM     20  C   UNL     1       0.803   8.677  21.399  0.00  0.00    +0.000 A 
ATOM     21  C   UNL     1       0.036   8.742  22.579  0.00  0.00    +0.000 A 
ATOM     22  C   UNL     1      -0.498   9.951  23.037  0.00  0.00    +0.000 A 
ATOM     23  C   UNL     1      -0.259  11.080  22.293  0.00  0.00    +0.000 A 
ATOM     24  C   UNL     1       0.507  11.038  21.153  0.00  0.00    +0.000 A 
ATOM     25  C   UNL     1       1.074   9.863  20.694  0.00  0.00    +0.000 A 
ATOM     26  O   UNL     1       0.617  12.259  20.562  0.00  0.00    +0.000 OA
ATOM     27  C   UNL     1      -0.235  13.051  21.414  0.00  0.00    +0.000 C 
ATOM     28  O   UNL     1      -0.729  12.326  22.560  0.00  0.00    +0.000 OA
ENDBRANCH  18  20
ENDBRANCH   6  16
TORSDOF 3
ENDMDL
MODEL 4
REMARK VINA RESULT:      -8.1      0.956      1.180
REMARK  Name = 
REMARK  4 active torsions:
REMARK  status: ('A' for Active; 'I' for Inactive)
REMARK    1  A    between atoms: C_1  and  C_2
REMARK    2  A    between atoms: C_6  and  C_7
REMARK    3  A    between atoms: N_9  and  C_10
REMARK    4  A    between atoms: N_20  and  C_21
REMARK                            x       y       z     vdW  Elec       q    Type
REMARK                         _______ _______ _______ _____ _____    ______ ____
ROOT
ATOM      1  C   UNL     1       4.196   3.196  19.738  0.00  0.00    +0.000 C 
ATOM      2  C   UNL     1       3.557   4.530  19.430  0.00  0.00    +0.000 A 
ATOM      3  C   UNL     1       2.624   4.947  20.302  0.00  0.00    +0.000 A 
ATOM      4  C   UNL     1       2.065   6.283  20.111  0.00  0.00    +0.000 A 
ATOM      5  O   UNL     1       1.273   6.769  20.908  0.00  0.00    +0.000 OA
ATOM      6  C   UNL     1       2.514   7.065  18.909  0.00  0.00    +0.000 A 
ATOM      7  N   UNL     1       3.420   6.574  18.105  0.00  0.00    +0.000 NA
ATOM      8  N   UNL     1       3.971   5.330  18.346  0.00  0.00    +0.000 N 
ENDROOT
BRANCH   8   9
ATOM      9  C   UNL     1       5.003   4.991  17.398  0.00  0.00    +0.000 A 
ATOM     10  C   UNL     1       4.711   4.548  16.095  0.00  0.00    +0.000 A 
ATOM     11  C   UNL     1       5.713   4.139  15.205  0.00  0.00    +0.000 A 
ATOM     12  C   UNL     1       7.051   4.230  15.566  0.00  0.00    +0.000 A 
ATOM     13  C   UNL     1       7.382   4.742  16.816  0.00  0.00    +0.000 A 
ATOM     14  C   UNL     1       6.374   5.108  17.717  0.00  0.00    +0.000 A 
ATOM     15  F   UNL     1       6.772   5.535  18.926  0.00  0.00    +0.000 F 
ENDBRANCH   8   9
BRANCH   6  16
ATOM     16  C   UNL     1       1.947   8.449  18.567  0.00  0.00    +0.000 C 
ATOM     17  O   UNL     1       2.058   8.850  17.416  0.00  0.00    +0.000 OA
ATOM     18  N   UNL     1       1.367   9.143  19.622  0.00  0.00    +0.000 N 
ATOM     19  H   UNL     1       1.424   8.712  20.549  0.00  0.00    +0.000 HD
BRANCH  18  20
ATOM     20  C   UNL     1       0.790  10.428  19.563  0.00  0.00    +0.000 A 
ATOM     21  C   UNL     1       1.439  11.540  18.993  0.00  0.00    +0.000 A 
ATOM     22  C   UNL     1       0.854  12.811  19.001  0.00  0.00    +0.000 A 
ATOM     23  C   UNL     1      -0.377  12.946  19.594  0.00  0.00    +0.000 A 
ATOM     24  C   UNL     1      -1.035  11.866  20.134  0.00  0.00    +0.000 A 
ATOM     25  C   UNL     1      -0.494  10.593  20.111  0.00  0.00    +0.000 A 
ATOM     26  O   UNL     1      -2.234  12.212  20.676  0.00  0.00    +0.000 OA
ATOM     27  C   UNL     1      -2.214  13.643  20.489  0.00  0.00    +0.000 C 
ATOM     28  O   UNL     1      -1.074  14.103  19.731  0.00  0.00    +0.000 OA
ENDBRANCH  18  20
ENDBRANCH   6  16
TORSDOF 3
ENDMDL
MODEL 5
REMARK VINA RESULT:      -8.0      1.091      1.423
REMARK  Name = 
REMARK  4 active torsions:
REMARK  status: ('A' for Active; 'I' for Inactive)
REMARK    1  A    between atoms: C_1  and  C_2
REMARK    2  A    between atoms: C_6  and  C_7
REMARK    3  A    between atoms: N_9  and  C_10
REMARK    4  A    between atoms: N_20  and  C_21
REMARK                            x       y       z     vdW  Elec       q    Type
REMARK                         _______ _______ _______ _____ _____    ______ ____
ROOT
ATOM      1  C   UNL     1       4.187   3.453  19.704  0.00  0.00    +0.000 C 
ATOM      2  C   UNL     1       3.539   4.783  19.397  0.00  0.00    +0.000 A 
ATOM      3  C   UNL     1       2.607   5.194  20.271  0.00  0.00    +0.000 A 
ATOM      4  C   UNL     1       2.039   6.527  20.081  0.00  0.00    +0.000 A 
ATOM      5  O   UNL     1       1.247   7.008  20.880  0.00  0.00    +0.000 OA
ATOM      6  C   UNL     1       2.480   7.310  18.877  0.00  0.00    +0.000 A 
ATOM      7  N   UNL     1       3.386   6.824  18.071  0.00  0.00    +0.000 NA
ATOM      8  N   UNL     1       3.945   5.584  18.311  0.00  0.00    +0.000 N 
ENDROOT
BRANCH   8   9
ATOM      9  C   UNL     1       4.976   5.251  17.360  0.00  0.00    +0.000 A 
ATOM     10  C   UNL     1       6.240   5.869  17.374  0.00  0.00    +0.000 A 
ATOM     11  C   UNL     1       7.210   5.604  16.398  0.00  0.00    +0.000 A 
ATOM     12  C   UNL     1       6.973   4.653  15.414  0.00  0.00    +0.000 A 
ATOM     13  C   UNL     1       5.766   3.960  15.419  0.00  0.00    +0.000 A 
ATOM     14  C   UNL     1       4.785   4.261  16.370  0.00  0.00    +0.000 A 
ATOM     15  F   UNL     1       3.624   3.594  16.271  0.00  0.00    +0.000 F 
ENDBRANCH   8   9
BRANCH   6  16
ATOM     16  C   UNL     1       1.903   8.691  18.536  0.00  0.00    +0.000 C 
ATOM     17  O   UNL     1       2.136   9.156  17.428  0.00  0.00    +0.000 OA
ATOM     18  N   UNL     1       1.173   9.308  19.544  0.00  0.00    +0.000 N 
ATOM     19  H   UNL     1       1.135   8.830  20.449  0.00  0.00    +0.000 HD
BRANCH  18  20
ATOM     20  C   UNL     1       0.556  10.574  19.477  0.00  0.00    +0.000 A 
ATOM     21  C   UNL     1      -0.671  10.801  18.824  0.00  0.00    +0.000 A 
ATOM     22  C   UNL     1      -1.224  12.084  18.734  0.00  0.00    +0.000 A 
ATOM     23  C   UNL     1      -0.526  13.124  19.298  0.00  0.00    +0.000 A 
ATOM     24  C   UNL     1       0.660  12.915  19.961  0.00  0.00    +0.000 A 
ATOM     25  C   UNL     1       1.214  11.654  20.092  0.00  0.00    +0.000 A 
ATOM     26  O   UNL     1       1.192  14.072  20.439  0.00  0.00    +0.000 OA
ATOM     27  C   UNL     1       0.248  15.037  19.929  0.00  0.00    +0.000 C 
ATOM     28  O   UNL     1      -0.887  14.433  19.273  0.00  0.00    +0.000 OA
ENDBRANCH  18  20
ENDBRANCH   6  16
TORSDOF 3
ENDMDL
MODEL 6
REMARK VINA RESULT:      -8.0      1.477      1.826
REMARK  Name = 
REMARK  4 active torsions:
REMARK  status: ('A' for Active; 'I' for Inactive)
REMARK    1  A    between atoms: C_1  and  C_2
REMARK    2  A    between atoms: C_6  and  C_7
REMARK    3  A    between atoms: N_9  and  C_10
REMARK    4  A    between atoms: N_20  and  C_21
REMARK                            x       y       z     vdW  Elec       q    Type
REMARK                         _______ _______ _______ _____ _____    ______ ____
ROOT
ATOM      1  C   UNL     1       3.621   2.052  17.954  0.00  0.00    +0.000 C 
ATOM      2  C   UNL     1       3.167   3.446  18.318  0.00  0.00    +0.000 A 
ATOM      3  C   UNL     1       2.172   3.522  19.216  0.00  0.00    +0.000 A 
ATOM      4  C   UNL     1       1.781   4.849  19.686  0.00  0.00    +0.000 A 
ATOM      5  O   UNL     1       0.941   4.998  20.564  0.00  0.00    +0.000 OA
ATOM      6  C   UNL     1       2.465   6.038  19.074  0.00  0.00    +0.000 A 
ATOM      7  N   UNL     1       3.417   5.870  18.196  0.00  0.00    +0.000 NA
ATOM      8  N   UNL     1       3.802   4.599  17.814  0.00  0.00    +0.000 N 
ENDROOT
BRANCH   8   9
ATOM      9  C   UNL     1       4.914   4.612  16.896  0.00  0.00    +0.000 A 
ATOM     10  C   UNL     1       4.737   4.608  15.501  0.00  0.00    +0.000 A 
ATOM     11  C   UNL     1       5.818   4.535  14.612  0.00  0.00    +0.000 A 
ATOM     12  C   UNL     1       7.121   4.538  15.093  0.00  0.00    +0.000 A 
ATOM     13  C   UNL     1       7.337   4.626  16.464  0.00  0.00    +0.000 A 
ATOM     14  C   UNL     1       6.252   4.655  17.347  0.00  0.00    +0.000 A 
ATOM     15  F   UNL     1       6.543   4.677  18.658  0.00  0.00    +0.000 F 
ENDBRANCH   8   9
BRANCH   6  16
ATOM     16  C   UNL     1       2.091   7.481  19.438  0.00  0.00    +0.000 C 
ATOM     17  O   UNL     1       2.021   7.777  20.624  0.00  0.00    +0.000 OA
ATOM     18  N   UNL     1       1.839   8.331  18.368  0.00  0.00    +0.000 N 
ATOM     19  H   UNL     1       1.855   7.915  17.433  0.00  0.00    +0.000 HD
BRANCH  18  20
ATOM     20  C   UNL     1       1.470   9.689  18.445  0.00  0.00    +0.000 A 
ATOM     21  C   UNL     1       2.352  10.747  18.149  0.00  0.00    +0.000 A 
ATOM     22  C   UNL     1       1.963  12.083  18.290  0.00  0.00    +0.000 A 
ATOM     23  C   UNL     1       0.689  12.336  18.735  0.00  0.00    +0.000 A 
ATOM     24  C   UNL     1      -0.192  11.316  19.005  0.00  0.00    +0.000 A 
ATOM     25  C   UNL     1       0.155   9.986  18.844  0.00  0.00    +0.000 A 
ATOM     26  O   UNL     1      -1.396  11.777  19.439  0.00  0.00    +0.000 OA
ATOM     27  C   UNL     1      -1.141  13.196  19.490  0.00  0.00    +0.000 C 
ATOM     28  O   UNL     1       0.154  13.563  18.969  0.00  0.00    +0.000 OA
ENDBRANCH  18  20
ENDBRANCH   6  16
TORSDOF 3
ENDMDL
MODEL 7
REMARK VINA RESULT:      -8.0      5.154      7.049
REMARK  Name = 
REMARK  4 active torsions:
REMARK  status: ('A' for Active; 'I' for Inactive)
REMARK    1  A    between atoms: C_1  and  C_2
REMARK    2  A    between atoms: C_6  and  C_7
REMARK    3  A    between atoms: N_9  and  C_10
REMARK    4  A    between atoms: N_20  and  C_21
REMARK                            x       y       z     vdW  Elec       q    Type
REMARK                         _______ _______ _______ _____ _____    ______ ____
ROOT
ATOM      1  C   UNL     1       3.716   3.151  16.442  0.00  0.00    +0.000 C 
ATOM      2  C   UNL     1       4.767   4.132  16.907  0.00  0.00    +0.000 A 
ATOM      3  C   UNL     1       5.686   4.482  15.993  0.00  0.00    +0.000 A 
ATOM      4  C   UNL     1       6.650   5.516  16.361  0.00  0.00    +0.000 A 
ATOM      5  O   UNL     1       7.465   5.950  15.558  0.00  0.00    +0.000 OA
ATOM      6  C   UNL     1       6.596   6.057  17.762  0.00  0.00    +0.000 A 
ATOM      7  N   UNL     1       5.673   5.648  18.590  0.00  0.00    +0.000 NA
ATOM      8  N   UNL     1       4.740   4.710  18.193  0.00  0.00    +0.000 N 
ENDROOT
BRANCH   8   9
ATOM      9  C   UNL     1       3.759   4.440  19.214  0.00  0.00    +0.000 A 
ATOM     10  C   UNL     1       3.795   3.274  20.001  0.00  0.00    +0.000 A 
ATOM     11  C   UNL     1       2.793   2.973  20.934  0.00  0.00    +0.000 A 
ATOM     12  C   UNL     1       1.758   3.871  21.164  0.00  0.00    +0.000 A 
ATOM     13  C   UNL     1       1.736   5.073  20.465  0.00  0.00    +0.000 A 
ATOM     14  C   UNL     1       2.715   5.347  19.503  0.00  0.00    +0.000 A 
ATOM     15  F   UNL     1       2.590   6.500  18.827  0.00  0.00    +0.000 F 
ENDBRANCH   8   9
BRANCH   6  16
ATOM     16  C   UNL     1       7.599   7.095  18.283  0.00  0.00    +0.000 C 
ATOM     17  O   UNL     1       8.440   6.728  19.094  0.00  0.00    +0.000 OA
ATOM     18  N   UNL     1       7.445   8.386  17.793  0.00  0.00    +0.000 N 
ATOM     19  H   UNL     1       6.641   8.558  17.184  0.00  0.00    +0.000 HD
BRANCH  18  20
ATOM     20  C   UNL     1       8.230   9.508  18.128  0.00  0.00    +0.000 A 
ATOM     21  C   UNL     1       9.195   9.497  19.154  0.00  0.00    +0.000 A 
ATOM     22  C   UNL     1       9.916  10.648  19.491  0.00  0.00    +0.000 A 
ATOM     23  C   UNL     1       9.649  11.799  18.791  0.00  0.00    +0.000 A 
ATOM     24  C   UNL     1       8.728  11.821  17.771  0.00  0.00    +0.000 A 
ATOM     25  C   UNL     1       8.024  10.691  17.396  0.00  0.00    +0.000 A 
ATOM     26  O   UNL     1       8.607  13.056  17.213  0.00  0.00    +0.000 OA
ATOM     27  C   UNL     1       9.495  13.822  18.054  0.00  0.00    +0.000 C 
ATOM     28  O   UNL     1      10.219  13.013  19.006  0.00  0.00    +0.000 OA
ENDBRANCH  18  20
ENDBRANCH   6  16
TORSDOF 3
ENDMDL
MODEL 8
REMARK VINA RESULT:      -8.0      2.966      8.648
REMARK  Name = 
REMARK  4 active torsions:
REMARK  status: ('A' for Active; 'I' for Inactive)
REMARK    1  A    between atoms: C_1  and  C_2
REMARK    2  A    between atoms: C_6  and  C_7
REMARK    3  A    between atoms: N_9  and  C_10
REMARK    4  A    between atoms: N_20  and  C_21
REMARK                            x       y       z     vdW  Elec       q    Type
REMARK                         _______ _______ _______ _____ _____    ______ ____
ROOT
ATOM      1  C   UNL     1      -0.499  10.796  22.749  0.00  0.00    +0.000 C 
ATOM      2  C   UNL     1       0.274  10.062  21.678  0.00  0.00    +0.000 A 
ATOM      3  C   UNL     1       0.505   8.760  21.912  0.00  0.00    +0.000 A 
ATOM      4  C   UNL     1       1.143   7.983  20.853  0.00  0.00    +0.000 A 
ATOM      5  O   UNL     1       1.313   6.775  20.954  0.00  0.00    +0.000 OA
ATOM      6  C   UNL     1       1.568   8.711  19.608  0.00  0.00    +0.000 A 
ATOM      7  N   UNL     1       1.312   9.985  19.472  0.00  0.00    +0.000 NA
ATOM      8  N   UNL     1       0.655  10.679  20.470  0.00  0.00    +0.000 N 
ENDROOT
BRANCH   8   9
ATOM      9  C   UNL     1       0.397  12.050  20.109  0.00  0.00    +0.000 A 
ATOM     10  C   UNL     1       1.349  13.069  20.296  0.00  0.00    +0.000 A 
ATOM     11  C   UNL     1       1.065  14.415  20.024  0.00  0.00    +0.000 A 
ATOM     12  C   UNL     1      -0.163  14.775  19.483  0.00  0.00    +0.000 A 
ATOM     13  C   UNL     1      -1.099  13.785  19.206  0.00  0.00    +0.000 A 
ATOM     14  C   UNL     1      -0.825  12.449  19.521  0.00  0.00    +0.000 A 
ATOM     15  F   UNL     1      -1.802  11.560  19.281  0.00  0.00    +0.000 F 
ENDBRANCH   8   9
BRANCH   6  16
ATOM     16  C   UNL     1       2.308   8.015  18.458  0.00  0.00    +0.000 C 
ATOM     17  O   UNL     1       2.296   8.550  17.357  0.00  0.00    +0.000 OA
ATOM     18  N   UNL     1       2.916   6.806  18.773  0.00  0.00    +0.000 N 
ATOM     19  H   UNL     1       2.766   6.444  19.719  0.00  0.00    +0.000 HD
BRANCH  18  20
ATOM     20  C   UNL     1       3.641   5.978  17.892  0.00  0.00    +0.000 A 
ATOM     21  C   UNL     1       3.295   4.637  17.632  0.00  0.00    +0.000 A 
ATOM     22  C   UNL     1       4.071   3.833  16.791  0.00  0.00    +0.000 A 
ATOM     23  C   UNL     1       5.194   4.390  16.228  0.00  0.00    +0.000 A 
ATOM     24  C   UNL     1       5.532   5.703  16.452  0.00  0.00    +0.000 A 
ATOM     25  C   UNL     1       4.765   6.530  17.253  0.00  0.00    +0.000 A 
ATOM     26  O   UNL     1       6.678   6.056  15.811  0.00  0.00    +0.000 OA
ATOM     27  C   UNL     1       7.063   4.794  15.229  0.00  0.00    +0.000 C 
ATOM     28  O   UNL     1       6.083   3.752  15.424  0.00  0.00    +0.000 OA
ENDBRANCH  18  20
ENDBRANCH   6  16
TORSDOF 3
ENDMDL
MODEL 9
REMARK VINA RESULT:      -8.0      2.758      8.520
REMARK  Name = 
REMARK  4 active torsions:
REMARK  status: ('A' for Active; 'I' for Inactive)
REMARK    1  A    between atoms: C_1  and  C_2
REMARK    2  A    between atoms: C_6  and  C_7
REMARK    3  A    between atoms: N_9  and  C_10
REMARK    4  A    between atoms: N_20  and  C_21
REMARK                            x       y       z     vdW  Elec       q    Type
REMARK                         _______ _______ _______ _____ _____    ______ ____
ROOT
ATOM      1  C   UNL     1      -0.466  10.682  22.736  0.00  0.00    +0.000 C 
ATOM      2  C   UNL     1       0.313   9.968  21.656  0.00  0.00    +0.000 A 
ATOM      3  C   UNL     1       0.600   8.679  21.898  0.00  0.00    +0.000 A 
ATOM      4  C   UNL     1       1.248   7.917  20.833  0.00  0.00    +0.000 A 
ATOM      5  O   UNL     1       1.467   6.717  20.943  0.00  0.00    +0.000 OA
ATOM      6  C   UNL     1       1.617   8.648  19.573  0.00  0.00    +0.000 A 
ATOM      7  N   UNL     1       1.308   9.909  19.430  0.00  0.00    +0.000 NA
ATOM      8  N   UNL     1       0.645  10.587  20.434  0.00  0.00    +0.000 N 
ENDROOT
BRANCH   8   9
ATOM      9  C   UNL     1       0.324  11.943  20.065  0.00  0.00    +0.000 A 
ATOM     10  C   UNL     1      -0.871  12.280  19.404  0.00  0.00    +0.000 A 
ATOM     11  C   UNL     1      -1.141  13.586  18.971  0.00  0.00    +0.000 A 
ATOM     12  C   UNL     1      -0.253  14.615  19.254  0.00  0.00    +0.000 A 
ATOM     13  C   UNL     1       0.900  14.335  19.980  0.00  0.00    +0.000 A 
ATOM     14  C   UNL     1       1.185  13.021  20.371  0.00  0.00    +0.000 A 
ATOM     15  F   UNL     1       2.347  12.822  21.013  0.00  0.00    +0.000 F 
ENDBRANCH   8   9
BRANCH   6  16
ATOM     16  C   UNL     1       2.361   7.969  18.415  0.00  0.00    +0.000 C 
ATOM     17  O   UNL     1       2.366   8.529  17.326  0.00  0.00    +0.000 OA
ATOM     18  N   UNL     1       2.953   6.747  18.709  0.00  0.00    +0.000 N 
ATOM     19  H   UNL     1       2.791   6.366  19.644  0.00  0.00    +0.000 HD
BRANCH  18  20
ATOM     20  C   UNL     1       3.678   5.931  17.816  0.00  0.00    +0.000 A 
ATOM     21  C   UNL     1       3.375   4.574  17.591  0.00  0.00    +0.000 A 
ATOM     22  C   UNL     1       4.151   3.784  16.736  0.00  0.00    +0.000 A 
ATOM     23  C   UNL     1       5.231   4.373  16.124  0.00  0.00    +0.000 A 
ATOM     24  C   UNL     1       5.526   5.702  16.314  0.00  0.00    +0.000 A 
ATOM     25  C   UNL     1       4.756   6.514  17.128  0.00  0.00    +0.000 A 
ATOM     26  O   UNL     1       6.634   6.086  15.625  0.00  0.00    +0.000 OA
ATOM     27  C   UNL     1       7.047   4.828  15.051  0.00  0.00    +0.000 C 
ATOM     28  O   UNL     1       6.115   3.754  15.300  0.00  0.00    +0.000 OA
ENDBRANCH  18  20
ENDBRANCH   6  16
TORSDOF 3
ENDMDL
