MODEL 1
REMARK VINA RESULT:      -9.2      0.000      0.000
REMARK  Name = 
REMARK  5 active torsions:
REMARK  status: ('A' for Active; 'I' for Inactive)
REMARK    1  A    between atoms: C_1  and  C_2
REMARK    2  A    between atoms: C_6  and  N_7
REMARK    3  A    between atoms: N_10  and  C_11
REMARK    4  A    between atoms: C_11  and  C_12
REMARK    5  A    between atoms: C_12  and  N_13
REMARK                            x       y       z     vdW  Elec       q    Type
REMARK                         _______ _______ _______ _____ _____    ______ ____
ROOT
ATOM      1  N   UNL     1       8.939   8.808  19.193  0.00  0.00    +0.000 N 
ATOM      2  C   UNL     1       8.164   8.203  18.209  0.00  0.00    +0.000 C 
ATOM      3  O   UNL     1       7.716   8.754  17.218  0.00  0.00    +0.000 OA
ATOM      4  N   UNL     1       7.986   6.831  18.434  0.00  0.00    +0.000 N 
ATOM      5  H   UNL     1       9.356   8.188  19.871  0.00  0.00    +0.000 HD
ATOM      6  H   UNL     1       7.940   6.526  19.398  0.00  0.00    +0.000 HD
ENDROOT
BRANCH   1  12
ATOM      7  C   UNL     1      10.451  15.918  17.998  0.00  0.00    +0.000 C 
ATOM      8  C   UNL     1      10.178  14.506  18.350  0.00  0.00    +0.000 A 
ATOM      9  N   UNL     1       9.946  13.476  17.557  0.00  0.00    +0.000 NA
ATOM     10  C   UNL     1       9.746  12.424  18.426  0.00  0.00    +0.000 A 
ATOM     11  C   UNL     1       9.442  11.064  18.198  0.00  0.00    +0.000 A 
ATOM     12  C   UNL     1       9.268  10.197  19.299  0.00  0.00    +0.000 A 
ATOM     13  C   UNL     1       9.409  10.722  20.601  0.00  0.00    +0.000 A 
ATOM     14  C   UNL     1       9.712  12.071  20.849  0.00  0.00    +0.000 A 
ATOM     15  C   UNL     1       9.861  12.875  19.730  0.00  0.00    +0.000 A 
ATOM     16  O   UNL     1      10.143  14.213  19.690  0.00  0.00    +0.000 OA
ENDBRANCH   1  12
BRANCH   4  17
ATOM     17  C   UNL     1       7.113   6.108  17.502  0.00  0.00    +0.000 C 
BRANCH  17  18
ATOM     18  C   UNL     1       6.692   4.666  17.882  0.00  0.00    +0.000 C 
BRANCH  18  19
ATOM     19  N   UNL     1       5.315   4.451  18.335  0.00  0.00    +0.000 NA
ATOM     20  C   UNL     1       4.795   5.383  19.380  0.00  0.00    +0.000 C 
ATOM     21  C   UNL     1       3.331   5.916  19.161  0.00  0.00    +0.000 C 
ATOM     22  C   UNL     1       2.485   4.723  18.772  0.00  0.00    +0.000 A 
ATOM     23  C   UNL     1       1.385   4.293  19.512  0.00  0.00    +0.000 A 
ATOM     24  C   UNL     1       0.993   2.959  19.412  0.00  0.00    +0.000 A 
ATOM     25  C   UNL     1       1.655   2.087  18.540  0.00  0.00    +0.000 A 
ATOM     26  C   UNL     1       2.663   2.555  17.703  0.00  0.00    +0.000 A 
ATOM     27  C   UNL     1       3.072   3.882  17.807  0.00  0.00    +0.000 A 
ATOM     28  C   UNL     1       4.369   4.371  17.210  0.00  0.00    +0.000 C 
ENDBRANCH  18  19
ENDBRANCH  17  18
ENDBRANCH   4  17
TORSDOF 4
ENDMDL
MODEL 2
REMARK VINA RESULT:      -9.1      1.018      1.159
REMARK  Name = 
REMARK  5 active torsions:
REMARK  status: ('A' for Active; 'I' for Inactive)
REMARK    1  A    between atoms: C_1  and  C_2
REMARK    2  A    between atoms: C_6  and  N_7
REMARK    3  A    between atoms: N_10  and  C_11
REMARK    4  A    between atoms: C_11  and  C_12
REMARK    5  A    between atoms: C_12  and  N_13
REMARK                            x       y       z     vdW  Elec       q    Type
REMARK                         _______ _______ _______ _____ _____    ______ ____
ROOT
ATOM      1  N   UNL     1       8.902   8.734  19.091  0.00  0.00    +0.000 N 
ATOM      2  C   UNL     1       8.103   8.117  18.134  0.00  0.00    +0.000 C 
ATOM      3  O   UNL     1       7.696   8.634  17.107  0.00  0.00    +0.000 OA
ATOM      4  N   UNL     1       7.846   6.772  18.434  0.00  0.00    +0.000 N 
ATOM      5  H   UNL     1       9.276   8.131  19.808  0.00  0.00    +0.000 HD
ATOM      6  H   UNL     1       7.774   6.526  19.413  0.00  0.00    +0.000 HD
ENDROOT
BRANCH   1  12
ATOM      7  C   UNL     1      10.921  15.639  17.507  0.00  0.00    +0.000 C 
ATOM      8  C   UNL     1      10.539  14.274  17.937  0.00  0.00    +0.000 A 
ATOM      9  N   UNL     1      10.298  13.202  17.205  0.00  0.00    +0.000 NA
ATOM     10  C   UNL     1       9.977  12.231  18.130  0.00  0.00    +0.000 A 
ATOM     11  C   UNL     1       9.606  10.877  17.977  0.00  0.00    +0.000 A 
ATOM     12  C   UNL     1       9.307  10.106  19.122  0.00  0.00    +0.000 A 
ATOM     13  C   UNL     1       9.394  10.718  20.390  0.00  0.00    +0.000 A 
ATOM     14  C   UNL     1       9.761  12.063  20.563  0.00  0.00    +0.000 A 
ATOM     15  C   UNL     1      10.033  12.771  19.403  0.00  0.00    +0.000 A 
ATOM     16  O   UNL     1      10.398  14.084  19.289  0.00  0.00    +0.000 OA
ENDBRANCH   1  12
BRANCH   4  17
ATOM     17  C   UNL     1       6.943   6.046  17.534  0.00  0.00    +0.000 C 
BRANCH  17  18
ATOM     18  C   UNL     1       6.460   4.643  17.979  0.00  0.00    +0.000 C 
BRANCH  18  19
ATOM     19  N   UNL     1       5.119   4.530  18.559  0.00  0.00    +0.000 NA
ATOM     20  C   UNL     1       4.111   5.545  18.128  0.00  0.00    +0.000 C 
ATOM     21  C   UNL     1       2.673   4.995  17.805  0.00  0.00    +0.000 C 
ATOM     22  C   UNL     1       2.308   4.043  18.924  0.00  0.00    +0.000 A 
ATOM     23  C   UNL     1       1.203   4.228  19.752  0.00  0.00    +0.000 A 
ATOM     24  C   UNL     1       1.217   3.653  21.023  0.00  0.00    +0.000 A 
ATOM     25  C   UNL     1       2.294   2.858  21.432  0.00  0.00    +0.000 A 
ATOM     26  C   UNL     1       3.331   2.566  20.550  0.00  0.00    +0.000 A 
ATOM     27  C   UNL     1       3.332   3.147  19.285  0.00  0.00    +0.000 A 
ATOM     28  C   UNL     1       4.566   3.174  18.416  0.00  0.00    +0.000 C 
ENDBRANCH  18  19
ENDBRANCH  17  18
ENDBRANCH   4  17
TORSDOF 4
ENDMDL
MODEL 3
REMARK VINA RESULT:      -9.1      0.819      1.590
REMARK  Name = 
REMARK  5 active torsions:
REMARK  status: ('A' for Active; 'I' for Inactive)
REMARK    1  A    between atoms: C_1  and  C_2
REMARK    2  A    between atoms: C_6  and  N_7
REMARK    3  A    between atoms: N_10  and  C_11
REMARK    4  A    between atoms: C_11  and  C_12
REMARK    5  A    between atoms: C_12  and  N_13
REMARK                            x       y       z     vdW  Elec       q    Type
REMARK                         _______ _______ _______ _____ _____    ______ ____
ROOT
ATOM      1  N   UNL     1       8.889   8.774  19.115  0.00  0.00    +0.000 N 
ATOM      2  C   UNL     1       8.097   8.158  18.152  0.00  0.00    +0.000 C 
ATOM      3  O   UNL     1       7.713   8.669  17.114  0.00  0.00    +0.000 OA
ATOM      4  N   UNL     1       7.816   6.820  18.464  0.00  0.00    +0.000 N 
ATOM      5  H   UNL     1       9.244   8.174  19.845  0.00  0.00    +0.000 HD
ATOM      6  H   UNL     1       7.725   6.586  19.444  0.00  0.00    +0.000 HD
ENDROOT
BRANCH   1  12
ATOM      7  C   UNL     1      11.104  15.609  17.489  0.00  0.00    +0.000 C 
ATOM      8  C   UNL     1      10.677  14.260  17.928  0.00  0.00    +0.000 A 
ATOM      9  N   UNL     1      10.461  13.175  17.208  0.00  0.00    +0.000 NA
ATOM     10  C   UNL     1      10.073  12.231  18.136  0.00  0.00    +0.000 A 
ATOM     11  C   UNL     1       9.689  10.879  17.994  0.00  0.00    +0.000 A 
ATOM     12  C   UNL     1       9.314  10.140  19.137  0.00  0.00    +0.000 A 
ATOM     13  C   UNL     1       9.338  10.781  20.393  0.00  0.00    +0.000 A 
ATOM     14  C   UNL     1       9.716  12.125  20.556  0.00  0.00    +0.000 A 
ATOM     15  C   UNL     1      10.064  12.801  19.397  0.00  0.00    +0.000 A 
ATOM     16  O   UNL     1      10.456  14.106  19.274  0.00  0.00    +0.000 OA
ENDBRANCH   1  12
BRANCH   4  17
ATOM     17  C   UNL     1       6.916   6.097  17.557  0.00  0.00    +0.000 C 
BRANCH  17  18
ATOM     18  C   UNL     1       5.430   6.535  17.521  0.00  0.00    +0.000 C 
BRANCH  18  19
ATOM     19  N   UNL     1       4.417   5.560  17.934  0.00  0.00    +0.000 NA
ATOM     20  C   UNL     1       4.172   4.411  17.012  0.00  0.00    +0.000 C 
ATOM     21  C   UNL     1       4.028   2.999  17.691  0.00  0.00    +0.000 C 
ATOM     22  C   UNL     1       3.111   3.179  18.882  0.00  0.00    +0.000 A 
ATOM     23  C   UNL     1       1.900   2.504  19.020  0.00  0.00    +0.000 A 
ATOM     24  C   UNL     1       0.908   3.070  19.820  0.00  0.00    +0.000 A 
ATOM     25  C   UNL     1       1.148   4.261  20.515  0.00  0.00    +0.000 A 
ATOM     26  C   UNL     1       2.406   4.857  20.481  0.00  0.00    +0.000 A 
ATOM     27  C   UNL     1       3.398   4.307  19.674  0.00  0.00    +0.000 A 
ATOM     28  C   UNL     1       4.646   5.071  19.304  0.00  0.00    +0.000 C 
ENDBRANCH  18  19
ENDBRANCH  17  18
ENDBRANCH   4  17
TORSDOF 4
ENDMDL
MODEL 4
REMARK VINA RESULT:      -9.1      1.169      1.577
REMARK  Name = 
REMARK  5 active torsions:
REMARK  status: ('A' for Active; 'I' for Inactive)
REMARK    1  A    between atoms: C_1  and  C_2
REMARK    2  A    between atoms: C_6  and  N_7
REMARK    3  A    between atoms: N_10  and  C_11
REMARK    4  A    between atoms: C_11  and  C_12
REMARK    5  A    between atoms: C_12  and  N_13
REMARK                            x       y       z     vdW  Elec       q    Type
REMARK                         _______ _______ _______ _____ _____    ______ ____
ROOT
ATOM      1  N   UNL     1       8.910   8.728  18.983  0.00  0.00    +0.000 N 
ATOM      2  C   UNL     1       7.963   8.238  18.090  0.00  0.00    +0.000 C 
ATOM      3  O   UNL     1       7.347   8.900  17.271  0.00  0.00    +0.000 OA
ATOM      4  N   UNL     1       7.814   6.846  18.175  0.00  0.00    +0.000 N 
ATOM      5  H   UNL     1       9.436   8.035  19.493  0.00  0.00    +0.000 HD
ATOM      6  H   UNL     1       7.941   6.426  19.086  0.00  0.00    +0.000 HD
ENDROOT
BRANCH   1  12
ATOM      7  C   UNL     1      10.483  15.371  21.753  0.00  0.00    +0.000 C 
ATOM      8  C   UNL     1      10.174  14.083  21.090  0.00  0.00    +0.000 A 
ATOM      9  N   UNL     1       9.729  12.956  21.615  0.00  0.00    +0.000 NA
ATOM     10  C   UNL     1       9.639  12.099  20.539  0.00  0.00    +0.000 A 
ATOM     11  C   UNL     1       9.244  10.745  20.449  0.00  0.00    +0.000 A 
ATOM     12  C   UNL     1       9.268  10.098  19.195  0.00  0.00    +0.000 A 
ATOM     13  C   UNL     1       9.685  10.830  18.064  0.00  0.00    +0.000 A 
ATOM     14  C   UNL     1      10.082  12.176  18.132  0.00  0.00    +0.000 A 
ATOM     15  C   UNL     1      10.048  12.755  19.391  0.00  0.00    +0.000 A 
ATOM     16  O   UNL     1      10.389  14.034  19.735  0.00  0.00    +0.000 OA
ENDBRANCH   1  12
BRANCH   4  17
ATOM     17  C   UNL     1       6.778   6.232  17.336  0.00  0.00    +0.000 C 
BRANCH  17  18
ATOM     18  C   UNL     1       6.381   4.766  17.644  0.00  0.00    +0.000 C 
BRANCH  18  19
ATOM     19  N   UNL     1       5.065   4.523  18.240  0.00  0.00    +0.000 NA
ATOM     20  C   UNL     1       4.674   5.394  19.389  0.00  0.00    +0.000 C 
ATOM     21  C   UNL     1       3.197   5.936  19.372  0.00  0.00    +0.000 C 
ATOM     22  C   UNL     1       2.306   4.765  19.017  0.00  0.00    +0.000 A 
ATOM     23  C   UNL     1       1.297   4.294  19.854  0.00  0.00    +0.000 A 
ATOM     24  C   UNL     1       0.889   2.966  19.726  0.00  0.00    +0.000 A 
ATOM     25  C   UNL     1       1.441   2.145  18.736  0.00  0.00    +0.000 A 
ATOM     26  C   UNL     1       2.348   2.662  17.815  0.00  0.00    +0.000 A 
ATOM     27  C   UNL     1       2.773   3.982  17.944  0.00  0.00    +0.000 A 
ATOM     28  C   UNL     1       3.994   4.505  17.229  0.00  0.00    +0.000 C 
ENDBRANCH  18  19
ENDBRANCH  17  18
ENDBRANCH   4  17
TORSDOF 4
ENDMDL
MODEL 5
REMARK VINA RESULT:      -8.8      1.464      1.887
REMARK  Name = 
REMARK  5 active torsions:
REMARK  status: ('A' for Active; 'I' for Inactive)
REMARK    1  A    between atoms: C_1  and  C_2
REMARK    2  A    between atoms: C_6  and  N_7
REMARK    3  A    between atoms: N_10  and  C_11
REMARK    4  A    between atoms: C_11  and  C_12
REMARK    5  A    between atoms: C_12  and  N_13
REMARK                            x       y       z     vdW  Elec       q    Type
REMARK                         _______ _______ _______ _____ _____    ______ ____
ROOT
ATOM      1  N   UNL     1       8.968   8.799  18.997  0.00  0.00    +0.000 N 
ATOM      2  C   UNL     1       8.021   8.288  18.116  0.00  0.00    +0.000 C 
ATOM      3  O   UNL     1       7.370   8.939  17.315  0.00  0.00    +0.000 OA
ATOM      4  N   UNL     1       7.918   6.892  18.188  0.00  0.00    +0.000 N 
ATOM      5  H   UNL     1       9.525   8.118  19.490  0.00  0.00    +0.000 HD
ATOM      6  H   UNL     1       8.074   6.466  19.093  0.00  0.00    +0.000 HD
ENDROOT
BRANCH   1  12
ATOM      7  C   UNL     1      10.434  15.446  21.814  0.00  0.00    +0.000 C 
ATOM      8  C   UNL     1      10.139  14.160  21.142  0.00  0.00    +0.000 A 
ATOM      9  N   UNL     1       9.763  13.008  21.668  0.00  0.00    +0.000 NA
ATOM     10  C   UNL     1       9.650  12.167  20.581  0.00  0.00    +0.000 A 
ATOM     11  C   UNL     1       9.301  10.802  20.484  0.00  0.00    +0.000 A 
ATOM     12  C   UNL     1       9.286  10.177  19.218  0.00  0.00    +0.000 A 
ATOM     13  C   UNL     1       9.619  10.944  18.082  0.00  0.00    +0.000 A 
ATOM     14  C   UNL     1       9.970  12.303  18.157  0.00  0.00    +0.000 A 
ATOM     15  C   UNL     1       9.977  12.858  19.426  0.00  0.00    +0.000 A 
ATOM     16  O   UNL     1      10.288  14.143  19.778  0.00  0.00    +0.000 OA
ENDBRANCH   1  12
BRANCH   4  17
ATOM     17  C   UNL     1       6.888   6.253  17.361  0.00  0.00    +0.000 C 
BRANCH  17  18
ATOM     18  C   UNL     1       6.419   4.833  17.766  0.00  0.00    +0.000 C 
BRANCH  18  19
ATOM     19  N   UNL     1       5.138   4.706  18.464  0.00  0.00    +0.000 NA
ATOM     20  C   UNL     1       4.174   5.838  18.315  0.00  0.00    +0.000 C 
ATOM     21  C   UNL     1       2.673   5.437  18.067  0.00  0.00    +0.000 C 
ATOM     22  C   UNL     1       2.346   4.336  19.053  0.00  0.00    +0.000 A 
ATOM     23  C   UNL     1       1.346   4.446  20.016  0.00  0.00    +0.000 A 
ATOM     24  C   UNL     1       1.440   3.667  21.169  0.00  0.00    +0.000 A 
ATOM     25  C   UNL     1       2.487   2.751  21.325  0.00  0.00    +0.000 A 
ATOM     26  C   UNL     1       3.406   2.548  20.299  0.00  0.00    +0.000 A 
ATOM     27  C   UNL     1       3.329   3.331  19.151  0.00  0.00    +0.000 A 
ATOM     28  C   UNL     1       4.470   3.429  18.168  0.00  0.00    +0.000 C 
ENDBRANCH  18  19
ENDBRANCH  17  18
ENDBRANCH   4  17
TORSDOF 4
ENDMDL
MODEL 6
REMARK VINA RESULT:      -8.7      1.213      1.340
REMARK  Name = 
REMARK  5 active torsions:
REMARK  status: ('A' for Active; 'I' for Inactive)
REMARK    1  A    between atoms: C_1  and  C_2
REMARK    2  A    between atoms: C_6  and  N_7
REMARK    3  A    between atoms: N_10  and  C_11
REMARK    4  A    between atoms: C_11  and  C_12
REMARK    5  A    between atoms: C_12  and  N_13
REMARK                            x       y       z     vdW  Elec       q    Type
REMARK                         _______ _______ _______ _____ _____    ______ ____
ROOT
ATOM      1  N   UNL     1       7.722   8.692  17.356  0.00  0.00    +0.000 N 
ATOM      2  C   UNL     1       7.763   7.363  17.765  0.00  0.00    +0.000 C 
ATOM      3  O   UNL     1       8.269   6.951  18.795  0.00  0.00    +0.000 OA
ATOM      4  N   UNL     1       7.090   6.509  16.880  0.00  0.00    +0.000 N 
ATOM      5  H   UNL     1       7.142   8.891  16.556  0.00  0.00    +0.000 HD
ATOM      6  H   UNL     1       7.109   6.756  15.899  0.00  0.00    +0.000 HD
ENDROOT
BRANCH   1  12
ATOM      7  C   UNL     1      10.156  15.348  19.370  0.00  0.00    +0.000 C 
ATOM      8  C   UNL     1       9.738  13.964  19.045  0.00  0.00    +0.000 A 
ATOM      9  N   UNL     1       9.028  13.522  18.023  0.00  0.00    +0.000 NA
ATOM     10  C   UNL     1       8.938  12.164  18.243  0.00  0.00    +0.000 A 
ATOM     11  C   UNL     1       8.295  11.137  17.516  0.00  0.00    +0.000 A 
ATOM     12  C   UNL     1       8.350   9.810  17.993  0.00  0.00    +0.000 A 
ATOM     13  C   UNL     1       9.054   9.550  19.188  0.00  0.00    +0.000 A 
ATOM     14  C   UNL     1       9.700  10.556  19.926  0.00  0.00    +0.000 A 
ATOM     15  C   UNL     1       9.603  11.840  19.413  0.00  0.00    +0.000 A 
ATOM     16  O   UNL     1      10.125  12.993  19.934  0.00  0.00    +0.000 OA
ENDBRANCH   1  12
BRANCH   4  17
ATOM     17  C   UNL     1       7.142   5.071  17.170  0.00  0.00    +0.000 C 
BRANCH  17  18
ATOM     18  C   UNL     1       5.890   4.224  16.828  0.00  0.00    +0.000 C 
BRANCH  18  19
ATOM     19  N   UNL     1       4.794   4.197  17.800  0.00  0.00    +0.000 NA
ATOM     20  C   UNL     1       5.037   4.875  19.109  0.00  0.00    +0.000 C 
ATOM     21  C   UNL     1       3.857   5.760  19.656  0.00  0.00    +0.000 C 
ATOM     22  C   UNL     1       2.589   4.952  19.485  0.00  0.00    +0.000 A 
ATOM     23  C   UNL     1       1.771   4.582  20.551  0.00  0.00    +0.000 A 
ATOM     24  C   UNL     1       0.959   3.457  20.410  0.00  0.00    +0.000 A 
ATOM     25  C   UNL     1       0.923   2.753  19.201  0.00  0.00    +0.000 A 
ATOM     26  C   UNL     1       1.638   3.208  18.097  0.00  0.00    +0.000 A 
ATOM     27  C   UNL     1       2.463   4.322  18.232  0.00  0.00    +0.000 A 
ATOM     28  C   UNL     1       3.525   4.662  17.216  0.00  0.00    +0.000 C 
ENDBRANCH  18  19
ENDBRANCH  17  18
ENDBRANCH   4  17
TORSDOF 4
ENDMDL
MODEL 7
REMARK VINA RESULT:      -8.7      1.102      1.154
REMARK  Name = 
REMARK  5 active torsions:
REMARK  status: ('A' for Active; 'I' for Inactive)
REMARK    1  A    between atoms: C_1  and  C_2
REMARK    2  A    between atoms: C_6  and  N_7
REMARK    3  A    between atoms: N_10  and  C_11
REMARK    4  A    between atoms: C_11  and  C_12
REMARK    5  A    between atoms: C_12  and  N_13
REMARK                            x       y       z     vdW  Elec       q    Type
REMARK                         _______ _______ _______ _____ _____    ______ ____
ROOT
ATOM      1  N   UNL     1       7.977   9.597  17.689  0.00  0.00    +0.000 N 
ATOM      2  C   UNL     1       8.009   8.227  17.924  0.00  0.00    +0.000 C 
ATOM      3  O   UNL     1       8.658   7.669  18.793  0.00  0.00    +0.000 OA
ATOM      4  N   UNL     1       7.145   7.516  17.079  0.00  0.00    +0.000 N 
ATOM      5  H   UNL     1       7.281   9.917  17.033  0.00  0.00    +0.000 HD
ATOM      6  H   UNL     1       7.011   7.884  16.146  0.00  0.00    +0.000 HD
ENDROOT
BRANCH   1  12
ATOM      7  C   UNL     1      11.562  15.734  19.629  0.00  0.00    +0.000 C 
ATOM      8  C   UNL     1      10.895  14.446  19.327  0.00  0.00    +0.000 A 
ATOM      9  N   UNL     1      10.193  14.096  18.265  0.00  0.00    +0.000 NA
ATOM     10  C   UNL     1       9.807  12.799  18.533  0.00  0.00    +0.000 A 
ATOM     11  C   UNL     1       9.026  11.882  17.796  0.00  0.00    +0.000 A 
ATOM     12  C   UNL     1       8.769  10.601  18.332  0.00  0.00    +0.000 A 
ATOM     13  C   UNL     1       9.307  10.277  19.595  0.00  0.00    +0.000 A 
ATOM     14  C   UNL     1      10.086  11.175  20.345  0.00  0.00    +0.000 A 
ATOM     15  C   UNL     1      10.296  12.419  19.772  0.00  0.00    +0.000 A 
ATOM     16  O   UNL     1      11.001  13.471  20.288  0.00  0.00    +0.000 OA
ENDBRANCH   1  12
BRANCH   4  17
ATOM     17  C   UNL     1       7.162   6.053  17.183  0.00  0.00    +0.000 C 
BRANCH  17  18
ATOM     18  C   UNL     1       6.629   5.420  18.493  0.00  0.00    +0.000 C 
BRANCH  18  19
ATOM     19  N   UNL     1       5.246   4.936  18.508  0.00  0.00    +0.000 NA
ATOM     20  C   UNL     1       4.182   5.943  18.798  0.00  0.00    +0.000 C 
ATOM     21  C   UNL     1       2.896   5.866  17.895  0.00  0.00    +0.000 C 
ATOM     22  C   UNL     1       2.505   4.406  17.814  0.00  0.00    +0.000 A 
ATOM     23  C   UNL     1       1.277   3.920  18.255  0.00  0.00    +0.000 A 
ATOM     24  C   UNL     1       1.184   2.579  18.627  0.00  0.00    +0.000 A 
ATOM     25  C   UNL     1       2.289   1.729  18.503  0.00  0.00    +0.000 A 
ATOM     26  C   UNL     1       3.473   2.188  17.934  0.00  0.00    +0.000 A 
ATOM     27  C   UNL     1       3.580   3.528  17.572  0.00  0.00    +0.000 A 
ATOM     28  C   UNL     1       4.911   4.180  17.290  0.00  0.00    +0.000 C 
ENDBRANCH  18  19
ENDBRANCH  17  18
ENDBRANCH   4  17
TORSDOF 4
ENDMDL
MODEL 8
REMARK VINA RESULT:      -8.6      5.576      8.271
REMARK  Name = 
REMARK  5 active torsions:
REMARK  status: ('A' for Active; 'I' for Inactive)
REMARK    1  A    between atoms: C_1  and  C_2
REMARK    2  A    between atoms: C_6  and  N_7
REMARK    3  A    between atoms: N_10  and  C_11
REMARK    4  A    between atoms: C_11  and  C_12
REMARK    5  A    between atoms: C_12  and  N_13
REMARK                            x       y       z     vdW  Elec       q    Type
REMARK                         _______ _______ _______ _____ _____    ______ ____
ROOT
ATOM      1  N   UNL     1       4.246   5.367  19.120  0.00  0.00    +0.000 N 
ATOM      2  C   UNL     1       3.051   6.064  19.264  0.00  0.00    +0.000 C 
ATOM      3  O   UNL     1       2.468   6.667  18.379  0.00  0.00    +0.000 OA
ATOM      4  N   UNL     1       2.520   5.957  20.557  0.00  0.00    +0.000 N 
ATOM      5  H   UNL     1       4.524   4.799  19.906  0.00  0.00    +0.000 HD
ATOM      6  H   UNL     1       3.180   5.887  21.321  0.00  0.00    +0.000 HD
ENDROOT
BRANCH   1  12
ATOM      7  C   UNL     1       7.154   4.211  12.451  0.00  0.00    +0.000 C 
ATOM      8  C   UNL     1       6.673   4.485  13.825  0.00  0.00    +0.000 A 
ATOM      9  N   UNL     1       5.554   4.103  14.412  0.00  0.00    +0.000 NA
ATOM     10  C   UNL     1       5.633   4.656  15.672  0.00  0.00    +0.000 A 
ATOM     11  C   UNL     1       4.741   4.625  16.767  0.00  0.00    +0.000 A 
ATOM     12  C   UNL     1       5.076   5.310  17.955  0.00  0.00    +0.000 A 
ATOM     13  C   UNL     1       6.302   6.006  18.011  0.00  0.00    +0.000 A 
ATOM     14  C   UNL     1       7.203   6.050  16.933  0.00  0.00    +0.000 A 
ATOM     15  C   UNL     1       6.815   5.367  15.791  0.00  0.00    +0.000 A 
ATOM     16  O   UNL     1       7.493   5.258  14.608  0.00  0.00    +0.000 OA
ENDBRANCH   1  12
BRANCH   4  17
ATOM     17  C   UNL     1       1.302   6.724  20.845  0.00  0.00    +0.000 C 
BRANCH  17  18
ATOM     18  C   UNL     1       1.461   8.233  21.157  0.00  0.00    +0.000 C 
BRANCH  18  19
ATOM     19  N   UNL     1       0.440   9.150  20.644  0.00  0.00    +0.000 NA
ATOM     20  C   UNL     1      -0.151  10.115  21.620  0.00  0.00    +0.000 C 
ATOM     21  C   UNL     1      -0.333  11.591  21.107  0.00  0.00    +0.000 C 
ATOM     22  C   UNL     1      -0.939  11.501  19.723  0.00  0.00    +0.000 A 
ATOM     23  C   UNL     1      -2.171  12.061  19.392  0.00  0.00    +0.000 A 
ATOM     24  C   UNL     1      -2.882  11.524  18.320  0.00  0.00    +0.000 A 
ATOM     25  C   UNL     1      -2.340  10.483  17.557  0.00  0.00    +0.000 A 
ATOM     26  C   UNL     1      -1.051  10.021  17.808  0.00  0.00    +0.000 A 
ATOM     27  C   UNL     1      -0.339  10.541  18.885  0.00  0.00    +0.000 A 
ATOM     28  C   UNL     1       0.891   9.862  19.437  0.00  0.00    +0.000 C 
ENDBRANCH  18  19
ENDBRANCH  17  18
ENDBRANCH   4  17
TORSDOF 4
ENDMDL
MODEL 9
REMARK VINA RESULT:      -8.6      1.147      1.486
REMARK  Name = 
REMARK  5 active torsions:
REMARK  status: ('A' for Active; 'I' for Inactive)
REMARK    1  A    between atoms: C_1  and  C_2
REMARK    2  A    between atoms: C_6  and  N_7
REMARK    3  A    between atoms: N_10  and  C_11
REMARK    4  A    between atoms: C_11  and  C_12
REMARK    5  A    between atoms: C_12  and  N_13
REMARK                            x       y       z     vdW  Elec       q    Type
REMARK                         _______ _______ _______ _____ _____    ______ ____
ROOT
ATOM      1  N   UNL     1       9.122   9.267  19.215  0.00  0.00    +0.000 N 
ATOM      2  C   UNL     1       8.340   8.501  18.356  0.00  0.00    +0.000 C 
ATOM      3  O   UNL     1       7.808   8.900  17.334  0.00  0.00    +0.000 OA
ATOM      4  N   UNL     1       8.264   7.159  18.752  0.00  0.00    +0.000 N 
ATOM      5  H   UNL     1       9.612   8.759  19.936  0.00  0.00    +0.000 HD
ATOM      6  H   UNL     1       8.286   6.972  19.746  0.00  0.00    +0.000 HD
ENDROOT
BRANCH   1  12
ATOM      7  C   UNL     1      11.186  16.250  20.331  0.00  0.00    +0.000 C 
ATOM      8  C   UNL     1      10.709  14.884  20.015  0.00  0.00    +0.000 A 
ATOM      9  N   UNL     1      10.797  13.780  20.734  0.00  0.00    +0.000 NA
ATOM     10  C   UNL     1      10.202  12.819  19.944  0.00  0.00    +0.000 A 
ATOM     11  C   UNL     1       9.998  11.435  20.143  0.00  0.00    +0.000 A 
ATOM     12  C   UNL     1       9.365  10.675  19.136  0.00  0.00    +0.000 A 
ATOM     13  C   UNL     1       8.951  11.328  17.956  0.00  0.00    +0.000 A 
ATOM     14  C   UNL     1       9.144  12.703  17.738  0.00  0.00    +0.000 A 
ATOM     15  C   UNL     1       9.780  13.394  18.757  0.00  0.00    +0.000 A 
ATOM     16  O   UNL     1      10.098  14.724  18.797  0.00  0.00    +0.000 OA
ENDBRANCH   1  12
BRANCH   4  17
ATOM     17  C   UNL     1       7.394   6.278  17.964  0.00  0.00    +0.000 C 
BRANCH  17  18
ATOM     18  C   UNL     1       6.905   4.967  18.631  0.00  0.00    +0.000 C 
BRANCH  18  19
ATOM     19  N   UNL     1       5.473   4.665  18.582  0.00  0.00    +0.000 NA
ATOM     20  C   UNL     1       4.536   5.787  18.891  0.00  0.00    +0.000 C 
ATOM     21  C   UNL     1       3.283   5.919  17.949  0.00  0.00    +0.000 C 
ATOM     22  C   UNL     1       2.713   4.527  17.784  0.00  0.00    +0.000 A 
ATOM     23  C   UNL     1       1.417   4.184  18.164  0.00  0.00    +0.000 A 
ATOM     24  C   UNL     1       1.141   2.850  18.466  0.00  0.00    +0.000 A 
ATOM     25  C   UNL     1       2.132   1.871  18.331  0.00  0.00    +0.000 A 
ATOM     26  C   UNL     1       3.384   2.199  17.819  0.00  0.00    +0.000 A 
ATOM     27  C   UNL     1       3.674   3.530  17.529  0.00  0.00    +0.000 A 
ATOM     28  C   UNL     1       5.087   4.016  17.319  0.00  0.00    +0.000 C 
ENDBRANCH  18  19
ENDBRANCH  17  18
ENDBRANCH   4  17
TORSDOF 4
ENDMDL
