MODEL 1
REMARK VINA RESULT:      -7.9      0.000      0.000
REMARK  Name = 
REMARK  4 active torsions:
REMARK  status: ('A' for Active; 'I' for Inactive)
REMARK    1  A    between atoms: C_1  and  N_2
REMARK    2  A    between atoms: C_4  and  N_5
REMARK    3  A    between atoms: C_7  and  C_8
REMARK    4  A    between atoms: C_15  and  O_16
REMARK                            x       y       z     vdW  Elec       q    Type
REMARK                         _______ _______ _______ _____ _____    ______ ____
ROOT
ATOM      1  C   UNL     1       2.912   5.472  18.292  0.00  0.00    +0.000 C 
ATOM      2  O   UNL     1       2.052   4.649  17.958  0.00  0.00    +0.000 OA
ATOM      3  N   UNL     1       4.214   5.059  18.475  0.00  0.00    +0.000 N 
ATOM      4  C   UNL     1       4.688   3.705  18.061  0.00  0.00    +0.000 C 
ATOM      5  C   UNL     1       5.728   3.904  16.969  0.00  0.00    +0.000 A 
ATOM      6  C   UNL     1       5.706   3.139  15.795  0.00  0.00    +0.000 A 
ATOM      7  C   UNL     1       6.132   3.730  14.615  0.00  0.00    +0.000 A 
ATOM      8  C   UNL     1       6.591   5.046  14.653  0.00  0.00    +0.000 A 
ATOM      9  C   UNL     1       6.818   5.708  15.863  0.00  0.00    +0.000 A 
ATOM     10  C   UNL     1       6.463   5.110  17.073  0.00  0.00    +0.000 A 
ATOM     11  C   UNL     1       6.541   5.761  18.459  0.00  0.00    +0.000 C 
ATOM     12  C   UNL     1       7.747   5.429  19.337  0.00  0.00    +0.000 C 
ATOM     13  C   UNL     1       7.569   6.816  18.803  0.00  0.00    +0.000 C 
ATOM     14  C   UNL     1       5.216   5.802  19.198  0.00  0.00    +0.000 C 
ENDROOT
BRANCH   1  17
ATOM     15  N   UNL     1       1.589   8.814  19.843  0.00  0.00    +0.000 N 
ATOM     16  C   UNL     1       1.941   7.449  19.748  0.00  0.00    +0.000 A 
ATOM     17  C   UNL     1       2.455   6.915  18.597  0.00  0.00    +0.000 A 
ATOM     18  C   UNL     1       2.703   7.854  17.500  0.00  0.00    +0.000 A 
ATOM     19  C   UNL     1       2.409   9.150  17.574  0.00  0.00    +0.000 A 
ATOM     20  C   UNL     1       1.784   9.715  18.785  0.00  0.00    +0.000 A 
ATOM     21  O   UNL     1       1.534  10.913  18.767  0.00  0.00    +0.000 OA
BRANCH  15  25
ATOM     22  C   UNL     1      -1.420  10.994  23.136  0.00  0.00    +0.000 C 
ATOM     23  N   UNL     1      -0.326  10.274  22.525  0.00  0.00    +0.000 N 
ATOM     24  C   UNL     1      -0.117  10.051  21.190  0.00  0.00    +0.000 A 
ATOM     25  C   UNL     1       1.011   9.273  21.060  0.00  0.00    +0.000 A 
ATOM     26  C   UNL     1       1.412   9.087  22.416  0.00  0.00    +0.000 A 
ATOM     27  N   UNL     1       0.608   9.699  23.295  0.00  0.00    +0.000 NA
ENDBRANCH  15  25
ENDBRANCH   1  17
BRANCH   8  28
ATOM     28  O   UNL     1       6.764   5.753  13.498  0.00  0.00    +0.000 OA
ATOM     29  H   UNL     1       5.888   6.000  13.156  0.00  0.00    +0.000 HD
ENDBRANCH   8  28
TORSDOF 3
ENDMDL
MODEL 2
REMARK VINA RESULT:      -7.6      2.355      3.803
REMARK  Name = 
REMARK  4 active torsions:
REMARK  status: ('A' for Active; 'I' for Inactive)
REMARK    1  A    between atoms: C_1  and  N_2
REMARK    2  A    between atoms: C_4  and  N_5
REMARK    3  A    between atoms: C_7  and  C_8
REMARK    4  A    between atoms: C_15  and  O_16
REMARK                            x       y       z     vdW  Elec       q    Type
REMARK                         _______ _______ _______ _____ _____    ______ ____
ROOT
ATOM      1  C   UNL     1       2.918   8.216  17.933  0.00  0.00    +0.000 C 
ATOM      2  O   UNL     1       3.371   9.154  17.266  0.00  0.00    +0.000 OA
ATOM      3  N   UNL     1       3.231   6.919  17.585  0.00  0.00    +0.000 N 
ATOM      4  C   UNL     1       4.286   6.596  16.579  0.00  0.00    +0.000 C 
ATOM      5  C   UNL     1       5.388   5.841  17.306  0.00  0.00    +0.000 A 
ATOM      6  C   UNL     1       6.739   6.163  17.116  0.00  0.00    +0.000 A 
ATOM      7  C   UNL     1       7.609   6.013  18.187  0.00  0.00    +0.000 A 
ATOM      8  C   UNL     1       7.110   5.521  19.391  0.00  0.00    +0.000 A 
ATOM      9  C   UNL     1       5.818   4.995  19.489  0.00  0.00    +0.000 A 
ATOM     10  C   UNL     1       4.942   5.068  18.405  0.00  0.00    +0.000 A 
ATOM     11  C   UNL     1       3.468   4.644  18.407  0.00  0.00    +0.000 C 
ATOM     12  C   UNL     1       3.118   3.274  17.827  0.00  0.00    +0.000 C 
ATOM     13  C   UNL     1       2.943   3.535  19.290  0.00  0.00    +0.000 C 
ATOM     14  C   UNL     1       2.505   5.754  18.023  0.00  0.00    +0.000 C 
ENDROOT
BRANCH   1  17
ATOM     15  N   UNL     1       0.152   9.682  20.284  0.00  0.00    +0.000 N 
ATOM     16  C   UNL     1       0.994   9.547  19.157  0.00  0.00    +0.000 A 
ATOM     17  C   UNL     1       1.923   8.546  19.067  0.00  0.00    +0.000 A 
ATOM     18  C   UNL     1       1.936   7.571  20.161  0.00  0.00    +0.000 A 
ATOM     19  C   UNL     1       1.133   7.658  21.219  0.00  0.00    +0.000 A 
ATOM     20  C   UNL     1       0.183   8.779  21.356  0.00  0.00    +0.000 A 
ATOM     21  O   UNL     1      -0.510   8.791  22.366  0.00  0.00    +0.000 OA
BRANCH  15  25
ATOM     22  C   UNL     1      -2.308  13.752  21.712  0.00  0.00    +0.000 C 
ATOM     23  N   UNL     1      -1.863  12.589  20.977  0.00  0.00    +0.000 N 
ATOM     24  C   UNL     1      -0.885  11.701  21.336  0.00  0.00    +0.000 A 
ATOM     25  C   UNL     1      -0.749  10.784  20.318  0.00  0.00    +0.000 A 
ATOM     26  C   UNL     1      -1.724  11.226  19.375  0.00  0.00    +0.000 A 
ATOM     27  N   UNL     1      -2.399  12.310  19.781  0.00  0.00    +0.000 NA
ENDBRANCH  15  25
ENDBRANCH   1  17
BRANCH   8  28
ATOM     28  O   UNL     1       7.850   5.608  20.536  0.00  0.00    +0.000 OA
ATOM     29  H   UNL     1       7.252   5.503  21.295  0.00  0.00    +0.000 HD
ENDBRANCH   8  28
TORSDOF 3
ENDMDL
MODEL 3
REMARK VINA RESULT:      -7.4      2.539      3.829
REMARK  Name = 
REMARK  4 active torsions:
REMARK  status: ('A' for Active; 'I' for Inactive)
REMARK    1  A    between atoms: C_1  and  N_2
REMARK    2  A    between atoms: C_4  and  N_5
REMARK    3  A    between atoms: C_7  and  C_8
REMARK    4  A    between atoms: C_15  and  O_16
REMARK                            x       y       z     vdW  Elec       q    Type
REMARK                         _______ _______ _______ _____ _____    ______ ____
ROOT
ATOM      1  C   UNL     1       2.981   7.964  17.724  0.00  0.00    +0.000 C 
ATOM      2  O   UNL     1       3.419   8.839  16.969  0.00  0.00    +0.000 OA
ATOM      3  N   UNL     1       3.314   6.645  17.503  0.00  0.00    +0.000 N 
ATOM      4  C   UNL     1       4.373   6.241  16.531  0.00  0.00    +0.000 C 
ATOM      5  C   UNL     1       5.487   5.577  17.326  0.00  0.00    +0.000 A 
ATOM      6  C   UNL     1       6.833   5.900  17.102  0.00  0.00    +0.000 A 
ATOM      7  C   UNL     1       7.706   5.868  18.180  0.00  0.00    +0.000 A 
ATOM      8  C   UNL     1       7.215   5.488  19.428  0.00  0.00    +0.000 A 
ATOM      9  C   UNL     1       5.931   4.953  19.579  0.00  0.00    +0.000 A 
ATOM     10  C   UNL     1       5.053   4.908  18.495  0.00  0.00    +0.000 A 
ATOM     11  C   UNL     1       3.586   4.464  18.541  0.00  0.00    +0.000 C 
ATOM     12  C   UNL     1       3.257   3.039  18.097  0.00  0.00    +0.000 C 
ATOM     13  C   UNL     1       3.079   3.438  19.529  0.00  0.00    +0.000 C 
ATOM     14  C   UNL     1       2.607   5.516  18.054  0.00  0.00    +0.000 C 
ENDROOT
BRANCH   1  17
ATOM     15  N   UNL     1       0.146   9.558  19.903  0.00  0.00    +0.000 N 
ATOM     16  C   UNL     1       0.977   9.316  18.787  0.00  0.00    +0.000 A 
ATOM     17  C   UNL     1       1.982   8.387  18.823  0.00  0.00    +0.000 A 
ATOM     18  C   UNL     1       2.091   7.596  20.052  0.00  0.00    +0.000 A 
ATOM     19  C   UNL     1       1.302   7.783  21.107  0.00  0.00    +0.000 A 
ATOM     20  C   UNL     1       0.267   8.836  21.099  0.00  0.00    +0.000 A 
ATOM     21  O   UNL     1      -0.408   8.950  22.115  0.00  0.00    +0.000 OA
BRANCH  15  25
ATOM     22  C   UNL     1      -3.867  12.147  18.548  0.00  0.00    +0.000 C 
ATOM     23  N   UNL     1      -2.624  11.742  19.163  0.00  0.00    +0.000 N 
ATOM     24  C   UNL     1      -1.938  10.574  18.966  0.00  0.00    +0.000 A 
ATOM     25  C   UNL     1      -0.839  10.579  19.795  0.00  0.00    +0.000 A 
ATOM     26  C   UNL     1      -0.964  11.835  20.459  0.00  0.00    +0.000 A 
ATOM     27  N   UNL     1      -2.037  12.537  20.069  0.00  0.00    +0.000 NA
ENDBRANCH  15  25
ENDBRANCH   1  17
BRANCH   8  28
ATOM     28  O   UNL     1       7.954   5.695  20.557  0.00  0.00    +0.000 OA
ATOM     29  H   UNL     1       7.348   5.927  21.281  0.00  0.00    +0.000 HD
ENDBRANCH   8  28
TORSDOF 3
ENDMDL
MODEL 4
REMARK VINA RESULT:      -7.3      3.156      8.746
REMARK  Name = 
REMARK  4 active torsions:
REMARK  status: ('A' for Active; 'I' for Inactive)
REMARK    1  A    between atoms: C_1  and  N_2
REMARK    2  A    between atoms: C_4  and  N_5
REMARK    3  A    between atoms: C_7  and  C_8
REMARK    4  A    between atoms: C_15  and  O_16
REMARK                            x       y       z     vdW  Elec       q    Type
REMARK                         _______ _______ _______ _____ _____    ______ ____
ROOT
ATOM      1  C   UNL     1       0.493  10.107  21.084  0.00  0.00    +0.000 C 
ATOM      2  O   UNL     1       0.860  10.268  22.253  0.00  0.00    +0.000 OA
ATOM      3  N   UNL     1      -0.636  10.756  20.629  0.00  0.00    +0.000 N 
ATOM      4  C   UNL     1      -1.309  11.832  21.415  0.00  0.00    +0.000 C 
ATOM      5  C   UNL     1      -1.195  13.118  20.609  0.00  0.00    +0.000 A 
ATOM      6  C   UNL     1      -0.809  14.323  21.212  0.00  0.00    +0.000 A 
ATOM      7  C   UNL     1      -0.071  15.228  20.463  0.00  0.00    +0.000 A 
ATOM      8  C   UNL     1       0.227  14.914  19.139  0.00  0.00    +0.000 A 
ATOM      9  C   UNL     1      -0.358  13.819  18.495  0.00  0.00    +0.000 A 
ATOM     10  C   UNL     1      -1.163  12.929  19.207  0.00  0.00    +0.000 A 
ATOM     11  C   UNL     1      -1.769  11.629  18.664  0.00  0.00    +0.000 C 
ATOM     12  C   UNL     1      -3.230  11.654  18.216  0.00  0.00    +0.000 C 
ATOM     13  C   UNL     1      -2.141  11.452  17.209  0.00  0.00    +0.000 C 
ATOM     14  C   UNL     1      -1.372  10.389  19.445  0.00  0.00    +0.000 C 
ENDROOT
BRANCH   1  17
ATOM     15  N   UNL     1       2.281   6.992  19.526  0.00  0.00    +0.000 N 
ATOM     16  C   UNL     1       1.570   7.778  20.461  0.00  0.00    +0.000 A 
ATOM     17  C   UNL     1       1.263   9.089  20.215  0.00  0.00    +0.000 A 
ATOM     18  C   UNL     1       1.633   9.606  18.894  0.00  0.00    +0.000 A 
ATOM     19  C   UNL     1       2.276   8.878  17.985  0.00  0.00    +0.000 A 
ATOM     20  C   UNL     1       2.676   7.488  18.276  0.00  0.00    +0.000 A 
ATOM     21  O   UNL     1       3.275   6.891  17.389  0.00  0.00    +0.000 OA
BRANCH  15  25
ATOM     22  C   UNL     1       2.122   2.455  21.537  0.00  0.00    +0.000 C 
ATOM     23  N   UNL     1       2.538   3.635  20.813  0.00  0.00    +0.000 N 
ATOM     24  C   UNL     1       1.882   4.834  20.726  0.00  0.00    +0.000 A 
ATOM     25  C   UNL     1       2.603   5.653  19.887  0.00  0.00    +0.000 A 
ATOM     26  C   UNL     1       3.705   4.824  19.522  0.00  0.00    +0.000 A 
ATOM     27  N   UNL     1       3.665   3.611  20.089  0.00  0.00    +0.000 NA
ENDBRANCH  15  25
ENDBRANCH   1  17
BRANCH   8  28
ATOM     28  O   UNL     1       1.163  15.631  18.450  0.00  0.00    +0.000 OA
ATOM     29  H   UNL     1       1.122  16.555  18.751  0.00  0.00    +0.000 HD
ENDBRANCH   8  28
TORSDOF 3
ENDMDL
MODEL 5
REMARK VINA RESULT:      -7.3      3.188      8.568
REMARK  Name = 
REMARK  4 active torsions:
REMARK  status: ('A' for Active; 'I' for Inactive)
REMARK    1  A    between atoms: C_1  and  N_2
REMARK    2  A    between atoms: C_4  and  N_5
REMARK    3  A    between atoms: C_7  and  C_8
REMARK    4  A    between atoms: C_15  and  O_16
REMARK                            x       y       z     vdW  Elec       q    Type
REMARK                         _______ _______ _______ _____ _____    ______ ____
ROOT
ATOM      1  C   UNL     1       0.817   9.675  21.235  0.00  0.00    +0.000 C 
ATOM      2  O   UNL     1       1.254   9.818  22.383  0.00  0.00    +0.000 OA
ATOM      3  N   UNL     1      -0.263  10.425  20.820  0.00  0.00    +0.000 N 
ATOM      4  C   UNL     1      -0.787  11.577  21.613  0.00  0.00    +0.000 C 
ATOM      5  C   UNL     1      -0.586  12.831  20.776  0.00  0.00    +0.000 A 
ATOM      6  C   UNL     1      -0.054  14.001  21.335  0.00  0.00    +0.000 A 
ATOM      7  C   UNL     1       0.732  14.816  20.534  0.00  0.00    +0.000 A 
ATOM      8  C   UNL     1       0.934  14.452  19.203  0.00  0.00    +0.000 A 
ATOM      9  C   UNL     1       0.213  13.411  18.611  0.00  0.00    +0.000 A 
ATOM     10  C   UNL     1      -0.641  12.617  19.378  0.00  0.00    +0.000 A 
ATOM     11  C   UNL     1      -1.398  11.375  18.892  0.00  0.00    +0.000 C 
ATOM     12  C   UNL     1      -2.869  11.538  18.512  0.00  0.00    +0.000 C 
ATOM     13  C   UNL     1      -1.855  11.212  17.459  0.00  0.00    +0.000 C 
ATOM     14  C   UNL     1      -1.088  10.115  19.679  0.00  0.00    +0.000 C 
ENDROOT
BRANCH   1  17
ATOM     15  N   UNL     1       2.271   6.386  19.686  0.00  0.00    +0.000 N 
ATOM     16  C   UNL     1       1.702   7.259  20.641  0.00  0.00    +0.000 A 
ATOM     17  C   UNL     1       1.440   8.571  20.353  0.00  0.00    +0.000 A 
ATOM     18  C   UNL     1       1.700   8.998  18.975  0.00  0.00    +0.000 A 
ATOM     19  C   UNL     1       2.207   8.188  18.048  0.00  0.00    +0.000 A 
ATOM     20  C   UNL     1       2.561   6.794  18.376  0.00  0.00    +0.000 A 
ATOM     21  O   UNL     1       3.034   6.120  17.470  0.00  0.00    +0.000 OA
BRANCH  15  25
ATOM     22  C   UNL     1       4.487   1.980  20.251  0.00  0.00    +0.000 C 
ATOM     23  N   UNL     1       3.544   3.074  20.314  0.00  0.00    +0.000 N 
ATOM     24  C   UNL     1       3.651   4.301  19.716  0.00  0.00    +0.000 A 
ATOM     25  C   UNL     1       2.558   5.052  20.088  0.00  0.00    +0.000 A 
ATOM     26  C   UNL     1       1.840   4.151  20.928  0.00  0.00    +0.000 A 
ATOM     27  N   UNL     1       2.433   2.956  21.055  0.00  0.00    +0.000 NA
ENDBRANCH  15  25
ENDBRANCH   1  17
BRANCH   8  28
ATOM     28  O   UNL     1       1.902  15.061  18.457  0.00  0.00    +0.000 OA
ATOM     29  H   UNL     1       2.685  14.484  18.442  0.00  0.00    +0.000 HD
ENDBRANCH   8  28
TORSDOF 3
ENDMDL
MODEL 6
REMARK VINA RESULT:      -7.2      2.445      8.212
REMARK  Name = 
REMARK  4 active torsions:
REMARK  status: ('A' for Active; 'I' for Inactive)
REMARK    1  A    between atoms: C_1  and  N_2
REMARK    2  A    between atoms: C_4  and  N_5
REMARK    3  A    between atoms: C_7  and  C_8
REMARK    4  A    between atoms: C_15  and  O_16
REMARK                            x       y       z     vdW  Elec       q    Type
REMARK                         _______ _______ _______ _____ _____    ______ ____
ROOT
ATOM      1  C   UNL     1       1.406   8.699  21.232  0.00  0.00    +0.000 C 
ATOM      2  O   UNL     1       1.915   8.883  22.344  0.00  0.00    +0.000 OA
ATOM      3  N   UNL     1       0.432   9.563  20.778  0.00  0.00    +0.000 N 
ATOM      4  C   UNL     1       0.126  10.852  21.465  0.00  0.00    +0.000 C 
ATOM      5  C   UNL     1       0.472  11.974  20.497  0.00  0.00    +0.000 A 
ATOM      6  C   UNL     1       1.199  13.096  20.915  0.00  0.00    +0.000 A 
ATOM      7  C   UNL     1       2.060  13.699  20.009  0.00  0.00    +0.000 A 
ATOM      8  C   UNL     1       2.140  13.182  18.717  0.00  0.00    +0.000 A 
ATOM      9  C   UNL     1       1.243  12.212  18.259  0.00  0.00    +0.000 A 
ATOM     10  C   UNL     1       0.319  11.637  19.131  0.00  0.00    +0.000 A 
ATOM     11  C   UNL     1      -0.639  10.485  18.800  0.00  0.00    +0.000 C 
ATOM     12  C   UNL     1      -2.085  10.836  18.454  0.00  0.00    +0.000 C 
ATOM     13  C   UNL     1      -1.184  10.258  17.408  0.00  0.00    +0.000 C 
ATOM     14  C   UNL     1      -0.484   9.274  19.703  0.00  0.00    +0.000 C 
ENDROOT
BRANCH   1  17
ATOM     15  N   UNL     1       2.941   6.029  18.814  0.00  0.00    +0.000 N 
ATOM     16  C   UNL     1       2.683   7.288  19.401  0.00  0.00    +0.000 A 
ATOM     17  C   UNL     1       1.813   7.432  20.448  0.00  0.00    +0.000 A 
ATOM     18  C   UNL     1       1.231   6.198  20.983  0.00  0.00    +0.000 A 
ATOM     19  C   UNL     1       1.480   4.997  20.467  0.00  0.00    +0.000 A 
ATOM     20  C   UNL     1       2.358   4.846  19.291  0.00  0.00    +0.000 A 
ATOM     21  O   UNL     1       2.525   3.708  18.872  0.00  0.00    +0.000 OA
BRANCH  15  25
ATOM     22  C   UNL     1       5.787   4.388  15.092  0.00  0.00    +0.000 C 
ATOM     23  N   UNL     1       5.112   5.235  16.049  0.00  0.00    +0.000 N 
ATOM     24  C   UNL     1       4.290   4.846  17.072  0.00  0.00    +0.000 A 
ATOM     25  C   UNL     1       3.820   5.980  17.696  0.00  0.00    +0.000 A 
ATOM     26  C   UNL     1       4.444   7.021  16.947  0.00  0.00    +0.000 A 
ATOM     27  N   UNL     1       5.229   6.568  15.961  0.00  0.00    +0.000 NA
ENDBRANCH  15  25
ENDBRANCH   1  17
BRANCH   8  28
ATOM     28  O   UNL     1       3.151  13.559  17.881  0.00  0.00    +0.000 OA
ATOM     29  H   UNL     1       3.665  12.768  17.645  0.00  0.00    +0.000 HD
ENDBRANCH   8  28
TORSDOF 3
ENDMDL
MODEL 7
REMARK VINA RESULT:      -7.1      2.676      8.729
REMARK  Name = 
REMARK  4 active torsions:
REMARK  status: ('A' for Active; 'I' for Inactive)
REMARK    1  A    between atoms: C_1  and  N_2
REMARK    2  A    between atoms: C_4  and  N_5
REMARK    3  A    between atoms: C_7  and  C_8
REMARK    4  A    between atoms: C_15  and  O_16
REMARK                            x       y       z     vdW  Elec       q    Type
REMARK                         _______ _______ _______ _____ _____    ______ ____
ROOT
ATOM      1  C   UNL     1       0.828   9.192  21.129  0.00  0.00    +0.000 C 
ATOM      2  O   UNL     1       1.122   8.984  22.312  0.00  0.00    +0.000 OA
ATOM      3  N   UNL     1      -0.284   9.949  20.827  0.00  0.00    +0.000 N 
ATOM      4  C   UNL     1      -1.021  10.732  21.862  0.00  0.00    +0.000 C 
ATOM      5  C   UNL     1      -0.884  12.203  21.499  0.00  0.00    +0.000 A 
ATOM      6  C   UNL     1      -0.557  13.163  22.466  0.00  0.00    +0.000 A 
ATOM      7  C   UNL     1       0.207  14.255  22.079  0.00  0.00    +0.000 A 
ATOM      8  C   UNL     1       0.589  14.364  20.743  0.00  0.00    +0.000 A 
ATOM      9  C   UNL     1       0.063  13.521  19.759  0.00  0.00    +0.000 A 
ATOM     10  C   UNL     1      -0.766  12.455  20.111  0.00  0.00    +0.000 A 
ATOM     11  C   UNL     1      -1.314  11.386  19.159  0.00  0.00    +0.000 C 
ATOM     12  C   UNL     1      -2.746  11.548  18.650  0.00  0.00    +0.000 C 
ATOM     13  C   UNL     1      -1.596  11.666  17.700  0.00  0.00    +0.000 C 
ATOM     14  C   UNL     1      -0.941   9.965  19.544  0.00  0.00    +0.000 C 
ENDROOT
BRANCH   1  17
ATOM     15  N   UNL     1       2.956   6.761  18.917  0.00  0.00    +0.000 N 
ATOM     16  C   UNL     1       2.223   7.240  20.026  0.00  0.00    +0.000 A 
ATOM     17  C   UNL     1       1.667   8.490  20.039  0.00  0.00    +0.000 A 
ATOM     18  C   UNL     1       1.799   9.272  18.806  0.00  0.00    +0.000 A 
ATOM     19  C   UNL     1       2.458   8.833  17.736  0.00  0.00    +0.000 A 
ATOM     20  C   UNL     1       3.124   7.516  17.747  0.00  0.00    +0.000 A 
ATOM     21  O   UNL     1       3.720   7.194  16.727  0.00  0.00    +0.000 OA
BRANCH  15  25
ATOM     22  C   UNL     1       3.618   1.841  18.876  0.00  0.00    +0.000 C 
ATOM     23  N   UNL     1       3.825   3.265  19.016  0.00  0.00    +0.000 N 
ATOM     24  C   UNL     1       2.906   4.263  18.831  0.00  0.00    +0.000 A 
ATOM     25  C   UNL     1       3.544   5.469  19.011  0.00  0.00    +0.000 A 
ATOM     26  C   UNL     1       4.878   5.066  19.314  0.00  0.00    +0.000 A 
ATOM     27  N   UNL     1       5.041   3.736  19.324  0.00  0.00    +0.000 NA
ENDBRANCH  15  25
ENDBRANCH   1  17
BRANCH   8  28
ATOM     28  O   UNL     1       1.551  15.258  20.368  0.00  0.00    +0.000 OA
ATOM     29  H   UNL     1       1.465  15.415  19.412  0.00  0.00    +0.000 HD
ENDBRANCH   8  28
TORSDOF 3
ENDMDL
MODEL 8
REMARK VINA RESULT:      -6.9      2.725      7.747
REMARK  Name = 
REMARK  4 active torsions:
REMARK  status: ('A' for Active; 'I' for Inactive)
REMARK    1  A    between atoms: C_1  and  N_2
REMARK    2  A    between atoms: C_4  and  N_5
REMARK    3  A    between atoms: C_7  and  C_8
REMARK    4  A    between atoms: C_15  and  O_16
REMARK                            x       y       z     vdW  Elec       q    Type
REMARK                         _______ _______ _______ _____ _____    ______ ____
ROOT
ATOM      1  C   UNL     1       2.388   9.565  18.034  0.00  0.00    +0.000 C 
ATOM      2  O   UNL     1       2.835  10.334  17.175  0.00  0.00    +0.000 OA
ATOM      3  N   UNL     1       1.613  10.066  19.059  0.00  0.00    +0.000 N 
ATOM      4  C   UNL     1       1.089  11.464  19.053  0.00  0.00    +0.000 C 
ATOM      5  C   UNL     1      -0.429  11.377  18.993  0.00  0.00    +0.000 A 
ATOM      6  C   UNL     1      -1.169  12.177  18.112  0.00  0.00    +0.000 A 
ATOM      7  C   UNL     1      -2.338  11.658  17.573  0.00  0.00    +0.000 A 
ATOM      8  C   UNL     1      -2.739  10.379  17.955  0.00  0.00    +0.000 A 
ATOM      9  C   UNL     1      -2.113   9.695  19.001  0.00  0.00    +0.000 A 
ATOM     10  C   UNL     1      -0.975  10.226  19.610  0.00  0.00    +0.000 A 
ATOM     11  C   UNL     1      -0.119   9.537  20.680  0.00  0.00    +0.000 C 
ATOM     12  C   UNL     1      -0.349   9.927  22.139  0.00  0.00    +0.000 C 
ATOM     13  C   UNL     1      -0.697   8.549  21.669  0.00  0.00    +0.000 C 
ATOM     14  C   UNL     1       1.340   9.375  20.294  0.00  0.00    +0.000 C 
ENDROOT
BRANCH   1  17
ATOM     15  N   UNL     1       2.784   5.685  18.372  0.00  0.00    +0.000 N 
ATOM     16  C   UNL     1       2.247   6.979  18.551  0.00  0.00    +0.000 A 
ATOM     17  C   UNL     1       2.818   8.083  17.977  0.00  0.00    +0.000 A 
ATOM     18  C   UNL     1       3.963   7.838  17.096  0.00  0.00    +0.000 A 
ATOM     19  C   UNL     1       4.470   6.625  16.886  0.00  0.00    +0.000 A 
ATOM     20  C   UNL     1       3.904   5.442  17.564  0.00  0.00    +0.000 A 
ATOM     21  O   UNL     1       4.437   4.366  17.326  0.00  0.00    +0.000 OA
BRANCH  15  25
ATOM     22  C   UNL     1       1.386   2.458  21.877  0.00  0.00    +0.000 C 
ATOM     23  N   UNL     1       1.558   3.146  20.617  0.00  0.00    +0.000 N 
ATOM     24  C   UNL     1       2.336   4.244  20.367  0.00  0.00    +0.000 A 
ATOM     25  C   UNL     1       2.157   4.601  19.049  0.00  0.00    +0.000 A 
ATOM     26  C   UNL     1       1.230   3.620  18.590  0.00  0.00    +0.000 A 
ATOM     27  N   UNL     1       0.878   2.739  19.536  0.00  0.00    +0.000 NA
ENDBRANCH  15  25
ENDBRANCH   1  17
BRANCH   8  28
ATOM     28  O   UNL     1      -3.718   9.724  17.263  0.00  0.00    +0.000 OA
ATOM     29  H   UNL     1      -3.385   8.843  17.023  0.00  0.00    +0.000 HD
ENDBRANCH   8  28
TORSDOF 3
ENDMDL
MODEL 9
REMARK VINA RESULT:      -6.8      7.237     10.456
REMARK  Name = 
REMARK  4 active torsions:
REMARK  status: ('A' for Active; 'I' for Inactive)
REMARK    1  A    between atoms: C_1  and  N_2
REMARK    2  A    between atoms: C_4  and  N_5
REMARK    3  A    between atoms: C_7  and  C_8
REMARK    4  A    between atoms: C_15  and  O_16
REMARK                            x       y       z     vdW  Elec       q    Type
REMARK                         _______ _______ _______ _____ _____    ______ ____
ROOT
ATOM      1  C   UNL     1       0.806  14.414  21.546  0.00  0.00    +0.000 C 
ATOM      2  O   UNL     1       0.725  14.978  22.644  0.00  0.00    +0.000 OA
ATOM      3  N   UNL     1       0.329  13.128  21.405  0.00  0.00    +0.000 N 
ATOM      4  C   UNL     1      -0.498  12.464  22.455  0.00  0.00    +0.000 C 
ATOM      5  C   UNL     1      -1.871  12.206  21.853  0.00  0.00    +0.000 A 
ATOM      6  C   UNL     1      -3.043  12.507  22.560  0.00  0.00    +0.000 A 
ATOM      7  C   UNL     1      -4.155  12.926  21.844  0.00  0.00    +0.000 A 
ATOM      8  C   UNL     1      -4.068  12.999  20.455  0.00  0.00    +0.000 A 
ATOM      9  C   UNL     1      -2.972  12.479  19.761  0.00  0.00    +0.000 A 
ATOM     10  C   UNL     1      -1.866  11.986  20.455  0.00  0.00    +0.000 A 
ATOM     11  C   UNL     1      -0.552  11.499  19.831  0.00  0.00    +0.000 C 
ATOM     12  C   UNL     1      -0.359   9.994  19.656  0.00  0.00    +0.000 C 
ATOM     13  C   UNL     1      -0.490  10.877  18.454  0.00  0.00    +0.000 C 
ATOM     14  C   UNL     1       0.678  12.238  20.326  0.00  0.00    +0.000 C 
ENDROOT
BRANCH   1  17
ATOM     15  N   UNL     1       3.352  15.805  18.917  0.00  0.00    +0.000 N 
ATOM     16  C   UNL     1       2.853  15.054  20.005  0.00  0.00    +0.000 A 
ATOM     17  C   UNL     1       1.548  15.147  20.407  0.00  0.00    +0.000 A 
ATOM     18  C   UNL     1       0.676  15.999  19.593  0.00  0.00    +0.000 A 
ATOM     19  C   UNL     1       1.115  16.694  18.545  0.00  0.00    +0.000 A 
ATOM     20  C   UNL     1       2.537  16.655  18.155  0.00  0.00    +0.000 A 
ATOM     21  O   UNL     1       2.860  17.332  17.188  0.00  0.00    +0.000 OA
BRANCH  15  25
ATOM     22  C   UNL     1       8.228  16.677  18.577  0.00  0.00    +0.000 C 
ATOM     23  N   UNL     1       6.911  16.099  18.431  0.00  0.00    +0.000 N 
ATOM     24  C   UNL     1       5.729  16.582  18.925  0.00  0.00    +0.000 A 
ATOM     25  C   UNL     1       4.735  15.687  18.602  0.00  0.00    +0.000 A 
ATOM     26  C   UNL     1       5.451  14.679  17.890  0.00  0.00    +0.000 A 
ATOM     27  N   UNL     1       6.761  14.935  17.783  0.00  0.00    +0.000 NA
ENDBRANCH  15  25
ENDBRANCH   1  17
BRANCH   8  28
ATOM     28  O   UNL     1      -5.027  13.651  19.734  0.00  0.00    +0.000 OA
ATOM     29  H   UNL     1      -4.617  14.422  19.306  0.00  0.00    +0.000 HD
ENDBRANCH   8  28
TORSDOF 3
ENDMDL
