MODEL 1
REMARK VINA RESULT:      -8.2      0.000      0.000
REMARK  Name = 
REMARK  7 active torsions:
REMARK  status: ('A' for Active; 'I' for Inactive)
REMARK    1  A    between atoms: C_1  and  N_2
REMARK    2  A    between atoms: N_2  and  C_3
REMARK    3  A    between atoms: N_2  and  S_10
REMARK    4  A    between atoms: C_3  and  C_4
REMARK    5  A    between atoms: S_10  and  C_13
REMARK    6  A    between atoms: C_18  and  C_19
REMARK    7  A    between atoms: N_21  and  C_22
REMARK                            x       y       z     vdW  Elec       q    Type
REMARK                         _______ _______ _______ _____ _____    ______ ____
ROOT
ATOM      1  C   UNL     1       4.557   6.150  18.323  0.00  0.00    +0.000 A 
ATOM      2  C   UNL     1       4.297   5.380  19.451  0.00  0.00    +0.000 A 
ATOM      3  C   UNL     1       3.202   5.709  20.265  0.00  0.00    +0.000 A 
ATOM      4  C   UNL     1       2.357   6.797  19.964  0.00  0.00    +0.000 A 
ATOM      5 CL   UNL     1       1.016   7.044  21.020  0.00  0.00    +0.000 Cl
ATOM      6  C   UNL     1       2.595   7.573  18.823  0.00  0.00    +0.000 A 
ATOM      7  C   UNL     1       3.694   7.231  18.012  0.00  0.00    +0.000 A 
ENDROOT
BRANCH   6   8
ATOM      8  C   UNL     1       1.797   8.749  18.342  0.00  0.00    +0.000 C 
ATOM      9  O   UNL     1       1.918   8.994  17.133  0.00  0.00    +0.000 OA
ATOM     10  N   UNL     1       0.971   9.508  19.186  0.00  0.00    +0.000 N 
ATOM     11  H   UNL     1       0.581   9.098  20.031  0.00  0.00    +0.000 HD
BRANCH  10  12
ATOM     12  C   UNL     1       0.355  10.734  18.734  0.00  0.00    +0.000 A 
ATOM     13  C   UNL     1      -0.992  10.700  18.334  0.00  0.00    +0.000 A 
ATOM     14  C   UNL     1      -1.703  11.857  18.063  0.00  0.00    +0.000 A 
ATOM     15  C   UNL     1      -1.107  13.075  18.319  0.00  0.00    +0.000 A 
ATOM     16  C   UNL     1       0.250  13.125  18.647  0.00  0.00    +0.000 A 
ATOM     17  C   UNL     1       0.838  14.369  18.857  0.00  0.00    +0.000 A 
ATOM     18  C   UNL     1       2.169  14.522  18.546  0.00  0.00    +0.000 A 
ATOM     19  C   UNL     1       2.907  13.367  18.398  0.00  0.00    +0.000 A 
ATOM     20  N   UNL     1       2.412  12.110  18.592  0.00  0.00    +0.000 NA
ATOM     21  C   UNL     1       1.058  11.962  18.666  0.00  0.00    +0.000 A 
ENDBRANCH  10  12
ENDBRANCH   6   8
BRANCH   1  22
ATOM     22  S   UNL     1       5.873   5.685  17.202  0.00  0.00    +0.000 S 
ATOM     23  O   UNL     1       6.759   4.822  17.955  0.00  0.00    +0.000 OA
ATOM     24  O   UNL     1       6.373   6.886  16.566  0.00  0.00    +0.000 OA
BRANCH  22  26
ATOM     25  C   UNL     1       5.610   4.881  14.658  0.00  0.00    +0.000 C 
ATOM     26  N   UNL     1       5.057   4.743  16.030  0.00  0.00    +0.000 NA
BRANCH  26  27
ATOM     27  C   UNL     1       4.870   3.312  16.438  0.00  0.00    +0.000 C 
BRANCH  27  28
ATOM     28  C   UNL     1       3.617   3.092  17.283  0.00  0.00    +0.000 A 
ATOM     29  C   UNL     1       2.450   3.833  17.041  0.00  0.00    +0.000 A 
ATOM     30  C   UNL     1       1.303   3.614  17.808  0.00  0.00    +0.000 A 
ATOM     31  C   UNL     1       1.298   2.649  18.809  0.00  0.00    +0.000 A 
ATOM     32  C   UNL     1       2.458   1.909  19.062  0.00  0.00    +0.000 A 
ATOM     33  C   UNL     1       3.600   2.123  18.293  0.00  0.00    +0.000 A 
ENDBRANCH  27  28
ENDBRANCH  26  27
ENDBRANCH  22  26
ENDBRANCH   1  22
TORSDOF 6
ENDMDL
MODEL 2
REMARK VINA RESULT:      -7.8      0.957      2.325
REMARK  Name = 
REMARK  7 active torsions:
REMARK  status: ('A' for Active; 'I' for Inactive)
REMARK    1  A    between atoms: C_1  and  N_2
REMARK    2  A    between atoms: N_2  and  C_3
REMARK    3  A    between atoms: N_2  and  S_10
REMARK    4  A    between atoms: C_3  and  C_4
REMARK    5  A    between atoms: S_10  and  C_13
REMARK    6  A    between atoms: C_18  and  C_19
REMARK    7  A    between atoms: N_21  and  C_22
REMARK                            x       y       z     vdW  Elec       q    Type
REMARK                         _______ _______ _______ _____ _____    ______ ____
ROOT
ATOM      1  C   UNL     1       4.548   6.170  18.229  0.00  0.00    +0.000 A 
ATOM      2  C   UNL     1       4.374   5.360  19.346  0.00  0.00    +0.000 A 
ATOM      3  C   UNL     1       3.312   5.625  20.224  0.00  0.00    +0.000 A 
ATOM      4  C   UNL     1       2.415   6.689  19.998  0.00  0.00    +0.000 A 
ATOM      5 CL   UNL     1       1.122   6.857  21.128  0.00  0.00    +0.000 Cl
ATOM      6  C   UNL     1       2.565   7.505  18.870  0.00  0.00    +0.000 A 
ATOM      7  C   UNL     1       3.632   7.227  17.995  0.00  0.00    +0.000 A 
ENDROOT
BRANCH   6   8
ATOM      8  C   UNL     1       1.702   8.663  18.466  0.00  0.00    +0.000 C 
ATOM      9  O   UNL     1       1.822   9.005  17.280  0.00  0.00    +0.000 OA
ATOM     10  N   UNL     1       0.823   9.307  19.350  0.00  0.00    +0.000 N 
ATOM     11  H   UNL     1       0.449   8.811  20.156  0.00  0.00    +0.000 HD
BRANCH  10  12
ATOM     12  C   UNL     1       0.138  10.523  18.982  0.00  0.00    +0.000 A 
ATOM     13  C   UNL     1       0.722  11.754  19.329  0.00  0.00    +0.000 A 
ATOM     14  C   UNL     1       0.226  12.958  18.857  0.00  0.00    +0.000 A 
ATOM     15  C   UNL     1      -0.788  12.933  17.921  0.00  0.00    +0.000 A 
ATOM     16  C   UNL     1      -1.425  11.726  17.622  0.00  0.00    +0.000 A 
ATOM     17  C   UNL     1      -2.473  11.736  16.708  0.00  0.00    +0.000 A 
ATOM     18  C   UNL     1      -3.480  10.810  16.859  0.00  0.00    +0.000 A 
ATOM     19  C   UNL     1      -3.207   9.726  17.666  0.00  0.00    +0.000 A 
ATOM     20  N   UNL     1      -2.002   9.499  18.264  0.00  0.00    +0.000 NA
ATOM     21  C   UNL     1      -1.104  10.524  18.299  0.00  0.00    +0.000 A 
ENDBRANCH  10  12
ENDBRANCH   6   8
BRANCH   1  22
ATOM     22  S   UNL     1       5.820   5.785  17.029  0.00  0.00    +0.000 S 
ATOM     23  O   UNL     1       6.845   5.056  17.747  0.00  0.00    +0.000 OA
ATOM     24  O   UNL     1       6.142   6.997  16.305  0.00  0.00    +0.000 OA
BRANCH  22  26
ATOM     25  C   UNL     1       5.536   4.751  14.573  0.00  0.00    +0.000 C 
ATOM     26  N   UNL     1       5.024   4.706  15.966  0.00  0.00    +0.000 NA
BRANCH  26  27
ATOM     27  C   UNL     1       4.919   3.309  16.501  0.00  0.00    +0.000 C 
BRANCH  27  28
ATOM     28  C   UNL     1       3.632   3.065  17.285  0.00  0.00    +0.000 A 
ATOM     29  C   UNL     1       2.490   3.847  17.048  0.00  0.00    +0.000 A 
ATOM     30  C   UNL     1       1.310   3.607  17.758  0.00  0.00    +0.000 A 
ATOM     31  C   UNL     1       1.248   2.581  18.695  0.00  0.00    +0.000 A 
ATOM     32  C   UNL     1       2.382   1.800  18.942  0.00  0.00    +0.000 A 
ATOM     33  C   UNL     1       3.557   2.035  18.230  0.00  0.00    +0.000 A 
ENDBRANCH  27  28
ENDBRANCH  26  27
ENDBRANCH  22  26
ENDBRANCH   1  22
TORSDOF 6
ENDMDL
MODEL 3
REMARK VINA RESULT:      -7.8      2.326      4.214
REMARK  Name = 
REMARK  7 active torsions:
REMARK  status: ('A' for Active; 'I' for Inactive)
REMARK    1  A    between atoms: C_1  and  N_2
REMARK    2  A    between atoms: N_2  and  C_3
REMARK    3  A    between atoms: N_2  and  S_10
REMARK    4  A    between atoms: C_3  and  C_4
REMARK    5  A    between atoms: S_10  and  C_13
REMARK    6  A    between atoms: C_18  and  C_19
REMARK    7  A    between atoms: N_21  and  C_22
REMARK                            x       y       z     vdW  Elec       q    Type
REMARK                         _______ _______ _______ _____ _____    ______ ____
ROOT
ATOM      1  C   UNL     1       4.714   4.845  18.987  0.00  0.00    +0.000 A 
ATOM      2  C   UNL     1       4.675   3.499  19.330  0.00  0.00    +0.000 A 
ATOM      3  C   UNL     1       3.632   3.031  20.143  0.00  0.00    +0.000 A 
ATOM      4  C   UNL     1       2.620   3.891  20.614  0.00  0.00    +0.000 A 
ATOM      5 CL   UNL     1       1.368   3.163  21.553  0.00  0.00    +0.000 Cl
ATOM      6  C   UNL     1       2.633   5.246  20.264  0.00  0.00    +0.000 A 
ATOM      7  C   UNL     1       3.683   5.704  19.446  0.00  0.00    +0.000 A 
ENDROOT
BRANCH   6   8
ATOM      8  C   UNL     1       1.637   6.296  20.659  0.00  0.00    +0.000 C 
ATOM      9  O   UNL     1       0.453   5.940  20.575  0.00  0.00    +0.000 OA
ATOM     10  N   UNL     1       2.009   7.577  21.099  0.00  0.00    +0.000 N 
ATOM     11  H   UNL     1       2.920   7.731  21.525  0.00  0.00    +0.000 HD
BRANCH  10  12
ATOM     12  C   UNL     1       1.030   8.618  21.304  0.00  0.00    +0.000 A 
ATOM     13  C   UNL     1       0.395   8.705  22.556  0.00  0.00    +0.000 A 
ATOM     14  C   UNL     1      -0.416   9.776  22.891  0.00  0.00    +0.000 A 
ATOM     15  C   UNL     1      -0.495  10.844  22.020  0.00  0.00    +0.000 A 
ATOM     16  C   UNL     1       0.071  10.740  20.747  0.00  0.00    +0.000 A 
ATOM     17  C   UNL     1      -0.061  11.815  19.872  0.00  0.00    +0.000 A 
ATOM     18  C   UNL     1      -0.119  11.554  18.522  0.00  0.00    +0.000 A 
ATOM     19  C   UNL     1       0.316  10.311  18.114  0.00  0.00    +0.000 A 
ATOM     20  N   UNL     1       0.839   9.367  18.949  0.00  0.00    +0.000 NA
ATOM     21  C   UNL     1       0.675   9.543  20.291  0.00  0.00    +0.000 A 
ENDBRANCH  10  12
ENDBRANCH   6   8
BRANCH   1  22
ATOM     22  S   UNL     1       5.964   5.449  17.856  0.00  0.00    +0.000 S 
ATOM     23  O   UNL     1       7.136   4.626  18.072  0.00  0.00    +0.000 OA
ATOM     24  O   UNL     1       6.037   6.889  17.986  0.00  0.00    +0.000 OA
BRANCH  22  26
ATOM     25  C   UNL     1       5.246   6.226  15.393  0.00  0.00    +0.000 C 
ATOM     26  N   UNL     1       5.304   5.069  16.323  0.00  0.00    +0.000 NA
BRANCH  26  27
ATOM     27  C   UNL     1       5.911   3.850  15.696  0.00  0.00    +0.000 C 
BRANCH  27  28
ATOM     28  C   UNL     1       6.378   4.086  14.261  0.00  0.00    +0.000 A 
ATOM     29  C   UNL     1       7.465   4.933  13.992  0.00  0.00    +0.000 A 
ATOM     30  C   UNL     1       7.897   5.132  12.678  0.00  0.00    +0.000 A 
ATOM     31  C   UNL     1       7.267   4.481  11.624  0.00  0.00    +0.000 A 
ATOM     32  C   UNL     1       6.179   3.639  11.881  0.00  0.00    +0.000 A 
ATOM     33  C   UNL     1       5.752   3.437  13.192  0.00  0.00    +0.000 A 
ENDBRANCH  27  28
ENDBRANCH  26  27
ENDBRANCH  22  26
ENDBRANCH   1  22
TORSDOF 6
ENDMDL
MODEL 4
REMARK VINA RESULT:      -7.7      3.961      9.613
REMARK  Name = 
REMARK  7 active torsions:
REMARK  status: ('A' for Active; 'I' for Inactive)
REMARK    1  A    between atoms: C_1  and  N_2
REMARK    2  A    between atoms: N_2  and  C_3
REMARK    3  A    between atoms: N_2  and  S_10
REMARK    4  A    between atoms: C_3  and  C_4
REMARK    5  A    between atoms: S_10  and  C_13
REMARK    6  A    between atoms: C_18  and  C_19
REMARK    7  A    between atoms: N_21  and  C_22
REMARK                            x       y       z     vdW  Elec       q    Type
REMARK                         _______ _______ _______ _____ _____    ______ ____
ROOT
ATOM      1  C   UNL     1      -0.642  11.203  19.756  0.00  0.00    +0.000 A 
ATOM      2  C   UNL     1      -0.667  11.072  21.140  0.00  0.00    +0.000 A 
ATOM      3  C   UNL     1       0.120  10.083  21.748  0.00  0.00    +0.000 A 
ATOM      4  C   UNL     1       0.941   9.223  20.991  0.00  0.00    +0.000 A 
ATOM      5 CL   UNL     1       1.900   8.097  21.878  0.00  0.00    +0.000 Cl
ATOM      6  C   UNL     1       0.992   9.351  19.597  0.00  0.00    +0.000 A 
ATOM      7  C   UNL     1       0.200  10.350  18.999  0.00  0.00    +0.000 A 
ENDROOT
BRANCH   6   8
ATOM      8  C   UNL     1       1.814   8.539  18.640  0.00  0.00    +0.000 C 
ATOM      9  O   UNL     1       1.766   8.926  17.464  0.00  0.00    +0.000 OA
ATOM     10  N   UNL     1       2.585   7.436  19.040  0.00  0.00    +0.000 N 
ATOM     11  H   UNL     1       2.925   7.364  19.996  0.00  0.00    +0.000 HD
BRANCH  10  12
ATOM     12  C   UNL     1       3.224   6.573  18.074  0.00  0.00    +0.000 A 
ATOM     13  C   UNL     1       4.178   7.129  17.204  0.00  0.00    +0.000 A 
ATOM     14  C   UNL     1       4.962   6.340  16.379  0.00  0.00    +0.000 A 
ATOM     15  C   UNL     1       4.890   4.969  16.512  0.00  0.00    +0.000 A 
ATOM     16  C   UNL     1       3.899   4.403  17.318  0.00  0.00    +0.000 A 
ATOM     17  C   UNL     1       3.820   3.016  17.401  0.00  0.00    +0.000 A 
ATOM     18  C   UNL     1       2.586   2.444  17.606  0.00  0.00    +0.000 A 
ATOM     19  C   UNL     1       1.589   3.274  18.073  0.00  0.00    +0.000 A 
ATOM     20  N   UNL     1       1.770   4.590  18.385  0.00  0.00    +0.000 NA
ATOM     21  C   UNL     1       2.916   5.194  17.961  0.00  0.00    +0.000 A 
ENDBRANCH  10  12
ENDBRANCH   6   8
BRANCH   1  22
ATOM     22  S   UNL     1      -1.543  12.531  18.962  0.00  0.00    +0.000 S 
ATOM     23  O   UNL     1      -2.572  11.899  18.163  0.00  0.00    +0.000 OA
ATOM     24  O   UNL     1      -0.583  13.431  18.356  0.00  0.00    +0.000 OA
BRANCH  22  26
ATOM     25  C   UNL     1      -1.930  14.766  20.389  0.00  0.00    +0.000 C 
ATOM     26  N   UNL     1      -2.285  13.328  20.281  0.00  0.00    +0.000 NA
BRANCH  26  27
ATOM     27  C   UNL     1      -3.762  13.087  20.371  0.00  0.00    +0.000 C 
BRANCH  27  28
ATOM     28  C   UNL     1      -4.251  12.898  21.805  0.00  0.00    +0.000 A 
ATOM     29  C   UNL     1      -3.355  12.541  22.825  0.00  0.00    +0.000 A 
ATOM     30  C   UNL     1      -3.806  12.387  24.139  0.00  0.00    +0.000 A 
ATOM     31  C   UNL     1      -5.144  12.601  24.455  0.00  0.00    +0.000 A 
ATOM     32  C   UNL     1      -6.045  12.953  23.444  0.00  0.00    +0.000 A 
ATOM     33  C   UNL     1      -5.594  13.112  22.135  0.00  0.00    +0.000 A 
ENDBRANCH  27  28
ENDBRANCH  26  27
ENDBRANCH  22  26
ENDBRANCH   1  22
TORSDOF 6
ENDMDL
MODEL 5
REMARK VINA RESULT:      -7.6      1.390      1.586
REMARK  Name = 
REMARK  7 active torsions:
REMARK  status: ('A' for Active; 'I' for Inactive)
REMARK    1  A    between atoms: C_1  and  N_2
REMARK    2  A    between atoms: N_2  and  C_3
REMARK    3  A    between atoms: N_2  and  S_10
REMARK    4  A    between atoms: C_3  and  C_4
REMARK    5  A    between atoms: S_10  and  C_13
REMARK    6  A    between atoms: C_18  and  C_19
REMARK    7  A    between atoms: N_21  and  C_22
REMARK                            x       y       z     vdW  Elec       q    Type
REMARK                         _______ _______ _______ _____ _____    ______ ____
ROOT
ATOM      1  C   UNL     1       4.387   6.536  17.678  0.00  0.00    +0.000 A 
ATOM      2  C   UNL     1       4.413   5.819  18.869  0.00  0.00    +0.000 A 
ATOM      3  C   UNL     1       3.474   6.118  19.868  0.00  0.00    +0.000 A 
ATOM      4  C   UNL     1       2.502   7.123  19.691  0.00  0.00    +0.000 A 
ATOM      5 CL   UNL     1       1.375   7.338  20.980  0.00  0.00    +0.000 Cl
ATOM      6  C   UNL     1       2.449   7.843  18.491  0.00  0.00    +0.000 A 
ATOM      7  C   UNL     1       3.394   7.532  17.495  0.00  0.00    +0.000 A 
ENDROOT
BRANCH   6   8
ATOM      8  C   UNL     1       1.481   8.929  18.126  0.00  0.00    +0.000 C 
ATOM      9  O   UNL     1       1.960   9.831  17.424  0.00  0.00    +0.000 OA
ATOM     10  N   UNL     1       0.138   8.925  18.534  0.00  0.00    +0.000 N 
ATOM     11  H   UNL     1      -0.331   8.049  18.755  0.00  0.00    +0.000 HD
BRANCH  10  12
ATOM     12  C   UNL     1      -0.721  10.065  18.315  0.00  0.00    +0.000 A 
ATOM     13  C   UNL     1      -1.576  10.056  17.199  0.00  0.00    +0.000 A 
ATOM     14  C   UNL     1      -2.553  11.021  17.019  0.00  0.00    +0.000 A 
ATOM     15  C   UNL     1      -2.772  11.936  18.028  0.00  0.00    +0.000 A 
ATOM     16  C   UNL     1      -1.886  12.002  19.106  0.00  0.00    +0.000 A 
ATOM     17  C   UNL     1      -2.104  12.963  20.088  0.00  0.00    +0.000 A 
ATOM     18  C   UNL     1      -1.013  13.480  20.749  0.00  0.00    +0.000 A 
ATOM     19  C   UNL     1       0.162  12.766  20.657  0.00  0.00    +0.000 A 
ATOM     20  N   UNL     1       0.285  11.573  20.005  0.00  0.00    +0.000 NA
ATOM     21  C   UNL     1      -0.724  11.195  19.170  0.00  0.00    +0.000 A 
ENDBRANCH  10  12
ENDBRANCH   6   8
BRANCH   1  22
ATOM     22  S   UNL     1       5.493   6.097  16.341  0.00  0.00    +0.000 S 
ATOM     23  O   UNL     1       6.786   5.856  16.948  0.00  0.00    +0.000 OA
ATOM     24  O   UNL     1       5.342   7.079  15.287  0.00  0.00    +0.000 OA
BRANCH  22  26
ATOM     25  C   UNL     1       5.316   4.219  14.437  0.00  0.00    +0.000 C 
ATOM     26  N   UNL     1       4.858   4.605  15.796  0.00  0.00    +0.000 NA
BRANCH  26  27
ATOM     27  C   UNL     1       5.000   3.495  16.793  0.00  0.00    +0.000 C 
BRANCH  27  28
ATOM     28  C   UNL     1       3.690   3.154  17.499  0.00  0.00    +0.000 A 
ATOM     29  C   UNL     1       2.498   3.811  17.152  0.00  0.00    +0.000 A 
ATOM     30  C   UNL     1       1.299   3.483  17.791  0.00  0.00    +0.000 A 
ATOM     31  C   UNL     1       1.269   2.491  18.766  0.00  0.00    +0.000 A 
ATOM     32  C   UNL     1       2.452   1.834  19.122  0.00  0.00    +0.000 A 
ATOM     33  C   UNL     1       3.646   2.158  18.480  0.00  0.00    +0.000 A 
ENDBRANCH  27  28
ENDBRANCH  26  27
ENDBRANCH  22  26
ENDBRANCH   1  22
TORSDOF 6
ENDMDL
MODEL 6
REMARK VINA RESULT:      -7.5      1.764      3.409
REMARK  Name = 
REMARK  7 active torsions:
REMARK  status: ('A' for Active; 'I' for Inactive)
REMARK    1  A    between atoms: C_1  and  N_2
REMARK    2  A    between atoms: N_2  and  C_3
REMARK    3  A    between atoms: N_2  and  S_10
REMARK    4  A    between atoms: C_3  and  C_4
REMARK    5  A    between atoms: S_10  and  C_13
REMARK    6  A    between atoms: C_18  and  C_19
REMARK    7  A    between atoms: N_21  and  C_22
REMARK                            x       y       z     vdW  Elec       q    Type
REMARK                         _______ _______ _______ _____ _____    ______ ____
ROOT
ATOM      1  C   UNL     1       4.625   6.390  17.768  0.00  0.00    +0.000 A 
ATOM      2  C   UNL     1       4.480   5.126  18.328  0.00  0.00    +0.000 A 
ATOM      3  C   UNL     1       3.411   4.885  19.205  0.00  0.00    +0.000 A 
ATOM      4  C   UNL     1       2.479   5.892  19.527  0.00  0.00    +0.000 A 
ATOM      5 CL   UNL     1       1.183   5.434  20.570  0.00  0.00    +0.000 Cl
ATOM      6  C   UNL     1       2.600   7.166  18.959  0.00  0.00    +0.000 A 
ATOM      7  C   UNL     1       3.674   7.395  18.079  0.00  0.00    +0.000 A 
ENDROOT
BRANCH   6   8
ATOM      8  C   UNL     1       1.698   8.346  19.175  0.00  0.00    +0.000 C 
ATOM      9  O   UNL     1       1.344   8.514  20.351  0.00  0.00    +0.000 OA
ATOM     10  N   UNL     1       1.292   9.198  18.136  0.00  0.00    +0.000 N 
ATOM     11  H   UNL     1       1.862   9.297  17.299  0.00  0.00    +0.000 HD
BRANCH  10  12
ATOM     12  C   UNL     1       0.290  10.216  18.344  0.00  0.00    +0.000 A 
ATOM     13  C   UNL     1      -1.039   9.935  17.977  0.00  0.00    +0.000 A 
ATOM     14  C   UNL     1      -2.082  10.782  18.309  0.00  0.00    +0.000 A 
ATOM     15  C   UNL     1      -1.824  11.862  19.129  0.00  0.00    +0.000 A 
ATOM     16  C   UNL     1      -0.503  12.192  19.441  0.00  0.00    +0.000 A 
ATOM     17  C   UNL     1      -0.267  13.311  20.234  0.00  0.00    +0.000 A 
ATOM     18  C   UNL     1       0.899  14.015  20.039  0.00  0.00    +0.000 A 
ATOM     19  C   UNL     1       1.901  13.372  19.344  0.00  0.00    +0.000 A 
ATOM     20  N   UNL     1       1.821  12.086  18.896  0.00  0.00    +0.000 NA
ATOM     21  C   UNL     1       0.595  11.489  18.888  0.00  0.00    +0.000 A 
ENDBRANCH  10  12
ENDBRANCH   6   8
BRANCH   1  22
ATOM     22  S   UNL     1       5.907   6.693  16.555  0.00  0.00    +0.000 S 
ATOM     23  O   UNL     1       6.795   7.674  17.143  0.00  0.00    +0.000 OA
ATOM     24  O   UNL     1       5.272   6.941  15.277  0.00  0.00    +0.000 OA
BRANCH  22  26
ATOM     25  C   UNL     1       7.243   4.726  17.791  0.00  0.00    +0.000 C 
ATOM     26  N   UNL     1       6.722   5.191  16.480  0.00  0.00    +0.000 NA
BRANCH  26  27
ATOM     27  C   UNL     1       5.953   4.130  15.751  0.00  0.00    +0.000 C 
BRANCH  27  28
ATOM     28  C   UNL     1       6.274   4.079  14.259  0.00  0.00    +0.000 A 
ATOM     29  C   UNL     1       7.355   4.804  13.734  0.00  0.00    +0.000 A 
ATOM     30  C   UNL     1       7.652   4.740  12.370  0.00  0.00    +0.000 A 
ATOM     31  C   UNL     1       6.892   3.945  11.520  0.00  0.00    +0.000 A 
ATOM     32  C   UNL     1       5.809   3.222  12.033  0.00  0.00    +0.000 A 
ATOM     33  C   UNL     1       5.516   3.282  13.394  0.00  0.00    +0.000 A 
ENDBRANCH  27  28
ENDBRANCH  26  27
ENDBRANCH  22  26
ENDBRANCH   1  22
TORSDOF 6
ENDMDL
MODEL 7
REMARK VINA RESULT:      -7.5      3.625      8.927
REMARK  Name = 
REMARK  7 active torsions:
REMARK  status: ('A' for Active; 'I' for Inactive)
REMARK    1  A    between atoms: C_1  and  N_2
REMARK    2  A    between atoms: N_2  and  C_3
REMARK    3  A    between atoms: N_2  and  S_10
REMARK    4  A    between atoms: C_3  and  C_4
REMARK    5  A    between atoms: S_10  and  C_13
REMARK    6  A    between atoms: C_18  and  C_19
REMARK    7  A    between atoms: N_21  and  C_22
REMARK                            x       y       z     vdW  Elec       q    Type
REMARK                         _______ _______ _______ _____ _____    ______ ____
ROOT
ATOM      1  C   UNL     1      -0.050  11.734  21.328  0.00  0.00    +0.000 A 
ATOM      2  C   UNL     1       0.436  12.861  20.675  0.00  0.00    +0.000 A 
ATOM      3  C   UNL     1       1.282  12.699  19.568  0.00  0.00    +0.000 A 
ATOM      4  C   UNL     1       1.647  11.421  19.098  0.00  0.00    +0.000 A 
ATOM      5 CL   UNL     1       2.644  11.376  17.691  0.00  0.00    +0.000 Cl
ATOM      6  C   UNL     1       1.154  10.274  19.732  0.00  0.00    +0.000 A 
ATOM      7  C   UNL     1       0.303  10.450  20.840  0.00  0.00    +0.000 A 
ENDROOT
BRANCH   6   8
ATOM      8  C   UNL     1       1.423   8.846  19.362  0.00  0.00    +0.000 C 
ATOM      9  O   UNL     1       1.072   8.537  18.215  0.00  0.00    +0.000 OA
ATOM     10  N   UNL     1       2.031   7.931  20.237  0.00  0.00    +0.000 N 
ATOM     11  H   UNL     1       2.644   8.258  20.980  0.00  0.00    +0.000 HD
BRANCH  10  12
ATOM     12  C   UNL     1       2.118   6.525  19.917  0.00  0.00    +0.000 A 
ATOM     13  C   UNL     1       1.337   5.619  20.656  0.00  0.00    +0.000 A 
ATOM     14  C   UNL     1       1.225   4.287  20.295  0.00  0.00    +0.000 A 
ATOM     15  C   UNL     1       1.794   3.874  19.107  0.00  0.00    +0.000 A 
ATOM     16  C   UNL     1       2.630   4.743  18.402  0.00  0.00    +0.000 A 
ATOM     17  C   UNL     1       3.225   4.287  17.229  0.00  0.00    +0.000 A 
ATOM     18  C   UNL     1       4.458   4.792  16.885  0.00  0.00    +0.000 A 
ATOM     19  C   UNL     1       4.846   5.957  17.512  0.00  0.00    +0.000 A 
ATOM     20  N   UNL     1       4.070   6.648  18.395  0.00  0.00    +0.000 NA
ATOM     21  C   UNL     1       2.968   6.025  18.899  0.00  0.00    +0.000 A 
ENDBRANCH  10  12
ENDBRANCH   6   8
BRANCH   1  22
ATOM     22  S   UNL     1      -1.225  11.906  22.668  0.00  0.00    +0.000 S 
ATOM     23  O   UNL     1      -0.880  13.135  23.352  0.00  0.00    +0.000 OA
ATOM     24  O   UNL     1      -1.282  10.650  23.386  0.00  0.00    +0.000 OA
BRANCH  22  26
ATOM     25  C   UNL     1      -3.810  12.611  22.718  0.00  0.00    +0.000 C 
ATOM     26  N   UNL     1      -2.707  12.136  21.845  0.00  0.00    +0.000 NA
BRANCH  26  27
ATOM     27  C   UNL     1      -2.575  12.941  20.587  0.00  0.00    +0.000 C 
BRANCH  27  28
ATOM     28  C   UNL     1      -3.113  12.218  19.355  0.00  0.00    +0.000 A 
ATOM     29  C   UNL     1      -4.496  12.085  19.151  0.00  0.00    +0.000 A 
ATOM     30  C   UNL     1      -4.982  11.436  18.012  0.00  0.00    +0.000 A 
ATOM     31  C   UNL     1      -4.104  10.930  17.061  0.00  0.00    +0.000 A 
ATOM     32  C   UNL     1      -2.724  11.053  17.258  0.00  0.00    +0.000 A 
ATOM     33  C   UNL     1      -2.240  11.705  18.390  0.00  0.00    +0.000 A 
ENDBRANCH  27  28
ENDBRANCH  26  27
ENDBRANCH  22  26
ENDBRANCH   1  22
TORSDOF 6
ENDMDL
MODEL 8
REMARK VINA RESULT:      -7.5      2.132      3.974
REMARK  Name = 
REMARK  7 active torsions:
REMARK  status: ('A' for Active; 'I' for Inactive)
REMARK    1  A    between atoms: C_1  and  N_2
REMARK    2  A    between atoms: N_2  and  C_3
REMARK    3  A    between atoms: N_2  and  S_10
REMARK    4  A    between atoms: C_3  and  C_4
REMARK    5  A    between atoms: S_10  and  C_13
REMARK    6  A    between atoms: C_18  and  C_19
REMARK    7  A    between atoms: N_21  and  C_22
REMARK                            x       y       z     vdW  Elec       q    Type
REMARK                         _______ _______ _______ _____ _____    ______ ____
ROOT
ATOM      1  C   UNL     1       4.714   5.353  18.752  0.00  0.00    +0.000 A 
ATOM      2  C   UNL     1       4.258   4.041  18.813  0.00  0.00    +0.000 A 
ATOM      3  C   UNL     1       2.975   3.786  19.323  0.00  0.00    +0.000 A 
ATOM      4  C   UNL     1       2.137   4.828  19.768  0.00  0.00    +0.000 A 
ATOM      5 CL   UNL     1       0.564   4.370  20.311  0.00  0.00    +0.000 Cl
ATOM      6  C   UNL     1       2.573   6.157  19.697  0.00  0.00    +0.000 A 
ATOM      7  C   UNL     1       3.860   6.400  19.182  0.00  0.00    +0.000 A 
ENDROOT
BRANCH   6   8
ATOM      8  C   UNL     1       1.814   7.384  20.108  0.00  0.00    +0.000 C 
ATOM      9  O   UNL     1       1.267   7.303  21.217  0.00  0.00    +0.000 OA
ATOM     10  N   UNL     1       1.735   8.537  19.311  0.00  0.00    +0.000 N 
ATOM     11  H   UNL     1       2.463   8.744  18.631  0.00  0.00    +0.000 HD
BRANCH  10  12
ATOM     12  C   UNL     1       0.859   9.632  19.653  0.00  0.00    +0.000 A 
ATOM     13  C   UNL     1       1.004  10.240  20.913  0.00  0.00    +0.000 A 
ATOM     14  C   UNL     1       0.331  11.404  21.244  0.00  0.00    +0.000 A 
ATOM     15  C   UNL     1      -0.399  12.048  20.265  0.00  0.00    +0.000 A 
ATOM     16  C   UNL     1      -0.610  11.420  19.035  0.00  0.00    +0.000 A 
ATOM     17  C   UNL     1      -1.386  12.071  18.081  0.00  0.00    +0.000 A 
ATOM     18  C   UNL     1      -2.122  11.306  17.206  0.00  0.00    +0.000 A 
ATOM     19  C   UNL     1      -1.766   9.979  17.095  0.00  0.00    +0.000 A 
ATOM     20  N   UNL     1      -0.714   9.409  17.751  0.00  0.00    +0.000 NA
ATOM     21  C   UNL     1      -0.149  10.106  18.777  0.00  0.00    +0.000 A 
ENDBRANCH  10  12
ENDBRANCH   6   8
BRANCH   1  22
ATOM     22  S   UNL     1       6.296   5.720  17.998  0.00  0.00    +0.000 S 
ATOM     23  O   UNL     1       7.204   4.681  18.438  0.00  0.00    +0.000 OA
ATOM     24  O   UNL     1       6.598   7.117  18.235  0.00  0.00    +0.000 OA
BRANCH  22  26
ATOM     25  C   UNL     1       5.170   6.591  15.727  0.00  0.00    +0.000 C 
ATOM     26  N   UNL     1       5.981   5.503  16.331  0.00  0.00    +0.000 NA
BRANCH  26  27
ATOM     27  C   UNL     1       7.206   5.179  15.529  0.00  0.00    +0.000 C 
BRANCH  27  28
ATOM     28  C   UNL     1       6.883   4.647  14.134  0.00  0.00    +0.000 A 
ATOM     29  C   UNL     1       7.654   5.032  13.025  0.00  0.00    +0.000 A 
ATOM     30  C   UNL     1       7.363   4.528  11.754  0.00  0.00    +0.000 A 
ATOM     31  C   UNL     1       6.318   3.629  11.575  0.00  0.00    +0.000 A 
ATOM     32  C   UNL     1       5.540   3.244  12.673  0.00  0.00    +0.000 A 
ATOM     33  C   UNL     1       5.834   3.741  13.941  0.00  0.00    +0.000 A 
ENDBRANCH  27  28
ENDBRANCH  26  27
ENDBRANCH  22  26
ENDBRANCH   1  22
TORSDOF 6
ENDMDL
MODEL 9
REMARK VINA RESULT:      -7.5      2.301      4.042
REMARK  Name = 
REMARK  7 active torsions:
REMARK  status: ('A' for Active; 'I' for Inactive)
REMARK    1  A    between atoms: C_1  and  N_2
REMARK    2  A    between atoms: N_2  and  C_3
REMARK    3  A    between atoms: N_2  and  S_10
REMARK    4  A    between atoms: C_3  and  C_4
REMARK    5  A    between atoms: S_10  and  C_13
REMARK    6  A    between atoms: C_18  and  C_19
REMARK    7  A    between atoms: N_21  and  C_22
REMARK                            x       y       z     vdW  Elec       q    Type
REMARK                         _______ _______ _______ _____ _____    ______ ____
ROOT
ATOM      1  C   UNL     1       5.059   4.648  19.069  0.00  0.00    +0.000 A 
ATOM      2  C   UNL     1       4.679   3.381  18.642  0.00  0.00    +0.000 A 
ATOM      3  C   UNL     1       3.344   2.978  18.799  0.00  0.00    +0.000 A 
ATOM      4  C   UNL     1       2.378   3.829  19.374  0.00  0.00    +0.000 A 
ATOM      5 CL   UNL     1       0.765   3.223  19.447  0.00  0.00    +0.000 Cl
ATOM      6  C   UNL     1       2.739   5.115  19.794  0.00  0.00    +0.000 A 
ATOM      7  C   UNL     1       4.081   5.509  19.628  0.00  0.00    +0.000 A 
ENDROOT
BRANCH   6   8
ATOM      8  C   UNL     1       1.848   6.154  20.409  0.00  0.00    +0.000 C 
ATOM      9  O   UNL     1       0.782   5.713  20.863  0.00  0.00    +0.000 OA
ATOM     10  N   UNL     1       2.191   7.513  20.476  0.00  0.00    +0.000 N 
ATOM     11  H   UNL     1       3.167   7.799  20.470  0.00  0.00    +0.000 HD
BRANCH  10  12
ATOM     12  C   UNL     1       1.242   8.509  20.914  0.00  0.00    +0.000 A 
ATOM     13  C   UNL     1       0.886   8.546  22.274  0.00  0.00    +0.000 A 
ATOM     14  C   UNL     1       0.129   9.577  22.804  0.00  0.00    +0.000 A 
ATOM     15  C   UNL     1      -0.172  10.658  22.000  0.00  0.00    +0.000 A 
ATOM     16  C   UNL     1       0.111  10.602  20.633  0.00  0.00    +0.000 A 
ATOM     17  C   UNL     1      -0.242  11.687  19.837  0.00  0.00    +0.000 A 
ATOM     18  C   UNL     1      -0.578  11.450  18.524  0.00  0.00    +0.000 A 
ATOM     19  C   UNL     1      -0.197  10.234  17.997  0.00  0.00    +0.000 A 
ATOM     20  N   UNL     1       0.525   9.297  18.676  0.00  0.00    +0.000 NA
ATOM     21  C   UNL     1       0.646   9.440  20.026  0.00  0.00    +0.000 A 
ENDBRANCH  10  12
ENDBRANCH   6   8
BRANCH   1  22
ATOM     22  S   UNL     1       6.725   5.234  18.773  0.00  0.00    +0.000 S 
ATOM     23  O   UNL     1       7.342   4.268  17.890  0.00  0.00    +0.000 OA
ATOM     24  O   UNL     1       7.325   5.559  20.051  0.00  0.00    +0.000 OA
BRANCH  22  26
ATOM     25  C   UNL     1       7.717   7.309  17.396  0.00  0.00    +0.000 C 
ATOM     26  N   UNL     1       6.468   6.685  17.903  0.00  0.00    +0.000 NA
BRANCH  26  27
ATOM     27  C   UNL     1       5.407   6.571  16.850  0.00  0.00    +0.000 C 
BRANCH  27  28
ATOM     28  C   UNL     1       5.796   5.631  15.711  0.00  0.00    +0.000 A 
ATOM     29  C   UNL     1       4.965   4.557  15.354  0.00  0.00    +0.000 A 
ATOM     30  C   UNL     1       5.319   3.711  14.300  0.00  0.00    +0.000 A 
ATOM     31  C   UNL     1       6.489   3.932  13.581  0.00  0.00    +0.000 A 
ATOM     32  C   UNL     1       7.326   4.997  13.932  0.00  0.00    +0.000 A 
ATOM     33  C   UNL     1       6.970   5.844  14.980  0.00  0.00    +0.000 A 
ENDBRANCH  27  28
ENDBRANCH  26  27
ENDBRANCH  22  26
ENDBRANCH   1  22
TORSDOF 6
ENDMDL
