MODEL 1
REMARK VINA RESULT:      -8.5      0.000      0.000
REMARK  Name = 
REMARK  5 active torsions:
REMARK  status: ('A' for Active; 'I' for Inactive)
REMARK    1  A    between atoms: C_1  and  N_2
REMARK    2  A    between atoms: C_4  and  C_5
REMARK    3  A    between atoms: C_5  and  C_6
REMARK    4  A    between atoms: C_13  and  C_14
REMARK    5  A    between atoms: C_14  and  C_15
REMARK                            x       y       z     vdW  Elec       q    Type
REMARK                         _______ _______ _______ _____ _____    ______ ____
ROOT
ATOM      1  C   UNL     1       5.260   4.032  16.379  0.00  0.00    +0.000 C 
ATOM      2  O   UNL     1       5.973   3.354  15.626  0.00  0.00    +0.000 OA
ATOM      3  N   UNL     1       5.798   5.118  17.099  0.00  0.00    +0.000 N 
ATOM      4  C   UNL     1       7.270   5.074  17.127  0.00  0.00    +0.000 C 
ATOM      5  C   UNL     1       7.873   6.083  18.096  0.00  0.00    +0.000 C 
ATOM      6  O   UNL     1       7.466   7.406  17.733  0.00  0.00    +0.000 OA
ATOM      7  C   UNL     1       6.040   7.520  17.825  0.00  0.00    +0.000 C 
ATOM      8  C   UNL     1       5.307   6.519  16.884  0.00  0.00    +0.000 C 
ENDROOT
BRANCH   1   9
ATOM      9  C   UNL     1       3.875   3.544  16.741  0.00  0.00    +0.000 C 
BRANCH   9  13
ATOM     10  C   UNL     1       5.245   1.447  20.823  0.00  0.00    +0.000 C 
ATOM     11  N   UNL     1       4.319   2.081  19.916  0.00  0.00    +0.000 N 
ATOM     12  N   UNL     1       4.708   2.338  18.659  0.00  0.00    +0.000 NA
ATOM     13  C   UNL     1       3.686   3.030  18.126  0.00  0.00    +0.000 A 
ATOM     14  C   UNL     1       2.608   3.156  19.051  0.00  0.00    +0.000 A 
ATOM     15  C   UNL     1       1.325   3.737  19.063  0.00  0.00    +0.000 A 
ATOM     16  C   UNL     1       0.554   3.693  20.232  0.00  0.00    +0.000 A 
ATOM     17  C   UNL     1       1.039   3.073  21.380  0.00  0.00    +0.000 A 
ATOM     18  C   UNL     1       2.303   2.477  21.395  0.00  0.00    +0.000 A 
ATOM     19  C   UNL     1       3.062   2.535  20.217  0.00  0.00    +0.000 A 
ENDBRANCH   9  13
ENDBRANCH   1   9
BRANCH   8  20
ATOM     20  C   UNL     1       3.796   6.820  16.903  0.00  0.00    +0.000 C 
BRANCH  20  21
ATOM     21  C   UNL     1       3.143   7.025  18.240  0.00  0.00    +0.000 A 
ATOM     22  C   UNL     1       3.349   6.330  19.417  0.00  0.00    +0.000 A 
ATOM     23  N   UNL     1       2.540   6.859  20.385  0.00  0.00    +0.000 N 
ATOM     24  C   UNL     1       1.874   7.957  19.898  0.00  0.00    +0.000 A 
ATOM     25  C   UNL     1       1.036   8.867  20.553  0.00  0.00    +0.000 A 
ATOM     26  C   UNL     1       0.515   9.922  19.798  0.00  0.00    +0.000 A 
ATOM     27  C   UNL     1       0.768  10.022  18.434  0.00  0.00    +0.000 A 
ATOM     28  C   UNL     1       1.581   9.083  17.789  0.00  0.00    +0.000 A 
ATOM     29  C   UNL     1       2.184   8.052  18.543  0.00  0.00    +0.000 A 
ATOM     30  H   UNL     1       2.477   6.525  21.337  0.00  0.00    +0.000 HD
ENDBRANCH  20  21
ENDBRANCH   8  20
TORSDOF 4
ENDMDL
MODEL 2
REMARK VINA RESULT:      -7.9      2.170      6.691
REMARK  Name = 
REMARK  5 active torsions:
REMARK  status: ('A' for Active; 'I' for Inactive)
REMARK    1  A    between atoms: C_1  and  N_2
REMARK    2  A    between atoms: C_4  and  C_5
REMARK    3  A    between atoms: C_5  and  C_6
REMARK    4  A    between atoms: C_13  and  C_14
REMARK    5  A    between atoms: C_14  and  C_15
REMARK                            x       y       z     vdW  Elec       q    Type
REMARK                         _______ _______ _______ _____ _____    ______ ____
ROOT
ATOM      1  C   UNL     1       2.339   5.554  18.577  0.00  0.00    +0.000 C 
ATOM      2  O   UNL     1       1.504   5.798  17.695  0.00  0.00    +0.000 OA
ATOM      3  N   UNL     1       2.593   4.229  18.985  0.00  0.00    +0.000 N 
ATOM      4  C   UNL     1       1.532   3.311  18.536  0.00  0.00    +0.000 C 
ATOM      5  C   UNL     1       1.643   1.928  19.164  0.00  0.00    +0.000 C 
ATOM      6  O   UNL     1       2.911   1.349  18.840  0.00  0.00    +0.000 OA
ATOM      7  C   UNL     1       3.968   2.154  19.381  0.00  0.00    +0.000 C 
ATOM      8  C   UNL     1       3.947   3.606  18.821  0.00  0.00    +0.000 C 
ENDROOT
BRANCH   1   9
ATOM      9  C   UNL     1       2.900   6.685  19.411  0.00  0.00    +0.000 C 
BRANCH   9  13
ATOM     10  C   UNL     1      -0.204   8.823  22.367  0.00  0.00    +0.000 C 
ATOM     11  N   UNL     1       0.558   8.662  21.153  0.00  0.00    +0.000 N 
ATOM     12  N   UNL     1       1.260   7.535  20.967  0.00  0.00    +0.000 NA
ATOM     13  C   UNL     1       1.943   7.748  19.829  0.00  0.00    +0.000 A 
ATOM     14  C   UNL     1       1.615   9.012  19.257  0.00  0.00    +0.000 A 
ATOM     15  C   UNL     1       1.980   9.752  18.115  0.00  0.00    +0.000 A 
ATOM     16  C   UNL     1       1.454  11.036  17.922  0.00  0.00    +0.000 A 
ATOM     17  C   UNL     1       0.567  11.586  18.844  0.00  0.00    +0.000 A 
ATOM     18  C   UNL     1       0.175  10.872  19.979  0.00  0.00    +0.000 A 
ATOM     19  C   UNL     1       0.716   9.590  20.157  0.00  0.00    +0.000 A 
ENDBRANCH   9  13
ENDBRANCH   1   9
BRANCH   8  20
ATOM     20  C   UNL     1       5.205   4.353  19.305  0.00  0.00    +0.000 C 
BRANCH  20  21
ATOM     21  C   UNL     1       6.101   4.960  18.264  0.00  0.00    +0.000 A 
ATOM     22  C   UNL     1       7.182   5.803  18.442  0.00  0.00    +0.000 A 
ATOM     23  N   UNL     1       7.707   6.107  17.215  0.00  0.00    +0.000 N 
ATOM     24  C   UNL     1       7.056   5.400  16.234  0.00  0.00    +0.000 A 
ATOM     25  C   UNL     1       7.319   5.309  14.862  0.00  0.00    +0.000 A 
ATOM     26  C   UNL     1       6.495   4.476  14.100  0.00  0.00    +0.000 A 
ATOM     27  C   UNL     1       5.414   3.816  14.676  0.00  0.00    +0.000 A 
ATOM     28  C   UNL     1       5.145   3.947  16.043  0.00  0.00    +0.000 A 
ATOM     29  C   UNL     1       6.007   4.719  16.850  0.00  0.00    +0.000 A 
ATOM     30  H   UNL     1       8.493   6.721  17.054  0.00  0.00    +0.000 HD
ENDBRANCH  20  21
ENDBRANCH   8  20
TORSDOF 4
ENDMDL
MODEL 3
REMARK VINA RESULT:      -7.9      4.713      8.820
REMARK  Name = 
REMARK  5 active torsions:
REMARK  status: ('A' for Active; 'I' for Inactive)
REMARK    1  A    between atoms: C_1  and  N_2
REMARK    2  A    between atoms: C_4  and  C_5
REMARK    3  A    between atoms: C_5  and  C_6
REMARK    4  A    between atoms: C_13  and  C_14
REMARK    5  A    between atoms: C_14  and  C_15
REMARK                            x       y       z     vdW  Elec       q    Type
REMARK                         _______ _______ _______ _____ _____    ______ ____
ROOT
ATOM      1  C   UNL     1      -0.729  11.222  19.691  0.00  0.00    +0.000 C 
ATOM      2  O   UNL     1      -1.156  11.640  20.776  0.00  0.00    +0.000 OA
ATOM      3  N   UNL     1       0.326  11.880  19.027  0.00  0.00    +0.000 N 
ATOM      4  C   UNL     1       0.547  13.232  19.567  0.00  0.00    +0.000 C 
ATOM      5  C   UNL     1       1.504  14.058  18.718  0.00  0.00    +0.000 C 
ATOM      6  O   UNL     1       2.768  13.394  18.629  0.00  0.00    +0.000 OA
ATOM      7  C   UNL     1       2.608  12.124  17.984  0.00  0.00    +0.000 C 
ATOM      8  C   UNL     1       1.631  11.190  18.757  0.00  0.00    +0.000 C 
ENDROOT
BRANCH   1   9
ATOM      9  C   UNL     1      -1.506  10.165  18.938  0.00  0.00    +0.000 C 
BRANCH   9  13
ATOM     10  C   UNL     1      -3.717  10.438  14.697  0.00  0.00    +0.000 C 
ATOM     11  N   UNL     1      -3.487  10.762  16.084  0.00  0.00    +0.000 N 
ATOM     12  N   UNL     1      -2.395  10.282  16.695  0.00  0.00    +0.000 NA
ATOM     13  C   UNL     1      -2.540  10.649  17.980  0.00  0.00    +0.000 A 
ATOM     14  C   UNL     1      -3.719  11.429  18.166  0.00  0.00    +0.000 A 
ATOM     15  C   UNL     1      -4.366  12.078  19.236  0.00  0.00    +0.000 A 
ATOM     16  C   UNL     1      -5.589  12.726  19.017  0.00  0.00    +0.000 A 
ATOM     17  C   UNL     1      -6.167  12.743  17.751  0.00  0.00    +0.000 A 
ATOM     18  C   UNL     1      -5.543  12.120  16.667  0.00  0.00    +0.000 A 
ATOM     19  C   UNL     1      -4.322  11.472  16.907  0.00  0.00    +0.000 A 
ENDBRANCH   9  13
ENDBRANCH   1   9
BRANCH   8  20
ATOM     20  C   UNL     1       1.646   9.793  18.109  0.00  0.00    +0.000 C 
BRANCH  20  21
ATOM     21  C   UNL     1       1.902   8.612  19.000  0.00  0.00    +0.000 A 
ATOM     22  C   UNL     1       1.428   8.377  20.277  0.00  0.00    +0.000 A 
ATOM     23  N   UNL     1       1.913   7.173  20.710  0.00  0.00    +0.000 N 
ATOM     24  C   UNL     1       2.618   6.557  19.704  0.00  0.00    +0.000 A 
ATOM     25  C   UNL     1       3.192   5.282  19.655  0.00  0.00    +0.000 A 
ATOM     26  C   UNL     1       3.832   4.908  18.470  0.00  0.00    +0.000 A 
ATOM     27  C   UNL     1       3.950   5.797  17.407  0.00  0.00    +0.000 A 
ATOM     28  C   UNL     1       3.400   7.081  17.488  0.00  0.00    +0.000 A 
ATOM     29  C   UNL     1       2.680   7.458  18.642  0.00  0.00    +0.000 A 
ATOM     30  H   UNL     1       1.737   6.767  21.619  0.00  0.00    +0.000 HD
ENDBRANCH  20  21
ENDBRANCH   8  20
TORSDOF 4
ENDMDL
MODEL 4
REMARK VINA RESULT:      -7.8      2.281      6.678
REMARK  Name = 
REMARK  5 active torsions:
REMARK  status: ('A' for Active; 'I' for Inactive)
REMARK    1  A    between atoms: C_1  and  N_2
REMARK    2  A    between atoms: C_4  and  C_5
REMARK    3  A    between atoms: C_5  and  C_6
REMARK    4  A    between atoms: C_13  and  C_14
REMARK    5  A    between atoms: C_14  and  C_15
REMARK                            x       y       z     vdW  Elec       q    Type
REMARK                         _______ _______ _______ _____ _____    ______ ____
ROOT
ATOM      1  C   UNL     1       2.310   6.017  18.361  0.00  0.00    +0.000 C 
ATOM      2  O   UNL     1       1.427   5.959  17.495  0.00  0.00    +0.000 OA
ATOM      3  N   UNL     1       2.675   4.872  19.099  0.00  0.00    +0.000 N 
ATOM      4  C   UNL     1       1.669   3.804  18.976  0.00  0.00    +0.000 C 
ATOM      5  C   UNL     1       1.903   2.656  19.948  0.00  0.00    +0.000 C 
ATOM      6  O   UNL     1       3.197   2.088  19.723  0.00  0.00    +0.000 OA
ATOM      7  C   UNL     1       4.212   3.072  19.965  0.00  0.00    +0.000 C 
ATOM      8  C   UNL     1       4.064   4.310  19.033  0.00  0.00    +0.000 C 
ENDROOT
BRANCH   1   9
ATOM      9  C   UNL     1       2.819   7.364  18.824  0.00  0.00    +0.000 C 
BRANCH   9  13
ATOM     10  C   UNL     1      -0.599  10.555  17.783  0.00  0.00    +0.000 C 
ATOM     11  N   UNL     1       0.293   9.816  18.644  0.00  0.00    +0.000 N 
ATOM     12  N   UNL     1       1.226   9.027  18.094  0.00  0.00    +0.000 NA
ATOM     13  C   UNL     1       1.791   8.396  19.139  0.00  0.00    +0.000 A 
ATOM     14  C   UNL     1       1.240   8.846  20.374  0.00  0.00    +0.000 A 
ATOM     15  C   UNL     1       1.427   8.576  21.744  0.00  0.00    +0.000 A 
ATOM     16  C   UNL     1       0.619   9.213  22.694  0.00  0.00    +0.000 A 
ATOM     17  C   UNL     1      -0.363  10.118  22.299  0.00  0.00    +0.000 A 
ATOM     18  C   UNL     1      -0.564  10.417  20.949  0.00  0.00    +0.000 A 
ATOM     19  C   UNL     1       0.252   9.765  20.012  0.00  0.00    +0.000 A 
ENDBRANCH   9  13
ENDBRANCH   1   9
BRANCH   8  20
ATOM     20  C   UNL     1       5.282   5.235  19.226  0.00  0.00    +0.000 C 
BRANCH  20  21
ATOM     21  C   UNL     1       6.088   5.590  18.009  0.00  0.00    +0.000 A 
ATOM     22  C   UNL     1       7.132   6.488  17.899  0.00  0.00    +0.000 A 
ATOM     23  N   UNL     1       7.574   6.490  16.603  0.00  0.00    +0.000 N 
ATOM     24  C   UNL     1       6.907   5.535  15.875  0.00  0.00    +0.000 A 
ATOM     25  C   UNL     1       7.099   5.109  14.556  0.00  0.00    +0.000 A 
ATOM     26  C   UNL     1       6.279   4.081  14.083  0.00  0.00    +0.000 A 
ATOM     27  C   UNL     1       5.265   3.551  14.875  0.00  0.00    +0.000 A 
ATOM     28  C   UNL     1       5.065   4.014  16.180  0.00  0.00    +0.000 A 
ATOM     29  C   UNL     1       5.930   4.996  16.710  0.00  0.00    +0.000 A 
ATOM     30  H   UNL     1       8.317   7.071  16.242  0.00  0.00    +0.000 HD
ENDBRANCH  20  21
ENDBRANCH   8  20
TORSDOF 4
ENDMDL
MODEL 5
REMARK VINA RESULT:      -7.7      2.399      6.844
REMARK  Name = 
REMARK  5 active torsions:
REMARK  status: ('A' for Active; 'I' for Inactive)
REMARK    1  A    between atoms: C_1  and  N_2
REMARK    2  A    between atoms: C_4  and  C_5
REMARK    3  A    between atoms: C_5  and  C_6
REMARK    4  A    between atoms: C_13  and  C_14
REMARK    5  A    between atoms: C_14  and  C_15
REMARK                            x       y       z     vdW  Elec       q    Type
REMARK                         _______ _______ _______ _____ _____    ______ ____
ROOT
ATOM      1  C   UNL     1       2.085   5.744  20.081  0.00  0.00    +0.000 C 
ATOM      2  O   UNL     1       1.057   5.419  20.689  0.00  0.00    +0.000 OA
ATOM      3  N   UNL     1       3.043   4.777  19.712  0.00  0.00    +0.000 N 
ATOM      4  C   UNL     1       2.845   3.512  20.442  0.00  0.00    +0.000 C 
ATOM      5  C   UNL     1       3.999   2.536  20.255  0.00  0.00    +0.000 C 
ATOM      6  O   UNL     1       4.160   2.237  18.865  0.00  0.00    +0.000 OA
ATOM      7  C   UNL     1       4.486   3.432  18.143  0.00  0.00    +0.000 C 
ATOM      8  C   UNL     1       3.379   4.519  18.273  0.00  0.00    +0.000 C 
ENDROOT
BRANCH   1   9
ATOM      9  C   UNL     1       2.456   7.206  19.962  0.00  0.00    +0.000 C 
BRANCH   9  13
ATOM     10  C   UNL     1       0.007   9.511  23.372  0.00  0.00    +0.000 C 
ATOM     11  N   UNL     1       0.387   9.183  22.019  0.00  0.00    +0.000 N 
ATOM     12  N   UNL     1       1.218   8.153  21.806  0.00  0.00    +0.000 NA
ATOM     13  C   UNL     1       1.470   8.192  20.486  0.00  0.00    +0.000 A 
ATOM     14  C   UNL     1       0.732   9.232  19.849  0.00  0.00    +0.000 A 
ATOM     15  C   UNL     1       0.578   9.733  18.541  0.00  0.00    +0.000 A 
ATOM     16  C   UNL     1      -0.235  10.851  18.317  0.00  0.00    +0.000 A 
ATOM     17  C   UNL     1      -0.900  11.469  19.373  0.00  0.00    +0.000 A 
ATOM     18  C   UNL     1      -0.778  10.987  20.679  0.00  0.00    +0.000 A 
ATOM     19  C   UNL     1       0.044   9.869  20.884  0.00  0.00    +0.000 A 
ENDBRANCH   9  13
ENDBRANCH   1   9
BRANCH   8  20
ATOM     20  C   UNL     1       3.712   5.695  17.335  0.00  0.00    +0.000 C 
BRANCH  20  21
ATOM     21  C   UNL     1       5.100   5.762  16.765  0.00  0.00    +0.000 A 
ATOM     22  C   UNL     1       6.230   6.337  17.314  0.00  0.00    +0.000 A 
ATOM     23  N   UNL     1       7.276   6.161  16.449  0.00  0.00    +0.000 N 
ATOM     24  C   UNL     1       6.883   5.390  15.382  0.00  0.00    +0.000 A 
ATOM     25  C   UNL     1       7.632   4.868  14.322  0.00  0.00    +0.000 A 
ATOM     26  C   UNL     1       6.960   4.081  13.382  0.00  0.00    +0.000 A 
ATOM     27  C   UNL     1       5.585   3.882  13.466  0.00  0.00    +0.000 A 
ATOM     28  C   UNL     1       4.846   4.440  14.514  0.00  0.00    +0.000 A 
ATOM     29  C   UNL     1       5.513   5.174  15.520  0.00  0.00    +0.000 A 
ATOM     30  H   UNL     1       8.216   6.501  16.595  0.00  0.00    +0.000 HD
ENDBRANCH  20  21
ENDBRANCH   8  20
TORSDOF 4
ENDMDL
MODEL 6
REMARK VINA RESULT:      -7.6      1.110      1.561
REMARK  Name = 
REMARK  5 active torsions:
REMARK  status: ('A' for Active; 'I' for Inactive)
REMARK    1  A    between atoms: C_1  and  N_2
REMARK    2  A    between atoms: C_4  and  C_5
REMARK    3  A    between atoms: C_5  and  C_6
REMARK    4  A    between atoms: C_13  and  C_14
REMARK    5  A    between atoms: C_14  and  C_15
REMARK                            x       y       z     vdW  Elec       q    Type
REMARK                         _______ _______ _______ _____ _____    ______ ____
ROOT
ATOM      1  C   UNL     1       4.740   4.219  16.216  0.00  0.00    +0.000 C 
ATOM      2  O   UNL     1       5.079   4.253  15.026  0.00  0.00    +0.000 OA
ATOM      3  N   UNL     1       5.653   4.552  17.238  0.00  0.00    +0.000 N 
ATOM      4  C   UNL     1       7.041   4.553  16.745  0.00  0.00    +0.000 C 
ATOM      5  C   UNL     1       8.066   4.663  17.866  0.00  0.00    +0.000 C 
ATOM      6  O   UNL     1       7.847   5.869  18.606  0.00  0.00    +0.000 OA
ATOM      7  C   UNL     1       6.547   5.841  19.211  0.00  0.00    +0.000 C 
ATOM      8  C   UNL     1       5.409   5.713  18.156  0.00  0.00    +0.000 C 
ENDROOT
BRANCH   1   9
ATOM      9  C   UNL     1       3.432   3.566  16.605  0.00  0.00    +0.000 C 
BRANCH   9  13
ATOM     10  C   UNL     1       5.003   1.019  20.345  0.00  0.00    +0.000 C 
ATOM     11  N   UNL     1       4.069   1.837  19.609  0.00  0.00    +0.000 N 
ATOM     12  N   UNL     1       4.323   2.125  18.325  0.00  0.00    +0.000 NA
ATOM     13  C   UNL     1       3.353   2.988  17.976  0.00  0.00    +0.000 A 
ATOM     14  C   UNL     1       2.436   3.198  19.047  0.00  0.00    +0.000 A 
ATOM     15  C   UNL     1       1.265   3.949  19.268  0.00  0.00    +0.000 A 
ATOM     16  C   UNL     1       0.656   3.931  20.529  0.00  0.00    +0.000 A 
ATOM     17  C   UNL     1       1.191   3.171  21.566  0.00  0.00    +0.000 A 
ATOM     18  C   UNL     1       2.344   2.405  21.374  0.00  0.00    +0.000 A 
ATOM     19  C   UNL     1       2.943   2.440  20.106  0.00  0.00    +0.000 A 
ENDBRANCH   9  13
ENDBRANCH   1   9
BRANCH   8  20
ATOM     20  C   UNL     1       4.047   5.867  18.861  0.00  0.00    +0.000 C 
BRANCH  20  21
ATOM     21  C   UNL     1       3.241   7.097  18.558  0.00  0.00    +0.000 A 
ATOM     22  C   UNL     1       3.204   7.840  17.392  0.00  0.00    +0.000 A 
ATOM     23  N   UNL     1       2.327   8.876  17.560  0.00  0.00    +0.000 N 
ATOM     24  C   UNL     1       1.704   8.776  18.781  0.00  0.00    +0.000 A 
ATOM     25  C   UNL     1       0.667   9.539  19.329  0.00  0.00    +0.000 A 
ATOM     26  C   UNL     1       0.206   9.183  20.600  0.00  0.00    +0.000 A 
ATOM     27  C   UNL     1       0.804   8.151  21.316  0.00  0.00    +0.000 A 
ATOM     28  C   UNL     1       1.863   7.422  20.766  0.00  0.00    +0.000 A 
ATOM     29  C   UNL     1       2.296   7.709  19.453  0.00  0.00    +0.000 A 
ATOM     30  H   UNL     1       2.124   9.585  16.869  0.00  0.00    +0.000 HD
ENDBRANCH  20  21
ENDBRANCH   8  20
TORSDOF 4
ENDMDL
MODEL 7
REMARK VINA RESULT:      -7.6      2.217      6.388
REMARK  Name = 
REMARK  5 active torsions:
REMARK  status: ('A' for Active; 'I' for Inactive)
REMARK    1  A    between atoms: C_1  and  N_2
REMARK    2  A    between atoms: C_4  and  C_5
REMARK    3  A    between atoms: C_5  and  C_6
REMARK    4  A    between atoms: C_13  and  C_14
REMARK    5  A    between atoms: C_14  and  C_15
REMARK                            x       y       z     vdW  Elec       q    Type
REMARK                         _______ _______ _______ _____ _____    ______ ____
ROOT
ATOM      1  C   UNL     1       1.730   4.938  20.258  0.00  0.00    +0.000 C 
ATOM      2  O   UNL     1       0.747   4.527  20.890  0.00  0.00    +0.000 OA
ATOM      3  N   UNL     1       2.372   4.120  19.307  0.00  0.00    +0.000 N 
ATOM      4  C   UNL     1       1.984   2.706  19.457  0.00  0.00    +0.000 C 
ATOM      5  C   UNL     1       2.839   1.767  18.617  0.00  0.00    +0.000 C 
ATOM      6  O   UNL     1       2.732   2.121  17.234  0.00  0.00    +0.000 OA
ATOM      7  C   UNL     1       3.228   3.451  17.032  0.00  0.00    +0.000 C 
ATOM      8  C   UNL     1       2.437   4.507  17.859  0.00  0.00    +0.000 C 
ENDROOT
BRANCH   1   9
ATOM      9  C   UNL     1       2.415   6.217  20.687  0.00  0.00    +0.000 C 
BRANCH   9  13
ATOM     10  C   UNL     1      -0.534   9.450  22.635  0.00  0.00    +0.000 C 
ATOM     11  N   UNL     1       0.260   8.857  21.586  0.00  0.00    +0.000 N 
ATOM     12  N   UNL     1       0.821   7.658  21.791  0.00  0.00    +0.000 NA
ATOM     13  C   UNL     1       1.580   7.451  20.700  0.00  0.00    +0.000 A 
ATOM     14  C   UNL     1       1.443   8.518  19.765  0.00  0.00    +0.000 A 
ATOM     15  C   UNL     1       1.955   8.845  18.494  0.00  0.00    +0.000 A 
ATOM     16  C   UNL     1       1.605  10.064  17.897  0.00  0.00    +0.000 A 
ATOM     17  C   UNL     1       0.751  10.952  18.544  0.00  0.00    +0.000 A 
ATOM     18  C   UNL     1       0.217  10.650  19.799  0.00  0.00    +0.000 A 
ATOM     19  C   UNL     1       0.582   9.428  20.383  0.00  0.00    +0.000 A 
ENDBRANCH   9  13
ENDBRANCH   1   9
BRANCH   8  20
ATOM     20  C   UNL     1       2.905   5.919  17.457  0.00  0.00    +0.000 C 
BRANCH  20  21
ATOM     21  C   UNL     1       4.343   6.090  17.058  0.00  0.00    +0.000 A 
ATOM     22  C   UNL     1       4.857   6.543  15.858  0.00  0.00    +0.000 A 
ATOM     23  N   UNL     1       6.223   6.539  15.937  0.00  0.00    +0.000 N 
ATOM     24  C   UNL     1       6.623   6.187  17.203  0.00  0.00    +0.000 A 
ATOM     25  C   UNL     1       7.903   6.156  17.769  0.00  0.00    +0.000 A 
ATOM     26  C   UNL     1       8.006   5.780  19.111  0.00  0.00    +0.000 A 
ATOM     27  C   UNL     1       6.885   5.388  19.835  0.00  0.00    +0.000 A 
ATOM     28  C   UNL     1       5.617   5.392  19.242  0.00  0.00    +0.000 A 
ATOM     29  C   UNL     1       5.473   5.842  17.911  0.00  0.00    +0.000 A 
ATOM     30  H   UNL     1       6.850   6.806  15.191  0.00  0.00    +0.000 HD
ENDBRANCH  20  21
ENDBRANCH   8  20
TORSDOF 4
ENDMDL
MODEL 8
REMARK VINA RESULT:      -7.5      2.107      5.104
REMARK  Name = 
REMARK  5 active torsions:
REMARK  status: ('A' for Active; 'I' for Inactive)
REMARK    1  A    between atoms: C_1  and  N_2
REMARK    2  A    between atoms: C_4  and  C_5
REMARK    3  A    between atoms: C_5  and  C_6
REMARK    4  A    between atoms: C_13  and  C_14
REMARK    5  A    between atoms: C_14  and  C_15
REMARK                            x       y       z     vdW  Elec       q    Type
REMARK                         _______ _______ _______ _____ _____    ______ ____
ROOT
ATOM      1  C   UNL     1       4.600   3.418  19.717  0.00  0.00    +0.000 C 
ATOM      2  O   UNL     1       5.248   2.369  19.835  0.00  0.00    +0.000 OA
ATOM      3  N   UNL     1       3.261   3.395  19.275  0.00  0.00    +0.000 N 
ATOM      4  C   UNL     1       2.917   2.103  18.655  0.00  0.00    +0.000 C 
ATOM      5  C   UNL     1       1.568   2.128  17.950  0.00  0.00    +0.000 C 
ATOM      6  O   UNL     1       0.539   2.470  18.884  0.00  0.00    +0.000 OA
ATOM      7  C   UNL     1       0.774   3.783  19.410  0.00  0.00    +0.000 C 
ATOM      8  C   UNL     1       2.143   3.887  20.145  0.00  0.00    +0.000 C 
ENDROOT
BRANCH   1   9
ATOM      9  C   UNL     1       5.312   4.751  19.785  0.00  0.00    +0.000 C 
BRANCH   9  13
ATOM     10  C   UNL     1       7.901   7.738  17.078  0.00  0.00    +0.000 C 
ATOM     11  N   UNL     1       7.019   6.625  17.335  0.00  0.00    +0.000 N 
ATOM     12  N   UNL     1       6.547   6.438  18.576  0.00  0.00    +0.000 NA
ATOM     13  C   UNL     1       5.878   5.273  18.509  0.00  0.00    +0.000 A 
ATOM     14  C   UNL     1       5.881   4.750  17.183  0.00  0.00    +0.000 A 
ATOM     15  C   UNL     1       5.360   3.621  16.521  0.00  0.00    +0.000 A 
ATOM     16  C   UNL     1       5.635   3.425  15.161  0.00  0.00    +0.000 A 
ATOM     17  C   UNL     1       6.411   4.340  14.455  0.00  0.00    +0.000 A 
ATOM     18  C   UNL     1       6.930   5.477  15.081  0.00  0.00    +0.000 A 
ATOM     19  C   UNL     1       6.649   5.653  16.443  0.00  0.00    +0.000 A 
ENDBRANCH   9  13
ENDBRANCH   1   9
BRANCH   8  20
ATOM     20  C   UNL     1       2.246   5.263  20.831  0.00  0.00    +0.000 C 
BRANCH  20  21
ATOM     21  C   UNL     1       2.169   6.484  19.960  0.00  0.00    +0.000 A 
ATOM     22  C   UNL     1       2.576   6.635  18.648  0.00  0.00    +0.000 A 
ATOM     23  N   UNL     1       2.313   7.918  18.252  0.00  0.00    +0.000 N 
ATOM     24  C   UNL     1       1.645   8.592  19.245  0.00  0.00    +0.000 A 
ATOM     25  C   UNL     1       1.084   9.874  19.245  0.00  0.00    +0.000 A 
ATOM     26  C   UNL     1       0.428  10.292  20.407  0.00  0.00    +0.000 A 
ATOM     27  C   UNL     1       0.394   9.486  21.540  0.00  0.00    +0.000 A 
ATOM     28  C   UNL     1       0.991   8.220  21.533  0.00  0.00    +0.000 A 
ATOM     29  C   UNL     1       1.592   7.742  20.348  0.00  0.00    +0.000 A 
ATOM     30  H   UNL     1       2.529   8.303  17.343  0.00  0.00    +0.000 HD
ENDBRANCH  20  21
ENDBRANCH   8  20
TORSDOF 4
ENDMDL
MODEL 9
REMARK VINA RESULT:      -7.5      2.592      6.963
REMARK  Name = 
REMARK  5 active torsions:
REMARK  status: ('A' for Active; 'I' for Inactive)
REMARK    1  A    between atoms: C_1  and  N_2
REMARK    2  A    between atoms: C_4  and  C_5
REMARK    3  A    between atoms: C_5  and  C_6
REMARK    4  A    between atoms: C_13  and  C_14
REMARK    5  A    between atoms: C_14  and  C_15
REMARK                            x       y       z     vdW  Elec       q    Type
REMARK                         _______ _______ _______ _____ _____    ______ ____
ROOT
ATOM      1  C   UNL     1       1.642   6.089  20.415  0.00  0.00    +0.000 C 
ATOM      2  O   UNL     1       0.640   6.091  21.143  0.00  0.00    +0.000 OA
ATOM      3  N   UNL     1       2.371   4.903  20.191  0.00  0.00    +0.000 N 
ATOM      4  C   UNL     1       2.030   3.863  21.177  0.00  0.00    +0.000 C 
ATOM      5  C   UNL     1       2.968   2.665  21.120  0.00  0.00    +0.000 C 
ATOM      6  O   UNL     1       2.930   2.081  19.814  0.00  0.00    +0.000 OA
ATOM      7  C   UNL     1       3.385   3.031  18.841  0.00  0.00    +0.000 C 
ATOM      8  C   UNL     1       2.506   4.316  18.817  0.00  0.00    +0.000 C 
ENDROOT
BRANCH   1   9
ATOM      9  C   UNL     1       2.250   7.402  19.973  0.00  0.00    +0.000 C 
BRANCH   9  13
ATOM     10  C   UNL     1      -0.384  11.001  18.225  0.00  0.00    +0.000 C 
ATOM     11  N   UNL     1       0.233  10.202  19.256  0.00  0.00    +0.000 N 
ATOM     12  N   UNL     1       1.088   9.231  18.907  0.00  0.00    +0.000 NA
ATOM     13  C   UNL     1       1.378   8.607  20.062  0.00  0.00    +0.000 A 
ATOM     14  C   UNL     1       0.737   9.239  21.167  0.00  0.00    +0.000 A 
ATOM     15  C   UNL     1       0.674   9.057  22.562  0.00  0.00    +0.000 A 
ATOM     16  C   UNL     1      -0.144   9.892  23.335  0.00  0.00    +0.000 A 
ATOM     17  C   UNL     1      -0.888  10.907  22.739  0.00  0.00    +0.000 A 
ATOM     18  C   UNL     1      -0.836  11.121  21.359  0.00  0.00    +0.000 A 
ATOM     19  C   UNL     1      -0.015  10.272  20.602  0.00  0.00    +0.000 A 
ENDBRANCH   9  13
ENDBRANCH   1   9
BRANCH   8  20
ATOM     20  C   UNL     1       2.942   5.205  17.637  0.00  0.00    +0.000 C 
BRANCH  20  21
ATOM     21  C   UNL     1       4.412   5.446  17.451  0.00  0.00    +0.000 A 
ATOM     22  C   UNL     1       5.320   5.971  18.351  0.00  0.00    +0.000 A 
ATOM     23  N   UNL     1       6.553   6.009  17.758  0.00  0.00    +0.000 N 
ATOM     24  C   UNL     1       6.499   5.425  16.516  0.00  0.00    +0.000 A 
ATOM     25  C   UNL     1       7.524   5.143  15.606  0.00  0.00    +0.000 A 
ATOM     26  C   UNL     1       7.172   4.504  14.413  0.00  0.00    +0.000 A 
ATOM     27  C   UNL     1       5.842   4.222  14.117  0.00  0.00    +0.000 A 
ATOM     28  C   UNL     1       4.826   4.542  15.025  0.00  0.00    +0.000 A 
ATOM     29  C   UNL     1       5.162   5.116  16.270  0.00  0.00    +0.000 A 
ATOM     30  H   UNL     1       7.395   6.366  18.187  0.00  0.00    +0.000 HD
ENDBRANCH  20  21
ENDBRANCH   8  20
TORSDOF 4
ENDMDL
