MODEL 1
REMARK VINA RESULT:      -8.7      0.000      0.000
REMARK  Name = 
REMARK  4 active torsions:
REMARK  status: ('A' for Active; 'I' for Inactive)
REMARK    1  A    between atoms: C_2  and  C_13
REMARK    2  A    between atoms: C_17  and  O_18
REMARK    3  A    between atoms: O_18  and  C_19
REMARK    4  A    between atoms: C_19  and  C_20
REMARK                            x       y       z     vdW  Elec       q    Type
REMARK                         _______ _______ _______ _____ _____    ______ ____
ROOT
ATOM      1  C   UNL     1       2.507   6.240  19.361  0.00  0.00    +0.000 A 
ATOM      2  C   UNL     1       2.494   5.205  20.300  0.00  0.00    +0.000 A 
ATOM      3  C   UNL     1       3.028   3.960  19.961  0.00  0.00    +0.000 A 
ATOM      4  C   UNL     1       3.612   3.770  18.703  0.00  0.00    +0.000 A 
ATOM      5  C   UNL     1       3.665   4.819  17.784  0.00  0.00    +0.000 A 
ATOM      6  C   UNL     1       3.075   6.042  18.099  0.00  0.00    +0.000 A 
ENDROOT
BRANCH   1   8
ATOM      7  O   UNL     1       2.243   8.541  18.986  0.00  0.00    +0.000 OA
ATOM      8  C   UNL     1       1.989   7.588  19.713  0.00  0.00    +0.000 C 
ATOM      9  N   UNL     1       1.265   7.625  20.887  0.00  0.00    +0.000 N 
ATOM     10  C   UNL     1       0.828   8.830  21.386  0.00  0.00    +0.000 A 
ATOM     11  N   UNL     1       0.979   9.192  22.643  0.00  0.00    +0.000 NA
ATOM     12  N   UNL     1       0.479  10.463  22.788  0.00  0.00    +0.000 NA
ATOM     13  C   UNL     1      -0.072  10.811  21.646  0.00  0.00    +0.000 A 
ATOM     14  C   UNL     1      -0.811  11.960  21.253  0.00  0.00    +0.000 A 
ATOM     15  C   UNL     1      -1.429  11.973  20.056  0.00  0.00    +0.000 A 
ATOM     16  C   UNL     1      -1.337  10.843  19.142  0.00  0.00    +0.000 A 
ATOM     17  C   UNL     1      -0.578   9.788  19.479  0.00  0.00    +0.000 A 
ATOM     18  N   UNL     1       0.074   9.784  20.720  0.00  0.00    +0.000 N 
ATOM     19  H   UNL     1       1.536   6.961  21.602  0.00  0.00    +0.000 HD
ENDBRANCH   1   8
BRANCH   5  20
ATOM     20  O   UNL     1       4.327   4.560  16.613  0.00  0.00    +0.000 OA
BRANCH  20  21
ATOM     21  C   UNL     1       5.686   4.143  16.772  0.00  0.00    +0.000 C 
BRANCH  21  22
ATOM     22  C   UNL     1       6.494   5.259  17.379  0.00  0.00    +0.000 A 
ATOM     23  C   UNL     1       7.182   5.068  18.587  0.00  0.00    +0.000 A 
ATOM     24  C   UNL     1       7.979   6.084  19.107  0.00  0.00    +0.000 A 
ATOM     25  C   UNL     1       8.091   7.289  18.420  0.00  0.00    +0.000 A 
ATOM     26  F   UNL     1       8.863   8.260  18.924  0.00  0.00    +0.000 F 
ATOM     27  C   UNL     1       7.426   7.499  17.220  0.00  0.00    +0.000 A 
ATOM     28  C   UNL     1       6.624   6.481  16.698  0.00  0.00    +0.000 A 
ENDBRANCH  21  22
ENDBRANCH  20  21
ENDBRANCH   5  20
TORSDOF 4
ENDMDL
MODEL 2
REMARK VINA RESULT:      -8.6      0.843      1.300
REMARK  Name = 
REMARK  4 active torsions:
REMARK  status: ('A' for Active; 'I' for Inactive)
REMARK    1  A    between atoms: C_2  and  C_13
REMARK    2  A    between atoms: C_17  and  O_18
REMARK    3  A    between atoms: O_18  and  C_19
REMARK    4  A    between atoms: C_19  and  C_20
REMARK                            x       y       z     vdW  Elec       q    Type
REMARK                         _______ _______ _______ _____ _____    ______ ____
ROOT
ATOM      1  C   UNL     1       2.401   5.822  19.833  0.00  0.00    +0.000 A 
ATOM      2  C   UNL     1       2.021   5.023  20.915  0.00  0.00    +0.000 A 
ATOM      3  C   UNL     1       2.408   3.682  20.952  0.00  0.00    +0.000 A 
ATOM      4  C   UNL     1       3.210   3.159  19.932  0.00  0.00    +0.000 A 
ATOM      5  C   UNL     1       3.628   3.970  18.875  0.00  0.00    +0.000 A 
ATOM      6  C   UNL     1       3.187   5.291  18.805  0.00  0.00    +0.000 A 
ENDROOT
BRANCH   1   8
ATOM      7  O   UNL     1       2.414   7.951  18.849  0.00  0.00    +0.000 OA
ATOM      8  C   UNL     1       2.043   7.263  19.792  0.00  0.00    +0.000 C 
ATOM      9  N   UNL     1       1.318   7.695  20.884  0.00  0.00    +0.000 N 
ATOM     10  C   UNL     1       1.022   9.031  21.027  0.00  0.00    +0.000 A 
ATOM     11  N   UNL     1       1.205   9.698  22.148  0.00  0.00    +0.000 NA
ATOM     12  N   UNL     1       0.856  11.009  21.930  0.00  0.00    +0.000 NA
ATOM     13  C   UNL     1       0.360  11.097  20.715  0.00  0.00    +0.000 A 
ATOM     14  C   UNL     1      -0.235  12.172  20.002  0.00  0.00    +0.000 A 
ATOM     15  C   UNL     1      -0.837  11.932  18.821  0.00  0.00    +0.000 A 
ATOM     16  C   UNL     1      -0.870  10.595  18.244  0.00  0.00    +0.000 A 
ATOM     17  C   UNL     1      -0.244   9.591  18.880  0.00  0.00    +0.000 A 
ATOM     18  N   UNL     1       0.392   9.849  20.102  0.00  0.00    +0.000 N 
ATOM     19  H   UNL     1       1.503   7.222  21.761  0.00  0.00    +0.000 HD
ENDBRANCH   1   8
BRANCH   5  20
ATOM     20  O   UNL     1       4.475   3.390  17.970  0.00  0.00    +0.000 OA
BRANCH  20  21
ATOM     21  C   UNL     1       4.869   4.238  16.887  0.00  0.00    +0.000 C 
BRANCH  21  22
ATOM     22  C   UNL     1       5.945   5.186  17.346  0.00  0.00    +0.000 A 
ATOM     23  C   UNL     1       6.006   6.495  16.845  0.00  0.00    +0.000 A 
ATOM     24  C   UNL     1       6.964   7.384  17.325  0.00  0.00    +0.000 A 
ATOM     25  C   UNL     1       7.858   6.966  18.306  0.00  0.00    +0.000 A 
ATOM     26  F   UNL     1       8.774   7.828  18.765  0.00  0.00    +0.000 F 
ATOM     27  C   UNL     1       7.813   5.679  18.821  0.00  0.00    +0.000 A 
ATOM     28  C   UNL     1       6.854   4.785  18.340  0.00  0.00    +0.000 A 
ENDBRANCH  21  22
ENDBRANCH  20  21
ENDBRANCH   5  20
TORSDOF 4
ENDMDL
MODEL 3
REMARK VINA RESULT:      -8.5      3.934      8.658
REMARK  Name = 
REMARK  4 active torsions:
REMARK  status: ('A' for Active; 'I' for Inactive)
REMARK    1  A    between atoms: C_2  and  C_13
REMARK    2  A    between atoms: C_17  and  O_18
REMARK    3  A    between atoms: O_18  and  C_19
REMARK    4  A    between atoms: C_19  and  C_20
REMARK                            x       y       z     vdW  Elec       q    Type
REMARK                         _______ _______ _______ _____ _____    ______ ____
ROOT
ATOM      1  C   UNL     1       1.142   8.597  20.632  0.00  0.00    +0.000 A 
ATOM      2  C   UNL     1       0.835   8.703  21.992  0.00  0.00    +0.000 A 
ATOM      3  C   UNL     1       0.123   9.811  22.454  0.00  0.00    +0.000 A 
ATOM      4  C   UNL     1      -0.320  10.783  21.549  0.00  0.00    +0.000 A 
ATOM      5  C   UNL     1      -0.053  10.652  20.185  0.00  0.00    +0.000 A 
ATOM      6  C   UNL     1       0.714   9.579  19.733  0.00  0.00    +0.000 A 
ENDROOT
BRANCH   1   8
ATOM      7  O   UNL     1       2.031   6.436  20.836  0.00  0.00    +0.000 OA
ATOM      8  C   UNL     1       1.857   7.405  20.107  0.00  0.00    +0.000 C 
ATOM      9  N   UNL     1       2.290   7.536  18.803  0.00  0.00    +0.000 N 
ATOM     10  C   UNL     1       3.065   6.551  18.236  0.00  0.00    +0.000 A 
ATOM     11  N   UNL     1       4.174   6.796  17.570  0.00  0.00    +0.000 NA
ATOM     12  N   UNL     1       4.720   5.596  17.185  0.00  0.00    +0.000 NA
ATOM     13  C   UNL     1       3.877   4.645  17.523  0.00  0.00    +0.000 A 
ATOM     14  C   UNL     1       3.877   3.242  17.294  0.00  0.00    +0.000 A 
ATOM     15  C   UNL     1       2.779   2.521  17.592  0.00  0.00    +0.000 A 
ATOM     16  C   UNL     1       1.596   3.144  18.169  0.00  0.00    +0.000 A 
ATOM     17  C   UNL     1       1.620   4.456  18.456  0.00  0.00    +0.000 A 
ATOM     18  N   UNL     1       2.770   5.199  18.156  0.00  0.00    +0.000 N 
ATOM     19  H   UNL     1       2.534   8.472  18.503  0.00  0.00    +0.000 HD
ENDBRANCH   1   8
BRANCH   5  20
ATOM     20  O   UNL     1      -0.595  11.610  19.371  0.00  0.00    +0.000 OA
BRANCH  20  21
ATOM     21  C   UNL     1      -2.023  11.695  19.412  0.00  0.00    +0.000 C 
BRANCH  21  22
ATOM     22  C   UNL     1      -2.596  11.285  18.081  0.00  0.00    +0.000 A 
ATOM     23  C   UNL     1      -1.894  10.410  17.239  0.00  0.00    +0.000 A 
ATOM     24  C   UNL     1      -2.461   9.985  16.041  0.00  0.00    +0.000 A 
ATOM     25  C   UNL     1      -3.730  10.432  15.685  0.00  0.00    +0.000 A 
ATOM     26  F   UNL     1      -4.270  10.017  14.533  0.00  0.00    +0.000 F 
ATOM     27  C   UNL     1      -4.446  11.293  16.505  0.00  0.00    +0.000 A 
ATOM     28  C   UNL     1      -3.877  11.722  17.706  0.00  0.00    +0.000 A 
ENDBRANCH  21  22
ENDBRANCH  20  21
ENDBRANCH   5  20
TORSDOF 4
ENDMDL
MODEL 4
REMARK VINA RESULT:      -8.4      4.084      8.417
REMARK  Name = 
REMARK  4 active torsions:
REMARK  status: ('A' for Active; 'I' for Inactive)
REMARK    1  A    between atoms: C_2  and  C_13
REMARK    2  A    between atoms: C_17  and  O_18
REMARK    3  A    between atoms: O_18  and  C_19
REMARK    4  A    between atoms: C_19  and  C_20
REMARK                            x       y       z     vdW  Elec       q    Type
REMARK                         _______ _______ _______ _____ _____    ______ ____
ROOT
ATOM      1  C   UNL     1       3.035   4.055  18.480  0.00  0.00    +0.000 A 
ATOM      2  C   UNL     1       2.118   3.012  18.638  0.00  0.00    +0.000 A 
ATOM      3  C   UNL     1       1.101   3.126  19.587  0.00  0.00    +0.000 A 
ATOM      4  C   UNL     1       0.978   4.299  20.341  0.00  0.00    +0.000 A 
ATOM      5  C   UNL     1       1.867   5.358  20.150  0.00  0.00    +0.000 A 
ATOM      6  C   UNL     1       2.921   5.218  19.248  0.00  0.00    +0.000 A 
ENDROOT
BRANCH   1   8
ATOM      7  O   UNL     1       4.461   2.885  17.032  0.00  0.00    +0.000 OA
ATOM      8  C   UNL     1       4.098   3.979  17.445  0.00  0.00    +0.000 C 
ATOM      9  N   UNL     1       4.600   5.206  17.061  0.00  0.00    +0.000 N 
ATOM     10  C   UNL     1       5.667   5.270  16.195  0.00  0.00    +0.000 A 
ATOM     11  N   UNL     1       6.724   6.027  16.402  0.00  0.00    +0.000 NA
ATOM     12  N   UNL     1       7.614   5.816  15.377  0.00  0.00    +0.000 NA
ATOM     13  C   UNL     1       7.037   5.021  14.503  0.00  0.00    +0.000 A 
ATOM     14  C   UNL     1       7.445   4.549  13.226  0.00  0.00    +0.000 A 
ATOM     15  C   UNL     1       6.564   3.886  12.451  0.00  0.00    +0.000 A 
ATOM     16  C   UNL     1       5.206   3.620  12.903  0.00  0.00    +0.000 A 
ATOM     17  C   UNL     1       4.841   3.999  14.139  0.00  0.00    +0.000 A 
ATOM     18  N   UNL     1       5.765   4.676  14.946  0.00  0.00    +0.000 N 
ATOM     19  H   UNL     1       4.605   5.930  17.769  0.00  0.00    +0.000 HD
ENDBRANCH   1   8
BRANCH   5  20
ATOM     20  O   UNL     1       1.617   6.492  20.875  0.00  0.00    +0.000 OA
BRANCH  20  21
ATOM     21  C   UNL     1       1.795   7.716  20.157  0.00  0.00    +0.000 C 
BRANCH  21  22
ATOM     22  C   UNL     1       0.998   8.813  20.813  0.00  0.00    +0.000 A 
ATOM     23  C   UNL     1       0.389   9.813  20.042  0.00  0.00    +0.000 A 
ATOM     24  C   UNL     1      -0.400  10.784  20.652  0.00  0.00    +0.000 A 
ATOM     25  C   UNL     1      -0.581  10.755  22.032  0.00  0.00    +0.000 A 
ATOM     26  F   UNL     1      -1.343  11.691  22.611  0.00  0.00    +0.000 F 
ATOM     27  C   UNL     1       0.007   9.772  22.815  0.00  0.00    +0.000 A 
ATOM     28  C   UNL     1       0.800   8.797  22.204  0.00  0.00    +0.000 A 
ENDBRANCH  21  22
ENDBRANCH  20  21
ENDBRANCH   5  20
TORSDOF 4
ENDMDL
MODEL 5
REMARK VINA RESULT:      -8.4      2.022      2.557
REMARK  Name = 
REMARK  4 active torsions:
REMARK  status: ('A' for Active; 'I' for Inactive)
REMARK    1  A    between atoms: C_2  and  C_13
REMARK    2  A    between atoms: C_17  and  O_18
REMARK    3  A    between atoms: O_18  and  C_19
REMARK    4  A    between atoms: C_19  and  C_20
REMARK                            x       y       z     vdW  Elec       q    Type
REMARK                         _______ _______ _______ _____ _____    ______ ____
ROOT
ATOM      1  C   UNL     1       2.203   6.220  19.963  0.00  0.00    +0.000 A 
ATOM      2  C   UNL     1       1.429   5.380  20.770  0.00  0.00    +0.000 A 
ATOM      3  C   UNL     1       1.798   4.043  20.926  0.00  0.00    +0.000 A 
ATOM      4  C   UNL     1       2.962   3.564  20.315  0.00  0.00    +0.000 A 
ATOM      5  C   UNL     1       3.759   4.416  19.548  0.00  0.00    +0.000 A 
ATOM      6  C   UNL     1       3.356   5.734  19.339  0.00  0.00    +0.000 A 
ENDROOT
BRANCH   1   8
ATOM      7  O   UNL     1       2.191   8.259  18.804  0.00  0.00    +0.000 OA
ATOM      8  C   UNL     1       1.859   7.658  19.818  0.00  0.00    +0.000 C 
ATOM      9  N   UNL     1       1.193   8.191  20.903  0.00  0.00    +0.000 N 
ATOM     10  C   UNL     1       0.920   9.539  20.945  0.00  0.00    +0.000 A 
ATOM     11  N   UNL     1       1.163  10.295  21.995  0.00  0.00    +0.000 NA
ATOM     12  N   UNL     1       0.819  11.589  21.684  0.00  0.00    +0.000 NA
ATOM     13  C   UNL     1       0.266  11.581  20.491  0.00  0.00    +0.000 A 
ATOM     14  C   UNL     1      -0.351  12.601  19.718  0.00  0.00    +0.000 A 
ATOM     15  C   UNL     1      -1.012  12.272  18.591  0.00  0.00    +0.000 A 
ATOM     16  C   UNL     1      -1.089  10.892  18.133  0.00  0.00    +0.000 A 
ATOM     17  C   UNL     1      -0.443   9.936  18.821  0.00  0.00    +0.000 A 
ATOM     18  N   UNL     1       0.254  10.286  19.985  0.00  0.00    +0.000 N 
ATOM     19  H   UNL     1       1.415   7.791  21.807  0.00  0.00    +0.000 HD
ENDBRANCH   1   8
BRANCH   5  20
ATOM     20  O   UNL     1       4.918   3.877  19.059  0.00  0.00    +0.000 OA
BRANCH  20  21
ATOM     21  C   UNL     1       5.877   4.832  18.596  0.00  0.00    +0.000 C 
BRANCH  21  22
ATOM     22  C   UNL     1       6.038   4.711  17.104  0.00  0.00    +0.000 A 
ATOM     23  C   UNL     1       7.229   5.111  16.479  0.00  0.00    +0.000 A 
ATOM     24  C   UNL     1       7.394   4.934  15.108  0.00  0.00    +0.000 A 
ATOM     25  C   UNL     1       6.370   4.357  14.362  0.00  0.00    +0.000 A 
ATOM     26  F   UNL     1       6.536   4.187  13.045  0.00  0.00    +0.000 F 
ATOM     27  C   UNL     1       5.186   3.949  14.959  0.00  0.00    +0.000 A 
ATOM     28  C   UNL     1       5.018   4.127  16.335  0.00  0.00    +0.000 A 
ENDBRANCH  21  22
ENDBRANCH  20  21
ENDBRANCH   5  20
TORSDOF 4
ENDMDL
MODEL 6
REMARK VINA RESULT:      -8.4      1.966      2.486
REMARK  Name = 
REMARK  4 active torsions:
REMARK  status: ('A' for Active; 'I' for Inactive)
REMARK    1  A    between atoms: C_2  and  C_13
REMARK    2  A    between atoms: C_17  and  O_18
REMARK    3  A    between atoms: O_18  and  C_19
REMARK    4  A    between atoms: C_19  and  C_20
REMARK                            x       y       z     vdW  Elec       q    Type
REMARK                         _______ _______ _______ _____ _____    ______ ____
ROOT
ATOM      1  C   UNL     1       2.189   5.919  20.105  0.00  0.00    +0.000 A 
ATOM      2  C   UNL     1       1.330   4.905  20.538  0.00  0.00    +0.000 A 
ATOM      3  C   UNL     1       1.757   3.576  20.499  0.00  0.00    +0.000 A 
ATOM      4  C   UNL     1       3.054   3.272  20.072  0.00  0.00    +0.000 A 
ATOM      5  C   UNL     1       3.927   4.291  19.684  0.00  0.00    +0.000 A 
ATOM      6  C   UNL     1       3.479   5.610  19.662  0.00  0.00    +0.000 A 
ENDROOT
BRANCH   1   8
ATOM      7  O   UNL     1       2.169   8.132  19.330  0.00  0.00    +0.000 OA
ATOM      8  C   UNL     1       1.777   7.344  20.181  0.00  0.00    +0.000 C 
ATOM      9  N   UNL     1       0.981   7.644  21.268  0.00  0.00    +0.000 N 
ATOM     10  C   UNL     1       0.626   8.949  21.519  0.00  0.00    +0.000 A 
ATOM     11  N   UNL     1       0.723   9.511  22.706  0.00  0.00    +0.000 NA
ATOM     12  N   UNL     1       0.336  10.825  22.594  0.00  0.00    +0.000 NA
ATOM     13  C   UNL     1      -0.100  11.012  21.368  0.00  0.00    +0.000 A 
ATOM     14  C   UNL     1      -0.699  12.130  20.726  0.00  0.00    +0.000 A 
ATOM     15  C   UNL     1      -1.229  11.984  19.497  0.00  0.00    +0.000 A 
ATOM     16  C   UNL     1      -1.180  10.709  18.796  0.00  0.00    +0.000 A 
ATOM     17  C   UNL     1      -0.549   9.670  19.368  0.00  0.00    +0.000 A 
ATOM     18  N   UNL     1       0.012   9.831  20.642  0.00  0.00    +0.000 N 
ATOM     19  H   UNL     1       1.138   7.095  22.105  0.00  0.00    +0.000 HD
ENDBRANCH   1   8
BRANCH   5  20
ATOM     20  O   UNL     1       5.199   3.902  19.360  0.00  0.00    +0.000 OA
BRANCH  20  21
ATOM     21  C   UNL     1       5.995   4.912  18.733  0.00  0.00    +0.000 C 
BRANCH  21  22
ATOM     22  C   UNL     1       6.085   4.644  17.254  0.00  0.00    +0.000 A 
ATOM     23  C   UNL     1       5.002   4.082  16.561  0.00  0.00    +0.000 A 
ATOM     24  C   UNL     1       5.071   3.900  15.183  0.00  0.00    +0.000 A 
ATOM     25  C   UNL     1       6.221   4.279  14.497  0.00  0.00    +0.000 A 
ATOM     26  F   UNL     1       6.279   4.103  13.171  0.00  0.00    +0.000 F 
ATOM     27  C   UNL     1       7.302   4.842  15.159  0.00  0.00    +0.000 A 
ATOM     28  C   UNL     1       7.235   5.024  16.543  0.00  0.00    +0.000 A 
ENDBRANCH  21  22
ENDBRANCH  20  21
ENDBRANCH   5  20
TORSDOF 4
ENDMDL
MODEL 7
REMARK VINA RESULT:      -8.3      4.260      8.600
REMARK  Name = 
REMARK  4 active torsions:
REMARK  status: ('A' for Active; 'I' for Inactive)
REMARK    1  A    between atoms: C_2  and  C_13
REMARK    2  A    between atoms: C_17  and  O_18
REMARK    3  A    between atoms: O_18  and  C_19
REMARK    4  A    between atoms: C_19  and  C_20
REMARK                            x       y       z     vdW  Elec       q    Type
REMARK                         _______ _______ _______ _____ _____    ______ ____
ROOT
ATOM      1  C   UNL     1       3.370   4.612  18.327  0.00  0.00    +0.000 A 
ATOM      2  C   UNL     1       2.425   3.659  18.718  0.00  0.00    +0.000 A 
ATOM      3  C   UNL     1       1.514   3.966  19.730  0.00  0.00    +0.000 A 
ATOM      4  C   UNL     1       1.522   5.238  20.314  0.00  0.00    +0.000 A 
ATOM      5  C   UNL     1       2.436   6.204  19.890  0.00  0.00    +0.000 A 
ATOM      6  C   UNL     1       3.387   5.876  18.925  0.00  0.00    +0.000 A 
ENDROOT
BRANCH   1   8
ATOM      7  O   UNL     1       4.522   3.168  16.881  0.00  0.00    +0.000 OA
ATOM      8  C   UNL     1       4.320   4.328  17.220  0.00  0.00    +0.000 C 
ATOM      9  N   UNL     1       4.917   5.452  16.687  0.00  0.00    +0.000 N 
ATOM     10  C   UNL     1       5.902   5.319  15.735  0.00  0.00    +0.000 A 
ATOM     11  N   UNL     1       7.050   5.962  15.787  0.00  0.00    +0.000 NA
ATOM     12  N   UNL     1       7.815   5.564  14.716  0.00  0.00    +0.000 NA
ATOM     13  C   UNL     1       7.077   4.774  13.968  0.00  0.00    +0.000 A 
ATOM     14  C   UNL     1       7.313   4.154  12.711  0.00  0.00    +0.000 A 
ATOM     15  C   UNL     1       6.299   3.539  12.073  0.00  0.00    +0.000 A 
ATOM     16  C   UNL     1       4.966   3.471  12.656  0.00  0.00    +0.000 A 
ATOM     17  C   UNL     1       4.758   3.990  13.877  0.00  0.00    +0.000 A 
ATOM     18  N   UNL     1       5.820   4.618  14.542  0.00  0.00    +0.000 N 
ATOM     19  H   UNL     1       5.065   6.226  17.323  0.00  0.00    +0.000 HD
ENDBRANCH   1   8
BRANCH   5  20
ATOM     20  O   UNL     1       2.313   7.442  20.463  0.00  0.00    +0.000 OA
BRANCH  20  21
ATOM     21  C   UNL     1       1.515   8.370  19.723  0.00  0.00    +0.000 C 
BRANCH  21  22
ATOM     22  C   UNL     1       0.728   9.235  20.671  0.00  0.00    +0.000 A 
ATOM     23  C   UNL     1       0.116   8.680  21.805  0.00  0.00    +0.000 A 
ATOM     24  C   UNL     1      -0.553   9.498  22.710  0.00  0.00    +0.000 A 
ATOM     25  C   UNL     1      -0.610  10.871  22.484  0.00  0.00    +0.000 A 
ATOM     26  F   UNL     1      -1.253  11.652  23.361  0.00  0.00    +0.000 F 
ATOM     27  C   UNL     1      -0.007  11.443  21.373  0.00  0.00    +0.000 A 
ATOM     28  C   UNL     1       0.663  10.623  20.462  0.00  0.00    +0.000 A 
ENDBRANCH  21  22
ENDBRANCH  20  21
ENDBRANCH   5  20
TORSDOF 4
ENDMDL
MODEL 8
REMARK VINA RESULT:      -8.2      4.013      8.088
REMARK  Name = 
REMARK  4 active torsions:
REMARK  status: ('A' for Active; 'I' for Inactive)
REMARK    1  A    between atoms: C_2  and  C_13
REMARK    2  A    between atoms: C_17  and  O_18
REMARK    3  A    between atoms: O_18  and  C_19
REMARK    4  A    between atoms: C_19  and  C_20
REMARK                            x       y       z     vdW  Elec       q    Type
REMARK                         _______ _______ _______ _____ _____    ______ ____
ROOT
ATOM      1  C   UNL     1       3.002   3.771  18.319  0.00  0.00    +0.000 A 
ATOM      2  C   UNL     1       2.119   2.690  18.400  0.00  0.00    +0.000 A 
ATOM      3  C   UNL     1       1.066   2.728  19.316  0.00  0.00    +0.000 A 
ATOM      4  C   UNL     1       0.873   3.862  20.112  0.00  0.00    +0.000 A 
ATOM      5  C   UNL     1       1.728   4.959  19.996  0.00  0.00    +0.000 A 
ATOM      6  C   UNL     1       2.817   4.896  19.129  0.00  0.00    +0.000 A 
ENDROOT
BRANCH   1   8
ATOM      7  O   UNL     1       4.529   2.715  16.886  0.00  0.00    +0.000 OA
ATOM      8  C   UNL     1       4.102   3.777  17.320  0.00  0.00    +0.000 C 
ATOM      9  N   UNL     1       4.561   5.037  16.995  0.00  0.00    +0.000 N 
ATOM     10  C   UNL     1       5.653   5.178  16.170  0.00  0.00    +0.000 A 
ATOM     11  N   UNL     1       6.667   5.974  16.440  0.00  0.00    +0.000 NA
ATOM     12  N   UNL     1       7.600   5.836  15.441  0.00  0.00    +0.000 NA
ATOM     13  C   UNL     1       7.091   5.046  14.522  0.00  0.00    +0.000 A 
ATOM     14  C   UNL     1       7.564   4.636  13.246  0.00  0.00    +0.000 A 
ATOM     15  C   UNL     1       6.742   3.961  12.419  0.00  0.00    +0.000 A 
ATOM     16  C   UNL     1       5.383   3.620  12.813  0.00  0.00    +0.000 A 
ATOM     17  C   UNL     1       4.958   3.941  14.046  0.00  0.00    +0.000 A 
ATOM     18  N   UNL     1       5.821   4.631  14.907  0.00  0.00    +0.000 N 
ATOM     19  H   UNL     1       4.508   5.737  17.725  0.00  0.00    +0.000 HD
ENDBRANCH   1   8
BRANCH   5  20
ATOM     20  O   UNL     1       1.411   6.052  20.758  0.00  0.00    +0.000 OA
BRANCH  20  21
ATOM     21  C   UNL     1       2.288   7.171  20.599  0.00  0.00    +0.000 C 
BRANCH  21  22
ATOM     22  C   UNL     1       1.548   8.310  19.950  0.00  0.00    +0.000 A 
ATOM     23  C   UNL     1       1.724   8.592  18.587  0.00  0.00    +0.000 A 
ATOM     24  C   UNL     1       0.987   9.605  17.980  0.00  0.00    +0.000 A 
ATOM     25  C   UNL     1       0.072  10.335  18.735  0.00  0.00    +0.000 A 
ATOM     26  F   UNL     1      -0.636  11.305  18.144  0.00  0.00    +0.000 F 
ATOM     27  C   UNL     1      -0.124  10.070  20.083  0.00  0.00    +0.000 A 
ATOM     28  C   UNL     1       0.617   9.055  20.693  0.00  0.00    +0.000 A 
ENDBRANCH  21  22
ENDBRANCH  20  21
ENDBRANCH   5  20
TORSDOF 4
ENDMDL
MODEL 9
REMARK VINA RESULT:      -8.2      0.902      1.054
REMARK  Name = 
REMARK  4 active torsions:
REMARK  status: ('A' for Active; 'I' for Inactive)
REMARK    1  A    between atoms: C_2  and  C_13
REMARK    2  A    between atoms: C_17  and  O_18
REMARK    3  A    between atoms: O_18  and  C_19
REMARK    4  A    between atoms: C_19  and  C_20
REMARK                            x       y       z     vdW  Elec       q    Type
REMARK                         _______ _______ _______ _____ _____    ______ ____
ROOT
ATOM      1  C   UNL     1       2.005   6.007  20.024  0.00  0.00    +0.000 A 
ATOM      2  C   UNL     1       2.128   5.110  21.089  0.00  0.00    +0.000 A 
ATOM      3  C   UNL     1       2.505   3.789  20.838  0.00  0.00    +0.000 A 
ATOM      4  C   UNL     1       2.801   3.384  19.531  0.00  0.00    +0.000 A 
ATOM      5  C   UNL     1       2.723   4.294  18.475  0.00  0.00    +0.000 A 
ATOM      6  C   UNL     1       2.284   5.594  18.717  0.00  0.00    +0.000 A 
ENDROOT
BRANCH   1   8
ATOM      7  O   UNL     1       2.198   8.308  19.613  0.00  0.00    +0.000 OA
ATOM      8  C   UNL     1       1.652   7.429  20.269  0.00  0.00    +0.000 C 
ATOM      9  N   UNL     1       0.723   7.615  21.271  0.00  0.00    +0.000 N 
ATOM     10  C   UNL     1       0.396   8.889  21.676  0.00  0.00    +0.000 A 
ATOM     11  N   UNL     1       0.347   9.258  22.939  0.00  0.00    +0.000 NA
ATOM     12  N   UNL     1       0.040  10.596  22.986  0.00  0.00    +0.000 NA
ATOM     13  C   UNL     1      -0.206  10.994  21.757  0.00  0.00    +0.000 A 
ATOM     14  C   UNL     1      -0.654  12.234  21.227  0.00  0.00    +0.000 A 
ATOM     15  C   UNL     1      -1.009  12.311  19.929  0.00  0.00    +0.000 A 
ATOM     16  C   UNL     1      -0.918  11.156  19.048  0.00  0.00    +0.000 A 
ATOM     17  C   UNL     1      -0.424  10.003  19.528  0.00  0.00    +0.000 A 
ATOM     18  N   UNL     1      -0.045   9.931  20.876  0.00  0.00    +0.000 N 
ATOM     19  H   UNL     1       0.733   6.937  22.024  0.00  0.00    +0.000 HD
ENDBRANCH   1   8
BRANCH   5  20
ATOM     20  O   UNL     1       3.110   3.825  17.248  0.00  0.00    +0.000 OA
BRANCH  20  21
ATOM     21  C   UNL     1       4.472   3.395  17.171  0.00  0.00    +0.000 C 
BRANCH  21  22
ATOM     22  C   UNL     1       5.388   4.586  17.261  0.00  0.00    +0.000 A 
ATOM     23  C   UNL     1       6.274   4.727  18.339  0.00  0.00    +0.000 A 
ATOM     24  C   UNL     1       7.163   5.797  18.379  0.00  0.00    +0.000 A 
ATOM     25  C   UNL     1       7.169   6.725  17.342  0.00  0.00    +0.000 A 
ATOM     26  F   UNL     1       8.029   7.750  17.386  0.00  0.00    +0.000 F 
ATOM     27  C   UNL     1       6.307   6.603  16.261  0.00  0.00    +0.000 A 
ATOM     28  C   UNL     1       5.412   5.530  16.221  0.00  0.00    +0.000 A 
ENDBRANCH  21  22
ENDBRANCH  20  21
ENDBRANCH   5  20
TORSDOF 4
ENDMDL
