MODEL 1
REMARK VINA RESULT:      -8.0      0.000      0.000
REMARK  Name = 
REMARK  6 active torsions:
REMARK  status: ('A' for Active; 'I' for Inactive)
REMARK    1  A    between atoms: C_2  and  C_3
REMARK    2  A    between atoms: C_5  and  C_6
REMARK    3  A    between atoms: N_8  and  C_9
REMARK    4  A    between atoms: N_8  and  C_20
REMARK    5  A    between atoms: C_9  and  C_10
REMARK    6  A    between atoms: C_13  and  C_14
REMARK                            x       y       z     vdW  Elec       q    Type
REMARK                         _______ _______ _______ _____ _____    ______ ____
ROOT
ATOM      1  C   UNL     1       0.792   9.867  18.652  0.00  0.00    +0.000 C 
ATOM      2  O   UNL     1       1.812   9.825  17.959  0.00  0.00    +0.000 OA
ATOM      3  N   UNL     1       0.752   9.291  19.942  0.00  0.00    +0.000 N 
ENDROOT
BRANCH   1   6
ATOM      4  C   UNL     1      -2.508  11.184  17.524  0.00  0.00    +0.000 A 
ATOM      5  C   UNL     1      -1.564  10.172  17.489  0.00  0.00    +0.000 A 
ATOM      6  C   UNL     1      -0.395  10.610  18.172  0.00  0.00    +0.000 A 
ATOM      7  C   UNL     1      -0.579  11.973  18.358  0.00  0.00    +0.000 A 
ATOM      8  N   UNL     1      -1.849  12.308  17.960  0.00  0.00    +0.000 N 
ATOM      9  H   UNL     1      -2.284  13.215  18.087  0.00  0.00    +0.000 HD
BRANCH   4  11
ATOM     10  O   UNL     1      -4.352  10.922  16.114  0.00  0.00    +0.000 OA
ATOM     11  C   UNL     1      -3.927  11.082  17.254  0.00  0.00    +0.000 C 
ATOM     12  N   UNL     1      -4.769  11.160  18.360  0.00  0.00    +0.000 N 
ATOM     13  C   UNL     1      -6.205  11.044  18.171  0.00  0.00    +0.000 C 
ATOM     14  C   UNL     1      -6.716  12.422  18.534  0.00  0.00    +0.000 C 
ATOM     15  C   UNL     1      -5.841  12.786  19.728  0.00  0.00    +0.000 C 
ATOM     16  C   UNL     1      -4.493  12.132  19.419  0.00  0.00    +0.000 C 
ENDBRANCH   4  11
ENDBRANCH   1   6
BRANCH   3  17
ATOM     17  C   UNL     1      -0.402   9.311  20.814  0.00  0.00    +0.000 C 
ATOM     18  C   UNL     1      -0.605  10.428  21.816  0.00  0.00    +0.000 C 
ATOM     19  C   UNL     1      -0.333   9.043  22.297  0.00  0.00    +0.000 C 
ENDBRANCH   3  17
BRANCH   3  20
ATOM     20  C   UNL     1       1.954   8.604  20.438  0.00  0.00    +0.000 C 
BRANCH  20  21
ATOM     21  C   UNL     1       2.014   7.148  20.033  0.00  0.00    +0.000 A 
ATOM     22  C   UNL     1       2.557   6.784  18.794  0.00  0.00    +0.000 A 
ATOM     23  C   UNL     1       2.481   5.464  18.345  0.00  0.00    +0.000 A 
ATOM     24  C   UNL     1       1.849   4.486  19.124  0.00  0.00    +0.000 A 
ATOM     25  C   UNL     1       1.405   4.827  20.410  0.00  0.00    +0.000 A 
ATOM     26  C   UNL     1       1.488   6.146  20.861  0.00  0.00    +0.000 A 
BRANCH  24  27
ATOM     27  C   UNL     1       1.569   3.111  18.568  0.00  0.00    +0.000 C 
ATOM     28  F   UNL     1       2.207   2.111  19.237  0.00  0.00    +0.000 F 
ATOM     29  F   UNL     1       0.249   2.788  18.576  0.00  0.00    +0.000 F 
ATOM     30  F   UNL     1       1.973   2.996  17.269  0.00  0.00    +0.000 F 
ENDBRANCH  24  27
ENDBRANCH  20  21
ENDBRANCH   3  20
TORSDOF 6
ENDMDL
MODEL 2
REMARK VINA RESULT:      -7.8      0.855      1.491
REMARK  Name = 
REMARK  6 active torsions:
REMARK  status: ('A' for Active; 'I' for Inactive)
REMARK    1  A    between atoms: C_2  and  C_3
REMARK    2  A    between atoms: C_5  and  C_6
REMARK    3  A    between atoms: N_8  and  C_9
REMARK    4  A    between atoms: N_8  and  C_20
REMARK    5  A    between atoms: C_9  and  C_10
REMARK    6  A    between atoms: C_13  and  C_14
REMARK                            x       y       z     vdW  Elec       q    Type
REMARK                         _______ _______ _______ _____ _____    ______ ____
ROOT
ATOM      1  C   UNL     1       0.974   9.596  18.417  0.00  0.00    +0.000 C 
ATOM      2  O   UNL     1       1.820   9.400  17.541  0.00  0.00    +0.000 OA
ATOM      3  N   UNL     1       1.074   8.986  19.688  0.00  0.00    +0.000 N 
ENDROOT
BRANCH   1   6
ATOM      4  C   UNL     1      -2.183  11.525  17.956  0.00  0.00    +0.000 A 
ATOM      5  C   UNL     1      -1.465  10.361  17.739  0.00  0.00    +0.000 A 
ATOM      6  C   UNL     1      -0.126  10.557  18.178  0.00  0.00    +0.000 A 
ATOM      7  C   UNL     1      -0.017  11.923  18.393  0.00  0.00    +0.000 A 
ATOM      8  N   UNL     1      -1.256  12.496  18.252  0.00  0.00    +0.000 N 
ATOM      9  H   UNL     1      -1.485  13.462  18.460  0.00  0.00    +0.000 HD
BRANCH   4  11
ATOM     10  O   UNL     1      -4.276  11.684  16.933  0.00  0.00    +0.000 OA
ATOM     11  C   UNL     1      -3.621  11.691  17.971  0.00  0.00    +0.000 C 
ATOM     12  N   UNL     1      -4.209  11.839  19.223  0.00  0.00    +0.000 N 
ATOM     13  C   UNL     1      -5.651  11.988  19.320  0.00  0.00    +0.000 C 
ATOM     14  C   UNL     1      -5.822  13.407  19.821  0.00  0.00    +0.000 C 
ATOM     15  C   UNL     1      -4.684  13.532  20.827  0.00  0.00    +0.000 C 
ATOM     16  C   UNL     1      -3.564  12.675  20.236  0.00  0.00    +0.000 C 
ENDBRANCH   4  11
ENDBRANCH   1   6
BRANCH   3  17
ATOM     17  C   UNL     1       0.129   9.177  20.766  0.00  0.00    +0.000 C 
ATOM     18  C   UNL     1       0.236  10.364  21.698  0.00  0.00    +0.000 C 
ATOM     19  C   UNL     1       0.473   8.989  22.222  0.00  0.00    +0.000 C 
ENDBRANCH   3  17
BRANCH   3  20
ATOM     20  C   UNL     1       2.202   8.077  19.940  0.00  0.00    +0.000 C 
BRANCH  20  21
ATOM     21  C   UNL     1       1.886   6.635  19.611  0.00  0.00    +0.000 A 
ATOM     22  C   UNL     1       1.447   5.764  20.616  0.00  0.00    +0.000 A 
ATOM     23  C   UNL     1       1.299   4.399  20.360  0.00  0.00    +0.000 A 
ATOM     24  C   UNL     1       1.600   3.879  19.095  0.00  0.00    +0.000 A 
ATOM     25  C   UNL     1       1.933   4.766  18.060  0.00  0.00    +0.000 A 
ATOM     26  C   UNL     1       2.074   6.132  18.316  0.00  0.00    +0.000 A 
BRANCH  24  27
ATOM     27  C   UNL     1       1.651   2.390  18.859  0.00  0.00    +0.000 C 
ATOM     28  F   UNL     1       0.459   1.856  18.472  0.00  0.00    +0.000 F 
ATOM     29  F   UNL     1       2.553   2.028  17.907  0.00  0.00    +0.000 F 
ATOM     30  F   UNL     1       2.007   1.708  19.987  0.00  0.00    +0.000 F 
ENDBRANCH  24  27
ENDBRANCH  20  21
ENDBRANCH   3  20
TORSDOF 6
ENDMDL
MODEL 3
REMARK VINA RESULT:      -7.8      4.110      8.110
REMARK  Name = 
REMARK  6 active torsions:
REMARK  status: ('A' for Active; 'I' for Inactive)
REMARK    1  A    between atoms: C_2  and  C_3
REMARK    2  A    between atoms: C_5  and  C_6
REMARK    3  A    between atoms: N_8  and  C_9
REMARK    4  A    between atoms: N_8  and  C_20
REMARK    5  A    between atoms: C_9  and  C_10
REMARK    6  A    between atoms: C_13  and  C_14
REMARK                            x       y       z     vdW  Elec       q    Type
REMARK                         _______ _______ _______ _____ _____    ______ ____
ROOT
ATOM      1  C   UNL     1       1.824   9.393  18.343  0.00  0.00    +0.000 C 
ATOM      2  O   UNL     1       1.834  10.116  17.344  0.00  0.00    +0.000 OA
ATOM      3  N   UNL     1       1.170   9.788  19.533  0.00  0.00    +0.000 N 
ENDROOT
BRANCH   1   6
ATOM      4  C   UNL     1       2.738   5.780  18.257  0.00  0.00    +0.000 A 
ATOM      5  C   UNL     1       2.003   6.800  18.835  0.00  0.00    +0.000 A 
ATOM      6  C   UNL     1       2.426   8.042  18.283  0.00  0.00    +0.000 A 
ATOM      7  C   UNL     1       3.590   7.747  17.589  0.00  0.00    +0.000 A 
ATOM      8  N   UNL     1       3.772   6.386  17.583  0.00  0.00    +0.000 N 
ATOM      9  H   UNL     1       4.483   5.890  17.058  0.00  0.00    +0.000 HD
BRANCH   4  11
ATOM     10  O   UNL     1       1.915   3.815  17.300  0.00  0.00    +0.000 OA
ATOM     11  C   UNL     1       2.445   4.362  18.262  0.00  0.00    +0.000 C 
ATOM     12  N   UNL     1       2.813   3.663  19.407  0.00  0.00    +0.000 N 
ATOM     13  C   UNL     1       2.571   2.232  19.478  0.00  0.00    +0.000 C 
ATOM     14  C   UNL     1       1.520   2.109  20.561  0.00  0.00    +0.000 C 
ATOM     15  C   UNL     1       1.983   3.146  21.577  0.00  0.00    +0.000 C 
ATOM     16  C   UNL     1       2.596   4.259  20.726  0.00  0.00    +0.000 C 
ENDBRANCH   4  11
ENDBRANCH   1   6
BRANCH   3  17
ATOM     17  C   UNL     1       1.105   8.990  20.737  0.00  0.00    +0.000 C 
ATOM     18  C   UNL     1      -0.224   8.592  21.341  0.00  0.00    +0.000 C 
ATOM     19  C   UNL     1       0.670   9.531  22.076  0.00  0.00    +0.000 C 
ENDBRANCH   3  17
BRANCH   3  20
ATOM     20  C   UNL     1       0.521  11.107  19.568  0.00  0.00    +0.000 C 
BRANCH  20  21
ATOM     21  C   UNL     1      -0.928  11.067  19.136  0.00  0.00    +0.000 A 
ATOM     22  C   UNL     1      -1.355  10.122  18.195  0.00  0.00    +0.000 A 
ATOM     23  C   UNL     1      -2.650  10.172  17.675  0.00  0.00    +0.000 A 
ATOM     24  C   UNL     1      -3.538  11.177  18.080  0.00  0.00    +0.000 A 
ATOM     25  C   UNL     1      -3.147  12.055  19.102  0.00  0.00    +0.000 A 
ATOM     26  C   UNL     1      -1.853  12.000  19.626  0.00  0.00    +0.000 A 
BRANCH  24  27
ATOM     27  C   UNL     1      -4.860  11.376  17.379  0.00  0.00    +0.000 C 
ATOM     28  F   UNL     1      -5.878  10.646  17.915  0.00  0.00    +0.000 F 
ATOM     29  F   UNL     1      -5.280  12.669  17.383  0.00  0.00    +0.000 F 
ATOM     30  F   UNL     1      -4.798  11.008  16.066  0.00  0.00    +0.000 F 
ENDBRANCH  24  27
ENDBRANCH  20  21
ENDBRANCH   3  20
TORSDOF 6
ENDMDL
MODEL 4
REMARK VINA RESULT:      -7.6      4.402      8.839
REMARK  Name = 
REMARK  6 active torsions:
REMARK  status: ('A' for Active; 'I' for Inactive)
REMARK    1  A    between atoms: C_2  and  C_3
REMARK    2  A    between atoms: C_5  and  C_6
REMARK    3  A    between atoms: N_8  and  C_9
REMARK    4  A    between atoms: N_8  and  C_20
REMARK    5  A    between atoms: C_9  and  C_10
REMARK    6  A    between atoms: C_13  and  C_14
REMARK                            x       y       z     vdW  Elec       q    Type
REMARK                         _______ _______ _______ _____ _____    ______ ____
ROOT
ATOM      1  C   UNL     1       1.738   9.144  18.654  0.00  0.00    +0.000 C 
ATOM      2  O   UNL     1       1.833   9.701  17.558  0.00  0.00    +0.000 OA
ATOM      3  N   UNL     1       1.102   9.772  19.749  0.00  0.00    +0.000 N 
ENDROOT
BRANCH   1   6
ATOM      4  C   UNL     1       3.287   5.754  18.538  0.00  0.00    +0.000 A 
ATOM      5  C   UNL     1       2.684   6.803  17.865  0.00  0.00    +0.000 A 
ATOM      6  C   UNL     1       2.214   7.751  18.816  0.00  0.00    +0.000 A 
ATOM      7  C   UNL     1       2.310   7.107  20.041  0.00  0.00    +0.000 A 
ATOM      8  N   UNL     1       2.951   5.906  19.862  0.00  0.00    +0.000 N 
ATOM      9  H   UNL     1       3.250   5.283  20.605  0.00  0.00    +0.000 HD
BRANCH   4  11
ATOM     10  O   UNL     1       4.015   3.555  18.244  0.00  0.00    +0.000 OA
ATOM     11  C   UNL     1       4.175   4.747  17.998  0.00  0.00    +0.000 C 
ATOM     12  N   UNL     1       5.199   5.208  17.176  0.00  0.00    +0.000 N 
ATOM     13  C   UNL     1       6.117   4.253  16.578  0.00  0.00    +0.000 C 
ATOM     14  C   UNL     1       7.435   4.567  17.255  0.00  0.00    +0.000 C 
ATOM     15  C   UNL     1       7.404   6.089  17.328  0.00  0.00    +0.000 C 
ATOM     16  C   UNL     1       5.927   6.426  17.533  0.00  0.00    +0.000 C 
ENDBRANCH   4  11
ENDBRANCH   1   6
BRANCH   3  17
ATOM     17  C   UNL     1       0.942   9.176  21.057  0.00  0.00    +0.000 C 
ATOM     18  C   UNL     1      -0.408   8.681  21.531  0.00  0.00    +0.000 C 
ATOM     19  C   UNL     1       0.227   9.852  22.201  0.00  0.00    +0.000 C 
ENDBRANCH   3  17
BRANCH   3  20
ATOM     20  C   UNL     1       0.577  11.133  19.564  0.00  0.00    +0.000 C 
BRANCH  20  21
ATOM     21  C   UNL     1      -0.895  11.160  19.219  0.00  0.00    +0.000 A 
ATOM     22  C   UNL     1      -1.394  10.335  18.203  0.00  0.00    +0.000 A 
ATOM     23  C   UNL     1      -2.717  10.459  17.772  0.00  0.00    +0.000 A 
ATOM     24  C   UNL     1      -3.561  11.421  18.342  0.00  0.00    +0.000 A 
ATOM     25  C   UNL     1      -3.094  12.170  19.432  0.00  0.00    +0.000 A 
ATOM     26  C   UNL     1      -1.772  12.040  19.867  0.00  0.00    +0.000 A 
BRANCH  24  27
ATOM     27  C   UNL     1      -4.917  11.714  17.750  0.00  0.00    +0.000 C 
ATOM     28  F   UNL     1      -4.877  12.052  16.431  0.00  0.00    +0.000 F 
ATOM     29  F   UNL     1      -5.781  10.667  17.845  0.00  0.00    +0.000 F 
ATOM     30  F   UNL     1      -5.530  12.760  18.377  0.00  0.00    +0.000 F 
ENDBRANCH  24  27
ENDBRANCH  20  21
ENDBRANCH   3  20
TORSDOF 6
ENDMDL
MODEL 5
REMARK VINA RESULT:      -7.6      4.682      8.824
REMARK  Name = 
REMARK  6 active torsions:
REMARK  status: ('A' for Active; 'I' for Inactive)
REMARK    1  A    between atoms: C_2  and  C_3
REMARK    2  A    between atoms: C_5  and  C_6
REMARK    3  A    between atoms: N_8  and  C_9
REMARK    4  A    between atoms: N_8  and  C_20
REMARK    5  A    between atoms: C_9  and  C_10
REMARK    6  A    between atoms: C_13  and  C_14
REMARK                            x       y       z     vdW  Elec       q    Type
REMARK                         _______ _______ _______ _____ _____    ______ ____
ROOT
ATOM      1  C   UNL     1       0.602  10.906  19.492  0.00  0.00    +0.000 C 
ATOM      2  O   UNL     1       1.312  11.837  19.879  0.00  0.00    +0.000 OA
ATOM      3  N   UNL     1      -0.714  11.126  19.024  0.00  0.00    +0.000 N 
ENDROOT
BRANCH   1   6
ATOM      4  C   UNL     1       2.355   7.680  18.845  0.00  0.00    +0.000 A 
ATOM      5  C   UNL     1       1.712   8.798  18.343  0.00  0.00    +0.000 A 
ATOM      6  C   UNL     1       1.155   9.535  19.427  0.00  0.00    +0.000 A 
ATOM      7  C   UNL     1       1.252   8.688  20.521  0.00  0.00    +0.000 A 
ATOM      8  N   UNL     1       1.969   7.575  20.161  0.00  0.00    +0.000 N 
ATOM      9  H   UNL     1       2.281   6.846  20.793  0.00  0.00    +0.000 HD
BRANCH   4  11
ATOM     10  O   UNL     1       4.146   7.300  17.396  0.00  0.00    +0.000 OA
ATOM     11  C   UNL     1       3.318   6.834  18.173  0.00  0.00    +0.000 C 
ATOM     12  N   UNL     1       3.258   5.477  18.474  0.00  0.00    +0.000 N 
ATOM     13  C   UNL     1       4.209   4.567  17.854  0.00  0.00    +0.000 C 
ATOM     14  C   UNL     1       3.339   3.715  16.955  0.00  0.00    +0.000 C 
ATOM     15  C   UNL     1       2.094   3.510  17.811  0.00  0.00    +0.000 C 
ATOM     16  C   UNL     1       1.960   4.814  18.598  0.00  0.00    +0.000 C 
ENDBRANCH   4  11
ENDBRANCH   1   6
BRANCH   3  17
ATOM     17  C   UNL     1      -1.599  10.088  18.544  0.00  0.00    +0.000 C 
ATOM     18  C   UNL     1      -1.713   9.778  17.067  0.00  0.00    +0.000 C 
ATOM     19  C   UNL     1      -2.878  10.361  17.793  0.00  0.00    +0.000 C 
ENDBRANCH   3  17
BRANCH   3  20
ATOM     20  C   UNL     1      -1.238  12.500  19.035  0.00  0.00    +0.000 C 
BRANCH  20  21
ATOM     21  C   UNL     1      -1.991  12.837  20.303  0.00  0.00    +0.000 A 
ATOM     22  C   UNL     1      -1.291  13.207  21.459  0.00  0.00    +0.000 A 
ATOM     23  C   UNL     1      -1.961  13.372  22.673  0.00  0.00    +0.000 A 
ATOM     24  C   UNL     1      -3.343  13.157  22.755  0.00  0.00    +0.000 A 
ATOM     25  C   UNL     1      -4.058  12.895  21.577  0.00  0.00    +0.000 A 
ATOM     26  C   UNL     1      -3.388  12.736  20.362  0.00  0.00    +0.000 A 
BRANCH  24  27
ATOM     27  C   UNL     1      -4.047  13.122  24.089  0.00  0.00    +0.000 C 
ATOM     28  F   UNL     1      -3.445  13.884  25.045  0.00  0.00    +0.000 F 
ATOM     29  F   UNL     1      -5.337  13.545  24.026  0.00  0.00    +0.000 F 
ATOM     30  F   UNL     1      -4.094  11.859  24.606  0.00  0.00    +0.000 F 
ENDBRANCH  24  27
ENDBRANCH  20  21
ENDBRANCH   3  20
TORSDOF 6
ENDMDL
MODEL 6
REMARK VINA RESULT:      -7.5      3.997      8.373
REMARK  Name = 
REMARK  6 active torsions:
REMARK  status: ('A' for Active; 'I' for Inactive)
REMARK    1  A    between atoms: C_2  and  C_3
REMARK    2  A    between atoms: C_5  and  C_6
REMARK    3  A    between atoms: N_8  and  C_9
REMARK    4  A    between atoms: N_8  and  C_20
REMARK    5  A    between atoms: C_9  and  C_10
REMARK    6  A    between atoms: C_13  and  C_14
REMARK                            x       y       z     vdW  Elec       q    Type
REMARK                         _______ _______ _______ _____ _____    ______ ____
ROOT
ATOM      1  C   UNL     1       2.048   9.329  18.404  0.00  0.00    +0.000 C 
ATOM      2  O   UNL     1       2.173  10.177  17.518  0.00  0.00    +0.000 OA
ATOM      3  N   UNL     1       1.325   9.600  19.588  0.00  0.00    +0.000 N 
ENDROOT
BRANCH   1   6
ATOM      4  C   UNL     1       2.784   5.707  17.917  0.00  0.00    +0.000 A 
ATOM      5  C   UNL     1       2.086   6.691  18.595  0.00  0.00    +0.000 A 
ATOM      6  C   UNL     1       2.584   7.964  18.199  0.00  0.00    +0.000 A 
ATOM      7  C   UNL     1       3.750   7.690  17.499  0.00  0.00    +0.000 A 
ATOM      8  N   UNL     1       3.864   6.332  17.339  0.00  0.00    +0.000 N 
ATOM      9  H   UNL     1       4.562   5.863  16.773  0.00  0.00    +0.000 HD
BRANCH   4  11
ATOM     10  O   UNL     1       1.303   3.987  17.365  0.00  0.00    +0.000 OA
ATOM     11  C   UNL     1       2.421   4.315  17.752  0.00  0.00    +0.000 C 
ATOM     12  N   UNL     1       3.413   3.384  18.041  0.00  0.00    +0.000 N 
ATOM     13  C   UNL     1       3.129   1.967  17.877  0.00  0.00    +0.000 C 
ATOM     14  C   UNL     1       3.167   1.439  19.296  0.00  0.00    +0.000 C 
ATOM     15  C   UNL     1       4.335   2.213  19.897  0.00  0.00    +0.000 C 
ATOM     16  C   UNL     1       4.277   3.576  19.205  0.00  0.00    +0.000 C 
ENDBRANCH   4  11
ENDBRANCH   1   6
BRANCH   3  17
ATOM     17  C   UNL     1       1.128   8.653  20.664  0.00  0.00    +0.000 C 
ATOM     18  C   UNL     1      -0.187   8.580  21.409  0.00  0.00    +0.000 C 
ATOM     19  C   UNL     1       1.040   9.046  22.117  0.00  0.00    +0.000 C 
ENDBRANCH   3  17
BRANCH   3  20
ATOM     20  C   UNL     1       0.744  10.939  19.761  0.00  0.00    +0.000 C 
BRANCH  20  21
ATOM     21  C   UNL     1      -0.628  11.075  19.138  0.00  0.00    +0.000 A 
ATOM     22  C   UNL     1      -1.517  12.053  19.602  0.00  0.00    +0.000 A 
ATOM     23  C   UNL     1      -2.835  12.090  19.143  0.00  0.00    +0.000 A 
ATOM     24  C   UNL     1      -3.291  11.141  18.219  0.00  0.00    +0.000 A 
ATOM     25  C   UNL     1      -2.372  10.233  17.672  0.00  0.00    +0.000 A 
ATOM     26  C   UNL     1      -1.052  10.200  18.128  0.00  0.00    +0.000 A 
BRANCH  24  27
ATOM     27  C   UNL     1      -4.756  11.033  17.873  0.00  0.00    +0.000 C 
ATOM     28  F   UNL     1      -5.501  12.084  18.316  0.00  0.00    +0.000 F 
ATOM     29  F   UNL     1      -4.987  10.944  16.536  0.00  0.00    +0.000 F 
ATOM     30  F   UNL     1      -5.328   9.923  18.425  0.00  0.00    +0.000 F 
ENDBRANCH  24  27
ENDBRANCH  20  21
ENDBRANCH   3  20
TORSDOF 6
ENDMDL
MODEL 7
REMARK VINA RESULT:      -7.5      3.908      8.073
REMARK  Name = 
REMARK  6 active torsions:
REMARK  status: ('A' for Active; 'I' for Inactive)
REMARK    1  A    between atoms: C_2  and  C_3
REMARK    2  A    between atoms: C_5  and  C_6
REMARK    3  A    between atoms: N_8  and  C_9
REMARK    4  A    between atoms: N_8  and  C_20
REMARK    5  A    between atoms: C_9  and  C_10
REMARK    6  A    between atoms: C_13  and  C_14
REMARK                            x       y       z     vdW  Elec       q    Type
REMARK                         _______ _______ _______ _____ _____    ______ ____
ROOT
ATOM      1  C   UNL     1       1.960   9.414  18.291  0.00  0.00    +0.000 C 
ATOM      2  O   UNL     1       2.078  10.167  17.322  0.00  0.00    +0.000 OA
ATOM      3  N   UNL     1       1.269   9.814  19.457  0.00  0.00    +0.000 N 
ENDROOT
BRANCH   1   6
ATOM      4  C   UNL     1       2.632   5.749  18.174  0.00  0.00    +0.000 A 
ATOM      5  C   UNL     1       1.980   6.813  18.772  0.00  0.00    +0.000 A 
ATOM      6  C   UNL     1       2.471   8.027  18.213  0.00  0.00    +0.000 A 
ATOM      7  C   UNL     1       3.596   7.658  17.491  0.00  0.00    +0.000 A 
ATOM      8  N   UNL     1       3.688   6.288  17.478  0.00  0.00    +0.000 N 
ATOM      9  H   UNL     1       4.352   5.749  16.934  0.00  0.00    +0.000 HD
BRANCH   4  11
ATOM     10  O   UNL     1       1.579   3.868  17.272  0.00  0.00    +0.000 OA
ATOM     11  C   UNL     1       2.246   4.354  18.182  0.00  0.00    +0.000 C 
ATOM     12  N   UNL     1       2.687   3.601  19.266  0.00  0.00    +0.000 N 
ATOM     13  C   UNL     1       2.357   2.187  19.333  0.00  0.00    +0.000 C 
ATOM     14  C   UNL     1       1.422   2.103  20.522  0.00  0.00    +0.000 C 
ATOM     15  C   UNL     1       2.061   3.080  21.503  0.00  0.00    +0.000 C 
ATOM     16  C   UNL     1       2.653   4.173  20.613  0.00  0.00    +0.000 C 
ENDBRANCH   4  11
ENDBRANCH   1   6
BRANCH   3  17
ATOM     17  C   UNL     1       1.081   8.983  20.626  0.00  0.00    +0.000 C 
ATOM     18  C   UNL     1      -0.260   8.905  21.322  0.00  0.00    +0.000 C 
ATOM     19  C   UNL     1       0.900   9.530  22.020  0.00  0.00    +0.000 C 
ENDBRANCH   3  17
BRANCH   3  20
ATOM     20  C   UNL     1       0.712  11.174  19.507  0.00  0.00    +0.000 C 
BRANCH  20  21
ATOM     21  C   UNL     1      -0.711  11.251  18.999  0.00  0.00    +0.000 A 
ATOM     22  C   UNL     1      -1.587  12.217  19.509  0.00  0.00    +0.000 A 
ATOM     23  C   UNL     1      -2.940  12.203  19.162  0.00  0.00    +0.000 A 
ATOM     24  C   UNL     1      -3.443  11.213  18.308  0.00  0.00    +0.000 A 
ATOM     25  C   UNL     1      -2.546  10.314  17.712  0.00  0.00    +0.000 A 
ATOM     26  C   UNL     1      -1.191  10.334  18.054  0.00  0.00    +0.000 A 
BRANCH  24  27
ATOM     27  C   UNL     1      -4.927  11.053  18.092  0.00  0.00    +0.000 C 
ATOM     28  F   UNL     1      -5.318  11.254  16.803  0.00  0.00    +0.000 F 
ATOM     29  F   UNL     1      -5.390   9.822  18.438  0.00  0.00    +0.000 F 
ATOM     30  F   UNL     1      -5.648  11.943  18.835  0.00  0.00    +0.000 F 
ENDBRANCH  24  27
ENDBRANCH  20  21
ENDBRANCH   3  20
TORSDOF 6
ENDMDL
MODEL 8
REMARK VINA RESULT:      -7.4      3.220      4.345
REMARK  Name = 
REMARK  6 active torsions:
REMARK  status: ('A' for Active; 'I' for Inactive)
REMARK    1  A    between atoms: C_2  and  C_3
REMARK    2  A    between atoms: C_5  and  C_6
REMARK    3  A    between atoms: N_8  and  C_9
REMARK    4  A    between atoms: N_8  and  C_20
REMARK    5  A    between atoms: C_9  and  C_10
REMARK    6  A    between atoms: C_13  and  C_14
REMARK                            x       y       z     vdW  Elec       q    Type
REMARK                         _______ _______ _______ _____ _____    ______ ____
ROOT
ATOM      1  C   UNL     1       0.234  11.655  20.846  0.00  0.00    +0.000 C 
ATOM      2  O   UNL     1       1.370  11.967  21.210  0.00  0.00    +0.000 OA
ATOM      3  N   UNL     1       0.012  10.955  19.638  0.00  0.00    +0.000 N 
ENDROOT
BRANCH   1   6
ATOM      4  C   UNL     1      -2.973  12.554  22.520  0.00  0.00    +0.000 A 
ATOM      5  C   UNL     1      -1.981  12.880  21.612  0.00  0.00    +0.000 A 
ATOM      6  C   UNL     1      -0.924  11.934  21.724  0.00  0.00    +0.000 A 
ATOM      7  C   UNL     1      -1.198  11.229  22.887  0.00  0.00    +0.000 A 
ATOM      8  N   UNL     1      -2.428  11.612  23.360  0.00  0.00    +0.000 N 
ATOM      9  H   UNL     1      -2.921  11.180  24.134  0.00  0.00    +0.000 HD
BRANCH   4  11
ATOM     10  O   UNL     1      -5.134  12.729  21.651  0.00  0.00    +0.000 OA
ATOM     11  C   UNL     1      -4.343  13.021  22.544  0.00  0.00    +0.000 C 
ATOM     12  N   UNL     1      -4.708  13.798  23.638  0.00  0.00    +0.000 N 
ATOM     13  C   UNL     1      -6.074  14.285  23.743  0.00  0.00    +0.000 C 
ATOM     14  C   UNL     1      -5.922  15.784  23.587  0.00  0.00    +0.000 C 
ATOM     15  C   UNL     1      -4.646  16.062  24.372  0.00  0.00    +0.000 C 
ATOM     16  C   UNL     1      -3.788  14.815  24.149  0.00  0.00    +0.000 C 
ENDBRANCH   4  11
ENDBRANCH   1   6
BRANCH   3  17
ATOM     17  C   UNL     1      -1.288  10.546  19.153  0.00  0.00    +0.000 C 
ATOM     18  C   UNL     1      -1.508  10.212  17.693  0.00  0.00    +0.000 C 
ATOM     19  C   UNL     1      -2.165  11.413  18.284  0.00  0.00    +0.000 C 
ENDBRANCH   3  17
BRANCH   3  20
ATOM     20  C   UNL     1       1.173  10.628  18.797  0.00  0.00    +0.000 C 
BRANCH  20  21
ATOM     21  C   UNL     1       1.603   9.183  18.914  0.00  0.00    +0.000 A 
ATOM     22  C   UNL     1       1.446   8.499  20.126  0.00  0.00    +0.000 A 
ATOM     23  C   UNL     1       1.975   7.217  20.293  0.00  0.00    +0.000 A 
ATOM     24  C   UNL     1       2.682   6.601  19.252  0.00  0.00    +0.000 A 
ATOM     25  C   UNL     1       2.743   7.240  18.005  0.00  0.00    +0.000 A 
ATOM     26  C   UNL     1       2.207   8.519  17.837  0.00  0.00    +0.000 A 
BRANCH  24  27
ATOM     27  C   UNL     1       3.439   5.316  19.480  0.00  0.00    +0.000 C 
ATOM     28  F   UNL     1       2.997   4.604  20.554  0.00  0.00    +0.000 F 
ATOM     29  F   UNL     1       3.387   4.468  18.418  0.00  0.00    +0.000 F 
ATOM     30  F   UNL     1       4.765   5.542  19.712  0.00  0.00    +0.000 F 
ENDBRANCH  24  27
ENDBRANCH  20  21
ENDBRANCH   3  20
TORSDOF 6
ENDMDL
MODEL 9
REMARK VINA RESULT:      -7.4      4.823      8.914
REMARK  Name = 
REMARK  6 active torsions:
REMARK  status: ('A' for Active; 'I' for Inactive)
REMARK    1  A    between atoms: C_2  and  C_3
REMARK    2  A    between atoms: C_5  and  C_6
REMARK    3  A    between atoms: N_8  and  C_9
REMARK    4  A    between atoms: N_8  and  C_20
REMARK    5  A    between atoms: C_9  and  C_10
REMARK    6  A    between atoms: C_13  and  C_14
REMARK                            x       y       z     vdW  Elec       q    Type
REMARK                         _______ _______ _______ _____ _____    ______ ____
ROOT
ATOM      1  C   UNL     1       0.692  11.013  19.418  0.00  0.00    +0.000 C 
ATOM      2  O   UNL     1       1.310  11.970  19.890  0.00  0.00    +0.000 OA
ATOM      3  N   UNL     1      -0.681  11.108  19.095  0.00  0.00    +0.000 N 
ENDROOT
BRANCH   1   6
ATOM      4  C   UNL     1       2.145   7.597  19.072  0.00  0.00    +0.000 A 
ATOM      5  C   UNL     1       1.735   8.630  19.897  0.00  0.00    +0.000 A 
ATOM      6  C   UNL     1       1.409   9.759  19.094  0.00  0.00    +0.000 A 
ATOM      7  C   UNL     1       1.895   9.452  17.832  0.00  0.00    +0.000 A 
ATOM      8  N   UNL     1       2.339   8.153  17.830  0.00  0.00    +0.000 N 
ATOM      9  H   UNL     1       2.644   7.637  17.012  0.00  0.00    +0.000 HD
BRANCH   4  11
ATOM     10  O   UNL     1       1.625   5.697  20.328  0.00  0.00    +0.000 OA
ATOM     11  C   UNL     1       2.259   6.192  19.400  0.00  0.00    +0.000 C 
ATOM     12  N   UNL     1       3.109   5.441  18.595  0.00  0.00    +0.000 N 
ATOM     13  C   UNL     1       3.258   4.017  18.849  0.00  0.00    +0.000 C 
ATOM     14  C   UNL     1       4.694   3.895  19.314  0.00  0.00    +0.000 C 
ATOM     15  C   UNL     1       5.414   4.878  18.398  0.00  0.00    +0.000 C 
ATOM     16  C   UNL     1       4.395   5.997  18.174  0.00  0.00    +0.000 C 
ENDBRANCH   4  11
ENDBRANCH   1   6
BRANCH   3  17
ATOM     17  C   UNL     1      -1.467  10.034  18.529  0.00  0.00    +0.000 C 
ATOM     18  C   UNL     1      -1.660   9.910  17.033  0.00  0.00    +0.000 C 
ATOM     19  C   UNL     1      -2.826  10.232  17.904  0.00  0.00    +0.000 C 
ENDBRANCH   3  17
BRANCH   3  20
ATOM     20  C   UNL     1      -1.376  12.376  19.364  0.00  0.00    +0.000 C 
BRANCH  20  21
ATOM     21  C   UNL     1      -2.178  12.352  20.646  0.00  0.00    +0.000 A 
ATOM     22  C   UNL     1      -3.542  12.671  20.627  0.00  0.00    +0.000 A 
ATOM     23  C   UNL     1      -4.257  12.801  21.820  0.00  0.00    +0.000 A 
ATOM     24  C   UNL     1      -3.617  12.627  23.053  0.00  0.00    +0.000 A 
ATOM     25  C   UNL     1      -2.281  12.201  23.068  0.00  0.00    +0.000 A 
ATOM     26  C   UNL     1      -1.568  12.064  21.874  0.00  0.00    +0.000 A 
BRANCH  24  27
ATOM     27  C   UNL     1      -4.315  12.970  24.346  0.00  0.00    +0.000 C 
ATOM     28  F   UNL     1      -4.747  11.881  25.040  0.00  0.00    +0.000 F 
ATOM     29  F   UNL     1      -3.534  13.679  25.205  0.00  0.00    +0.000 F 
ATOM     30  F   UNL     1      -5.426  13.734  24.137  0.00  0.00    +0.000 F 
ENDBRANCH  24  27
ENDBRANCH  20  21
ENDBRANCH   3  20
TORSDOF 6
ENDMDL
