MODEL 1
REMARK VINA RESULT:      -8.8      0.000      0.000
REMARK  Name = 
REMARK  5 active torsions:
REMARK  status: ('A' for Active; 'I' for Inactive)
REMARK    1  A    between atoms: C_1  and  C_2
REMARK    2  A    between atoms: C_9  and  N_10
REMARK    3  A    between atoms: C_11  and  C_13
REMARK    4  A    between atoms: C_13  and  C_14
REMARK    5  A    between atoms: C_14  and  N_15
REMARK                            x       y       z     vdW  Elec       q    Type
REMARK                         _______ _______ _______ _____ _____    ______ ____
ROOT
ATOM      1  N   UNL     1       2.330   5.633  20.826  0.00  0.00    +0.000 N 
ATOM      2  C   UNL     1       1.625   4.458  20.634  0.00  0.00    +0.000 C 
ATOM      3  O   UNL     1       0.445   4.377  20.296  0.00  0.00    +0.000 OA
ATOM      4  H   UNL     1       3.226   5.577  21.298  0.00  0.00    +0.000 HD
ENDROOT
BRANCH   1  13
ATOM      5  C   UNL     1      -0.739  12.864  19.304  0.00  0.00    +0.000 C 
ATOM      6  C   UNL     1      -0.436  11.617  20.100  0.00  0.00    +0.000 C 
ATOM      7  O   UNL     1      -0.940  11.463  21.212  0.00  0.00    +0.000 OA
ATOM      8  N   UNL     1       0.405  10.714  19.476  0.00  0.00    +0.000 N 
ATOM      9  C   UNL     1       1.104  10.939  18.198  0.00  0.00    +0.000 C 
ATOM     10  C   UNL     1       1.833   9.644  17.836  0.00  0.00    +0.000 C 
ATOM     11  C   UNL     1       1.653   8.841  19.081  0.00  0.00    +0.000 A 
ATOM     12  C   UNL     1       2.188   7.588  19.334  0.00  0.00    +0.000 A 
ATOM     13  C   UNL     1       1.852   6.927  20.519  0.00  0.00    +0.000 A 
ATOM     14  C   UNL     1       1.009   7.571  21.445  0.00  0.00    +0.000 A 
ATOM     15  C   UNL     1       0.473   8.843  21.177  0.00  0.00    +0.000 A 
ATOM     16  C   UNL     1       0.806   9.467  19.987  0.00  0.00    +0.000 A 
ENDBRANCH   1  13
BRANCH   2  17
ATOM     17  C   UNL     1       2.411   3.200  20.939  0.00  0.00    +0.000 C 
BRANCH  17  18
ATOM     18  C   UNL     1       2.813   2.562  19.606  0.00  0.00    +0.000 C 
BRANCH  18  19
ATOM     19  N   UNL     1       3.841   3.290  18.875  0.00  0.00    +0.000 N 
ATOM     20  C   UNL     1       4.999   3.659  19.518  0.00  0.00    +0.000 A 
ATOM     21  N   UNL     1       6.029   4.187  18.949  0.00  0.00    +0.000 NA
ATOM     22  C   UNL     1       5.975   4.381  17.562  0.00  0.00    +0.000 A 
ATOM     23  C   UNL     1       7.090   4.910  16.911  0.00  0.00    +0.000 A 
ATOM     24  C   UNL     1       7.083   5.096  15.526  0.00  0.00    +0.000 A 
ATOM     25  C   UNL     1       5.954   4.759  14.779  0.00  0.00    +0.000 A 
ATOM     26  C   UNL     1       4.832   4.232  15.416  0.00  0.00    +0.000 A 
ATOM     27  C   UNL     1       4.853   4.043  16.802  0.00  0.00    +0.000 A 
ATOM     28  C   UNL     1       3.703   3.446  17.504  0.00  0.00    +0.000 A 
ATOM     29  O   UNL     1       2.706   3.105  16.872  0.00  0.00    +0.000 OA
ENDBRANCH  18  19
ENDBRANCH  17  18
ENDBRANCH   2  17
TORSDOF 4
ENDMDL
MODEL 2
REMARK VINA RESULT:      -8.6      2.563      8.462
REMARK  Name = 
REMARK  5 active torsions:
REMARK  status: ('A' for Active; 'I' for Inactive)
REMARK    1  A    between atoms: C_1  and  C_2
REMARK    2  A    between atoms: C_9  and  N_10
REMARK    3  A    between atoms: C_11  and  C_13
REMARK    4  A    between atoms: C_13  and  C_14
REMARK    5  A    between atoms: C_14  and  N_15
REMARK                            x       y       z     vdW  Elec       q    Type
REMARK                         _______ _______ _______ _____ _____    ______ ____
ROOT
ATOM      1  N   UNL     1       1.446   8.639  20.604  0.00  0.00    +0.000 N 
ATOM      2  C   UNL     1       0.324   8.938  21.357  0.00  0.00    +0.000 C 
ATOM      3  O   UNL     1      -0.547   8.137  21.696  0.00  0.00    +0.000 OA
ATOM      4  H   UNL     1       1.978   9.411  20.219  0.00  0.00    +0.000 HD
ENDROOT
BRANCH   1  13
ATOM      5  C   UNL     1       3.721   1.395  18.078  0.00  0.00    +0.000 C 
ATOM      6  C   UNL     1       3.648   2.904  18.105  0.00  0.00    +0.000 C 
ATOM      7  O   UNL     1       4.208   3.560  17.228  0.00  0.00    +0.000 OA
ATOM      8  N   UNL     1       2.914   3.436  19.149  0.00  0.00    +0.000 N 
ATOM      9  C   UNL     1       2.335   2.667  20.266  0.00  0.00    +0.000 C 
ATOM     10  C   UNL     1       1.520   3.638  21.121  0.00  0.00    +0.000 C 
ATOM     11  C   UNL     1       1.889   4.952  20.518  0.00  0.00    +0.000 A 
ATOM     12  C   UNL     1       1.488   6.202  20.962  0.00  0.00    +0.000 A 
ATOM     13  C   UNL     1       1.850   7.337  20.231  0.00  0.00    +0.000 A 
ATOM     14  C   UNL     1       2.649   7.184  19.082  0.00  0.00    +0.000 A 
ATOM     15  C   UNL     1       3.051   5.910  18.641  0.00  0.00    +0.000 A 
ATOM     16  C   UNL     1       2.661   4.801  19.373  0.00  0.00    +0.000 A 
ENDBRANCH   1  13
BRANCH   2  17
ATOM     17  C   UNL     1       0.182  10.403  21.713  0.00  0.00    +0.000 C 
BRANCH  17  18
ATOM     18  C   UNL     1       0.293  11.215  20.420  0.00  0.00    +0.000 C 
BRANCH  18  19
ATOM     19  N   UNL     1      -0.882  11.148  19.563  0.00  0.00    +0.000 N 
ATOM     20  C   UNL     1      -1.976  11.930  19.848  0.00  0.00    +0.000 A 
ATOM     21  N   UNL     1      -3.016  12.055  19.095  0.00  0.00    +0.000 NA
ATOM     22  C   UNL     1      -3.026  11.355  17.881  0.00  0.00    +0.000 A 
ATOM     23  C   UNL     1      -4.119  11.504  17.026  0.00  0.00    +0.000 A 
ATOM     24  C   UNL     1      -4.154  10.841  15.796  0.00  0.00    +0.000 A 
ATOM     25  C   UNL     1      -3.096  10.017  15.414  0.00  0.00    +0.000 A 
ATOM     26  C   UNL     1      -2.000   9.856  16.259  0.00  0.00    +0.000 A 
ATOM     27  C   UNL     1      -1.972  10.531  17.484  0.00  0.00    +0.000 A 
ATOM     28  C   UNL     1      -0.809  10.422  18.383  0.00  0.00    +0.000 A 
ATOM     29  O   UNL     1       0.156   9.733  18.061  0.00  0.00    +0.000 OA
ENDBRANCH  18  19
ENDBRANCH  17  18
ENDBRANCH   2  17
TORSDOF 4
ENDMDL
MODEL 3
REMARK VINA RESULT:      -8.6      6.858      8.126
REMARK  Name = 
REMARK  5 active torsions:
REMARK  status: ('A' for Active; 'I' for Inactive)
REMARK    1  A    between atoms: C_1  and  C_2
REMARK    2  A    between atoms: C_9  and  N_10
REMARK    3  A    between atoms: C_11  and  C_13
REMARK    4  A    between atoms: C_13  and  C_14
REMARK    5  A    between atoms: C_14  and  N_15
REMARK                            x       y       z     vdW  Elec       q    Type
REMARK                         _______ _______ _______ _____ _____    ______ ____
ROOT
ATOM      1  N   UNL     1       9.220   9.365  19.143  0.00  0.00    +0.000 N 
ATOM      2  C   UNL     1       8.281   8.767  18.322  0.00  0.00    +0.000 C 
ATOM      3  O   UNL     1       7.578   9.346  17.496  0.00  0.00    +0.000 OA
ATOM      4  H   UNL     1       9.588   8.824  19.918  0.00  0.00    +0.000 HD
ENDROOT
BRANCH   1  13
ATOM      5  C   UNL     1      11.197  17.116  18.918  0.00  0.00    +0.000 C 
ATOM      6  C   UNL     1      10.687  15.823  19.510  0.00  0.00    +0.000 C 
ATOM      7  O   UNL     1      10.215  15.814  20.645  0.00  0.00    +0.000 OA
ATOM      8  N   UNL     1      10.787  14.721  18.681  0.00  0.00    +0.000 N 
ATOM      9  C   UNL     1      11.454  14.697  17.366  0.00  0.00    +0.000 C 
ATOM     10  C   UNL     1      11.229  13.311  16.760  0.00  0.00    +0.000 C 
ATOM     11  C   UNL     1      10.618  12.577  17.907  0.00  0.00    +0.000 A 
ATOM     12  C   UNL     1      10.277  11.234  17.935  0.00  0.00    +0.000 A 
ATOM     13  C   UNL     1       9.630  10.716  19.060  0.00  0.00    +0.000 A 
ATOM     14  C   UNL     1       9.375  11.565  20.154  0.00  0.00    +0.000 A 
ATOM     15  C   UNL     1       9.726  12.926  20.114  0.00  0.00    +0.000 A 
ATOM     16  C   UNL     1      10.349  13.418  18.979  0.00  0.00    +0.000 A 
ENDBRANCH   1  13
BRANCH   2  17
ATOM     17  C   UNL     1       8.110   7.279  18.548  0.00  0.00    +0.000 C 
BRANCH  17  18
ATOM     18  C   UNL     1       7.359   6.704  17.344  0.00  0.00    +0.000 C 
BRANCH  18  19
ATOM     19  N   UNL     1       6.015   6.230  17.642  0.00  0.00    +0.000 N 
ATOM     20  C   UNL     1       4.930   7.001  17.295  0.00  0.00    +0.000 A 
ATOM     21  N   UNL     1       3.698   6.633  17.388  0.00  0.00    +0.000 NA
ATOM     22  C   UNL     1       3.441   5.338  17.859  0.00  0.00    +0.000 A 
ATOM     23  C   UNL     1       2.119   4.896  17.930  0.00  0.00    +0.000 A 
ATOM     24  C   UNL     1       1.824   3.603  18.372  0.00  0.00    +0.000 A 
ATOM     25  C   UNL     1       2.853   2.742  18.754  0.00  0.00    +0.000 A 
ATOM     26  C   UNL     1       4.178   3.171  18.692  0.00  0.00    +0.000 A 
ATOM     27  C   UNL     1       4.461   4.465  18.240  0.00  0.00    +0.000 A 
ATOM     28  C   UNL     1       5.852   4.937  18.117  0.00  0.00    +0.000 A 
ATOM     29  O   UNL     1       6.784   4.192  18.411  0.00  0.00    +0.000 OA
ENDBRANCH  18  19
ENDBRANCH  17  18
ENDBRANCH   2  17
TORSDOF 4
ENDMDL
MODEL 4
REMARK VINA RESULT:      -8.6      6.485      7.952
REMARK  Name = 
REMARK  5 active torsions:
REMARK  status: ('A' for Active; 'I' for Inactive)
REMARK    1  A    between atoms: C_1  and  C_2
REMARK    2  A    between atoms: C_9  and  N_10
REMARK    3  A    between atoms: C_11  and  C_13
REMARK    4  A    between atoms: C_13  and  C_14
REMARK    5  A    between atoms: C_14  and  N_15
REMARK                            x       y       z     vdW  Elec       q    Type
REMARK                         _______ _______ _______ _____ _____    ______ ____
ROOT
ATOM      1  N   UNL     1       8.829   8.605  18.901  0.00  0.00    +0.000 N 
ATOM      2  C   UNL     1       7.913   8.136  17.975  0.00  0.00    +0.000 C 
ATOM      3  O   UNL     1       7.218   8.833  17.237  0.00  0.00    +0.000 OA
ATOM      4  H   UNL     1       9.189   7.951  19.586  0.00  0.00    +0.000 HD
ENDROOT
BRANCH   1  13
ATOM      5  C   UNL     1      11.327  16.192  19.384  0.00  0.00    +0.000 C 
ATOM      6  C   UNL     1      10.935  14.892  18.722  0.00  0.00    +0.000 C 
ATOM      7  O   UNL     1      11.067  14.760  17.506  0.00  0.00    +0.000 OA
ATOM      8  N   UNL     1      10.457  13.919  19.580  0.00  0.00    +0.000 N 
ATOM      9  C   UNL     1      10.188  14.105  21.018  0.00  0.00    +0.000 C 
ATOM     10  C   UNL     1       9.778  12.747  21.590  0.00  0.00    +0.000 C 
ATOM     11  C   UNL     1       9.641  11.928  20.350  0.00  0.00    +0.000 A 
ATOM     12  C   UNL     1       9.209  10.613  20.277  0.00  0.00    +0.000 A 
ATOM     13  C   UNL     1       9.221   9.956  19.043  0.00  0.00    +0.000 A 
ATOM     14  C   UNL     1       9.634  10.662  17.897  0.00  0.00    +0.000 A 
ATOM     15  C   UNL     1      10.069  11.996  17.983  0.00  0.00    +0.000 A 
ATOM     16  C   UNL     1      10.066  12.617  19.221  0.00  0.00    +0.000 A 
ENDBRANCH   1  13
BRANCH   2  17
ATOM     17  C   UNL     1       7.759   6.630  17.957  0.00  0.00    +0.000 C 
BRANCH  17  18
ATOM     18  C   UNL     1       6.479   6.297  17.184  0.00  0.00    +0.000 C 
BRANCH  18  19
ATOM     19  N   UNL     1       5.506   5.519  17.937  0.00  0.00    +0.000 N 
ATOM     20  C   UNL     1       5.863   4.292  18.444  0.00  0.00    +0.000 A 
ATOM     21  N   UNL     1       5.137   3.574  19.232  0.00  0.00    +0.000 NA
ATOM     22  C   UNL     1       3.894   4.092  19.620  0.00  0.00    +0.000 A 
ATOM     23  C   UNL     1       3.104   3.357  20.506  0.00  0.00    +0.000 A 
ATOM     24  C   UNL     1       1.869   3.852  20.935  0.00  0.00    +0.000 A 
ATOM     25  C   UNL     1       1.410   5.086  20.474  0.00  0.00    +0.000 A 
ATOM     26  C   UNL     1       2.187   5.829  19.587  0.00  0.00    +0.000 A 
ATOM     27  C   UNL     1       3.425   5.328  19.171  0.00  0.00    +0.000 A 
ATOM     28  C   UNL     1       4.294   6.106  18.270  0.00  0.00    +0.000 A 
ATOM     29  O   UNL     1       3.936   7.213  17.874  0.00  0.00    +0.000 OA
ENDBRANCH  18  19
ENDBRANCH  17  18
ENDBRANCH   2  17
TORSDOF 4
ENDMDL
MODEL 5
REMARK VINA RESULT:      -8.5      6.835      8.129
REMARK  Name = 
REMARK  5 active torsions:
REMARK  status: ('A' for Active; 'I' for Inactive)
REMARK    1  A    between atoms: C_1  and  C_2
REMARK    2  A    between atoms: C_9  and  N_10
REMARK    3  A    between atoms: C_11  and  C_13
REMARK    4  A    between atoms: C_13  and  C_14
REMARK    5  A    between atoms: C_14  and  N_15
REMARK                            x       y       z     vdW  Elec       q    Type
REMARK                         _______ _______ _______ _____ _____    ______ ____
ROOT
ATOM      1  N   UNL     1       9.007   9.045  19.200  0.00  0.00    +0.000 N 
ATOM      2  C   UNL     1       8.197   8.468  18.238  0.00  0.00    +0.000 C 
ATOM      3  O   UNL     1       7.613   9.068  17.337  0.00  0.00    +0.000 OA
ATOM      4  H   UNL     1       9.265   8.483  20.003  0.00  0.00    +0.000 HD
ENDROOT
BRANCH   1  13
ATOM      5  C   UNL     1      11.600  16.612  18.970  0.00  0.00    +0.000 C 
ATOM      6  C   UNL     1      11.209  15.254  18.435  0.00  0.00    +0.000 C 
ATOM      7  O   UNL     1      11.376  14.994  17.244  0.00  0.00    +0.000 OA
ATOM      8  N   UNL     1      10.691  14.382  19.374  0.00  0.00    +0.000 N 
ATOM      9  C   UNL     1      10.381  14.719  20.776  0.00  0.00    +0.000 C 
ATOM     10  C   UNL     1       9.934  13.433  21.472  0.00  0.00    +0.000 C 
ATOM     11  C   UNL     1       9.823  12.491  20.320  0.00  0.00    +0.000 A 
ATOM     12  C   UNL     1       9.375  11.181  20.371  0.00  0.00    +0.000 A 
ATOM     13  C   UNL     1       9.414  10.399  19.213  0.00  0.00    +0.000 A 
ATOM     14  C   UNL     1       9.872  10.976  18.014  0.00  0.00    +0.000 A 
ATOM     15  C   UNL     1      10.324  12.307  17.975  0.00  0.00    +0.000 A 
ATOM     16  C   UNL     1      10.293  13.053  19.140  0.00  0.00    +0.000 A 
ENDBRANCH   1  13
BRANCH   2  17
ATOM     17  C   UNL     1       8.006   6.974  18.395  0.00  0.00    +0.000 C 
BRANCH  17  18
ATOM     18  C   UNL     1       7.173   6.478  17.210  0.00  0.00    +0.000 C 
BRANCH  18  19
ATOM     19  N   UNL     1       5.826   6.047  17.558  0.00  0.00    +0.000 N 
ATOM     20  C   UNL     1       4.753   6.842  17.231  0.00  0.00    +0.000 A 
ATOM     21  N   UNL     1       3.514   6.511  17.368  0.00  0.00    +0.000 NA
ATOM     22  C   UNL     1       3.237   5.232  17.870  0.00  0.00    +0.000 A 
ATOM     23  C   UNL     1       1.905   4.829  17.989  0.00  0.00    +0.000 A 
ATOM     24  C   UNL     1       1.589   3.553  18.463  0.00  0.00    +0.000 A 
ATOM     25  C   UNL     1       2.605   2.670  18.829  0.00  0.00    +0.000 A 
ATOM     26  C   UNL     1       3.938   3.060  18.718  0.00  0.00    +0.000 A 
ATOM     27  C   UNL     1       4.243   4.337  18.235  0.00  0.00    +0.000 A 
ATOM     28  C   UNL     1       5.642   4.768  18.061  0.00  0.00    +0.000 A 
ATOM     29  O   UNL     1       6.562   4.002  18.339  0.00  0.00    +0.000 OA
ENDBRANCH  18  19
ENDBRANCH  17  18
ENDBRANCH   2  17
TORSDOF 4
ENDMDL
MODEL 6
REMARK VINA RESULT:      -8.4      2.028      4.291
REMARK  Name = 
REMARK  5 active torsions:
REMARK  status: ('A' for Active; 'I' for Inactive)
REMARK    1  A    between atoms: C_1  and  C_2
REMARK    2  A    between atoms: C_9  and  N_10
REMARK    3  A    between atoms: C_11  and  C_13
REMARK    4  A    between atoms: C_13  and  C_14
REMARK    5  A    between atoms: C_14  and  N_15
REMARK                            x       y       z     vdW  Elec       q    Type
REMARK                         _______ _______ _______ _____ _____    ______ ____
ROOT
ATOM      1  N   UNL     1       3.427   6.886  17.024  0.00  0.00    +0.000 N 
ATOM      2  C   UNL     1       4.790   6.646  17.032  0.00  0.00    +0.000 C 
ATOM      3  O   UNL     1       5.606   7.172  17.787  0.00  0.00    +0.000 OA
ATOM      4  H   UNL     1       2.891   6.553  16.230  0.00  0.00    +0.000 HD
ENDROOT
BRANCH   1  13
ATOM      5  C   UNL     1      -0.669  10.902  22.602  0.00  0.00    +0.000 C 
ATOM      6  C   UNL     1       0.152   9.780  22.013  0.00  0.00    +0.000 C 
ATOM      7  O   UNL     1       0.380   8.772  22.679  0.00  0.00    +0.000 OA
ATOM      8  N   UNL     1       0.581   9.988  20.714  0.00  0.00    +0.000 N 
ATOM      9  C   UNL     1       0.412  11.237  19.948  0.00  0.00    +0.000 C 
ATOM     10  C   UNL     1       0.936  10.984  18.533  0.00  0.00    +0.000 C 
ATOM     11  C   UNL     1       1.569   9.641  18.683  0.00  0.00    +0.000 A 
ATOM     12  C   UNL     1       2.275   8.952  17.709  0.00  0.00    +0.000 A 
ATOM     13  C   UNL     1       2.733   7.660  17.981  0.00  0.00    +0.000 A 
ATOM     14  C   UNL     1       2.498   7.105  19.254  0.00  0.00    +0.000 A 
ATOM     15  C   UNL     1       1.781   7.814  20.233  0.00  0.00    +0.000 A 
ATOM     16  C   UNL     1       1.322   9.085  19.932  0.00  0.00    +0.000 A 
ENDBRANCH   1  13
BRANCH   2  17
ATOM     17  C   UNL     1       5.263   5.690  15.957  0.00  0.00    +0.000 C 
BRANCH  17  18
ATOM     18  C   UNL     1       5.217   4.273  16.535  0.00  0.00    +0.000 C 
BRANCH  18  19
ATOM     19  N   UNL     1       4.098   4.024  17.433  0.00  0.00    +0.000 N 
ATOM     20  C   UNL     1       2.853   3.766  16.911  0.00  0.00    +0.000 A 
ATOM     21  N   UNL     1       1.821   3.404  17.595  0.00  0.00    +0.000 NA
ATOM     22  C   UNL     1       1.985   3.240  18.977  0.00  0.00    +0.000 A 
ATOM     23  C   UNL     1       0.897   2.808  19.738  0.00  0.00    +0.000 A 
ATOM     24  C   UNL     1       1.028   2.609  21.116  0.00  0.00    +0.000 A 
ATOM     25  C   UNL     1       2.249   2.848  21.745  0.00  0.00    +0.000 A 
ATOM     26  C   UNL     1       3.342   3.283  20.999  0.00  0.00    +0.000 A 
ATOM     27  C   UNL     1       3.203   3.471  19.619  0.00  0.00    +0.000 A 
ATOM     28  C   UNL     1       4.349   3.886  18.790  0.00  0.00    +0.000 A 
ATOM     29  O   UNL     1       5.448   4.070  19.307  0.00  0.00    +0.000 OA
ENDBRANCH  18  19
ENDBRANCH  17  18
ENDBRANCH   2  17
TORSDOF 4
ENDMDL
MODEL 7
REMARK VINA RESULT:      -8.4      6.971      8.153
REMARK  Name = 
REMARK  5 active torsions:
REMARK  status: ('A' for Active; 'I' for Inactive)
REMARK    1  A    between atoms: C_1  and  C_2
REMARK    2  A    between atoms: C_9  and  N_10
REMARK    3  A    between atoms: C_11  and  C_13
REMARK    4  A    between atoms: C_13  and  C_14
REMARK    5  A    between atoms: C_14  and  N_15
REMARK                            x       y       z     vdW  Elec       q    Type
REMARK                         _______ _______ _______ _____ _____    ______ ____
ROOT
ATOM      1  N   UNL     1       9.167   9.289  19.316  0.00  0.00    +0.000 N 
ATOM      2  C   UNL     1       8.313   8.940  18.285  0.00  0.00    +0.000 C 
ATOM      3  O   UNL     1       7.759   9.723  17.516  0.00  0.00    +0.000 OA
ATOM      4  H   UNL     1       9.398   8.580  20.003  0.00  0.00    +0.000 HD
ENDROOT
BRANCH   1  13
ATOM      5  C   UNL     1      11.594  16.745  20.915  0.00  0.00    +0.000 C 
ATOM      6  C   UNL     1      10.958  15.400  21.174  0.00  0.00    +0.000 C 
ATOM      7  O   UNL     1      10.379  15.190  22.239  0.00  0.00    +0.000 OA
ATOM      8  N   UNL     1      11.073  14.489  20.139  0.00  0.00    +0.000 N 
ATOM      9  C   UNL     1      11.860  14.689  18.908  0.00  0.00    +0.000 C 
ATOM     10  C   UNL     1      11.616  13.480  18.003  0.00  0.00    +0.000 C 
ATOM     11  C   UNL     1      10.857  12.572  18.913  0.00  0.00    +0.000 A 
ATOM     12  C   UNL     1      10.439  11.283  18.626  0.00  0.00    +0.000 A 
ATOM     13  C   UNL     1       9.658  10.593  19.558  0.00  0.00    +0.000 A 
ATOM     14  C   UNL     1       9.350  11.212  20.783  0.00  0.00    +0.000 A 
ATOM     15  C   UNL     1       9.780  12.521  21.064  0.00  0.00    +0.000 A 
ATOM     16  C   UNL     1      10.535  13.190  20.115  0.00  0.00    +0.000 A 
ENDBRANCH   1  13
BRANCH   2  17
ATOM     17  C   UNL     1       8.031   7.456  18.183  0.00  0.00    +0.000 C 
BRANCH  17  18
ATOM     18  C   UNL     1       6.741   7.276  17.378  0.00  0.00    +0.000 C 
BRANCH  18  19
ATOM     19  N   UNL     1       5.917   6.153  17.802  0.00  0.00    +0.000 N 
ATOM     20  C   UNL     1       6.466   5.165  18.585  0.00  0.00    +0.000 A 
ATOM     21  N   UNL     1       5.809   4.196  19.127  0.00  0.00    +0.000 NA
ATOM     22  C   UNL     1       4.424   4.157  18.922  0.00  0.00    +0.000 A 
ATOM     23  C   UNL     1       3.680   3.146  19.532  0.00  0.00    +0.000 A 
ATOM     24  C   UNL     1       2.292   3.088  19.371  0.00  0.00    +0.000 A 
ATOM     25  C   UNL     1       1.637   4.040  18.590  0.00  0.00    +0.000 A 
ATOM     26  C   UNL     1       2.367   5.054  17.973  0.00  0.00    +0.000 A 
ATOM     27  C   UNL     1       3.755   5.107  18.148  0.00  0.00    +0.000 A 
ATOM     28  C   UNL     1       4.553   6.191  17.548  0.00  0.00    +0.000 A 
ATOM     29  O   UNL     1       4.004   7.066  16.884  0.00  0.00    +0.000 OA
ENDBRANCH  18  19
ENDBRANCH  17  18
ENDBRANCH   2  17
TORSDOF 4
ENDMDL
MODEL 8
REMARK VINA RESULT:      -8.4      1.808      4.008
REMARK  Name = 
REMARK  5 active torsions:
REMARK  status: ('A' for Active; 'I' for Inactive)
REMARK    1  A    between atoms: C_1  and  C_2
REMARK    2  A    between atoms: C_9  and  N_10
REMARK    3  A    between atoms: C_11  and  C_13
REMARK    4  A    between atoms: C_13  and  C_14
REMARK    5  A    between atoms: C_14  and  N_15
REMARK                            x       y       z     vdW  Elec       q    Type
REMARK                         _______ _______ _______ _____ _____    ______ ____
ROOT
ATOM      1  N   UNL     1       3.594   6.504  17.243  0.00  0.00    +0.000 N 
ATOM      2  C   UNL     1       4.971   6.365  17.250  0.00  0.00    +0.000 C 
ATOM      3  O   UNL     1       5.756   7.034  17.919  0.00  0.00    +0.000 OA
ATOM      4  H   UNL     1       3.074   6.040  16.507  0.00  0.00    +0.000 HD
ENDROOT
BRANCH   1  13
ATOM      5  C   UNL     1      -0.738  10.869  22.363  0.00  0.00    +0.000 C 
ATOM      6  C   UNL     1       0.121   9.721  21.889  0.00  0.00    +0.000 C 
ATOM      7  O   UNL     1       0.346   8.773  22.640  0.00  0.00    +0.000 OA
ATOM      8  N   UNL     1       0.585   9.833  20.591  0.00  0.00    +0.000 N 
ATOM      9  C   UNL     1       0.417  11.013  19.722  0.00  0.00    +0.000 C 
ATOM     10  C   UNL     1       0.987  10.659  18.348  0.00  0.00    +0.000 C 
ATOM     11  C   UNL     1       1.639   9.345  18.622  0.00  0.00    +0.000 A 
ATOM     12  C   UNL     1       2.385   8.595  17.728  0.00  0.00    +0.000 A 
ATOM     13  C   UNL     1       2.858   7.338  18.115  0.00  0.00    +0.000 A 
ATOM     14  C   UNL     1       2.596   6.882  19.421  0.00  0.00    +0.000 A 
ATOM     15  C   UNL     1       1.837   7.652  20.320  0.00  0.00    +0.000 A 
ATOM     16  C   UNL     1       1.364   8.885  19.904  0.00  0.00    +0.000 A 
ENDBRANCH   1  13
BRANCH   2  17
ATOM     17  C   UNL     1       5.499   5.321  16.288  0.00  0.00    +0.000 C 
BRANCH  17  18
ATOM     18  C   UNL     1       4.473   4.186  16.216  0.00  0.00    +0.000 C 
BRANCH  18  19
ATOM     19  N   UNL     1       4.059   3.664  17.512  0.00  0.00    +0.000 N 
ATOM     20  C   UNL     1       5.005   3.424  18.481  0.00  0.00    +0.000 A 
ATOM     21  N   UNL     1       4.750   3.089  19.700  0.00  0.00    +0.000 NA
ATOM     22  C   UNL     1       3.404   2.983  20.075  0.00  0.00    +0.000 A 
ATOM     23  C   UNL     1       3.097   2.664  21.399  0.00  0.00    +0.000 A 
ATOM     24  C   UNL     1       1.766   2.573  21.818  0.00  0.00    +0.000 A 
ATOM     25  C   UNL     1       0.730   2.793  20.910  0.00  0.00    +0.000 A 
ATOM     26  C   UNL     1       1.021   3.108  19.585  0.00  0.00    +0.000 A 
ATOM     27  C   UNL     1       2.357   3.205  19.179  0.00  0.00    +0.000 A 
ATOM     28  C   UNL     1       2.704   3.582  17.797  0.00  0.00    +0.000 A 
ATOM     29  O   UNL     1       1.816   3.818  16.982  0.00  0.00    +0.000 OA
ENDBRANCH  18  19
ENDBRANCH  17  18
ENDBRANCH   2  17
TORSDOF 4
ENDMDL
MODEL 9
REMARK VINA RESULT:      -8.3      0.982      1.766
REMARK  Name = 
REMARK  5 active torsions:
REMARK  status: ('A' for Active; 'I' for Inactive)
REMARK    1  A    between atoms: C_1  and  C_2
REMARK    2  A    between atoms: C_9  and  N_10
REMARK    3  A    between atoms: C_11  and  C_13
REMARK    4  A    between atoms: C_13  and  C_14
REMARK    5  A    between atoms: C_14  and  N_15
REMARK                            x       y       z     vdW  Elec       q    Type
REMARK                         _______ _______ _______ _____ _____    ______ ____
ROOT
ATOM      1  N   UNL     1       2.224   6.224  20.890  0.00  0.00    +0.000 N 
ATOM      2  C   UNL     1       1.616   5.001  20.668  0.00  0.00    +0.000 C 
ATOM      3  O   UNL     1       0.421   4.825  20.437  0.00  0.00    +0.000 OA
ATOM      4  H   UNL     1       3.164   6.225  21.269  0.00  0.00    +0.000 HD
ENDROOT
BRANCH   1  13
ATOM      5  C   UNL     1      -0.999  13.463  19.779  0.00  0.00    +0.000 C 
ATOM      6  C   UNL     1      -0.261  12.195  19.420  0.00  0.00    +0.000 C 
ATOM      7  O   UNL     1       0.255  12.080  18.309  0.00  0.00    +0.000 OA
ATOM      8  N   UNL     1      -0.215  11.242  20.421  0.00  0.00    +0.000 N 
ATOM      9  C   UNL     1      -0.924  11.322  21.712  0.00  0.00    +0.000 C 
ATOM     10  C   UNL     1      -0.502  10.111  22.545  0.00  0.00    +0.000 C 
ATOM     11  C   UNL     1       0.269   9.313  21.547  0.00  0.00    +0.000 A 
ATOM     12  C   UNL     1       0.825   8.060  21.751  0.00  0.00    +0.000 A 
ATOM     13  C   UNL     1       1.597   7.482  20.738  0.00  0.00    +0.000 A 
ATOM     14  C   UNL     1       1.755   8.171  19.521  0.00  0.00    +0.000 A 
ATOM     15  C   UNL     1       1.185   9.441  19.327  0.00  0.00    +0.000 A 
ATOM     16  C   UNL     1       0.442  10.001  20.353  0.00  0.00    +0.000 A 
ENDBRANCH   1  13
BRANCH   2  17
ATOM     17  C   UNL     1       2.544   3.810  20.791  0.00  0.00    +0.000 C 
BRANCH  17  18
ATOM     18  C   UNL     1       2.695   3.185  19.402  0.00  0.00    +0.000 C 
BRANCH  18  19
ATOM     19  N   UNL     1       3.800   3.718  18.618  0.00  0.00    +0.000 N 
ATOM     20  C   UNL     1       4.989   4.021  19.238  0.00  0.00    +0.000 A 
ATOM     21  N   UNL     1       6.074   4.371  18.635  0.00  0.00    +0.000 NA
ATOM     22  C   UNL     1       6.047   4.429  17.235  0.00  0.00    +0.000 A 
ATOM     23  C   UNL     1       7.218   4.764  16.552  0.00  0.00    +0.000 A 
ATOM     24  C   UNL     1       7.237   4.808  15.155  0.00  0.00    +0.000 A 
ATOM     25  C   UNL     1       6.081   4.524  14.429  0.00  0.00    +0.000 A 
ATOM     26  C   UNL     1       4.905   4.191  15.097  0.00  0.00    +0.000 A 
ATOM     27  C   UNL     1       4.899   4.142  16.496  0.00  0.00    +0.000 A 
ATOM     28  C   UNL     1       3.686   3.749  17.236  0.00  0.00    +0.000 A 
ATOM     29  O   UNL     1       2.660   3.457  16.626  0.00  0.00    +0.000 OA
ENDBRANCH  18  19
ENDBRANCH  17  18
ENDBRANCH   2  17
TORSDOF 4
ENDMDL
