MODEL 1
REMARK VINA RESULT:      -9.6      0.000      0.000
REMARK  Name = 
REMARK  6 active torsions:
REMARK  status: ('A' for Active; 'I' for Inactive)
REMARK    1  A    between atoms: C_1  and  C_2
REMARK    2  A    between atoms: C_6  and  C_7
REMARK    3  A    between atoms: N_13  and  C_14
REMARK    4  A    between atoms: C_18  and  C_19
REMARK    5  A    between atoms: C_19  and  N_20
REMARK    6  A    between atoms: N_20  and  N_21
REMARK                            x       y       z     vdW  Elec       q    Type
REMARK                         _______ _______ _______ _____ _____    ______ ____
ROOT
ATOM      1  C   UNL     1       1.751   7.962  19.845  0.00  0.00    +0.000 A 
ATOM      2  C   UNL     1       1.357   7.735  21.171  0.00  0.00    +0.000 A 
ATOM      3  C   UNL     1       0.712   8.718  21.923  0.00  0.00    +0.000 A 
ATOM      4  C   UNL     1       0.440   9.958  21.362  0.00  0.00    +0.000 A 
ATOM      5  C   UNL     1       0.830  10.231  20.047  0.00  0.00    +0.000 A 
ATOM      6  C   UNL     1       1.493   9.229  19.299  0.00  0.00    +0.000 A 
ENDROOT
BRANCH   1  15
ATOM      7  C   UNL     1       6.037   3.842  15.390  0.00  0.00    +0.000 C 
ATOM      8  C   UNL     1       5.017   4.193  16.435  0.00  0.00    +0.000 A 
ATOM      9  C   UNL     1       4.665   5.526  16.644  0.00  0.00    +0.000 A 
ATOM     10  C   UNL     1       3.728   5.801  17.623  0.00  0.00    +0.000 A 
ATOM     11  C   UNL     1       3.120   4.827  18.410  0.00  0.00    +0.000 A 
ATOM     12  C   UNL     1       3.440   3.487  18.205  0.00  0.00    +0.000 A 
ATOM     13  C   UNL     1       4.396   3.186  17.206  0.00  0.00    +0.000 A 
ATOM     14  C   UNL     1       2.194   5.498  19.386  0.00  0.00    +0.000 C 
ATOM     15  N   UNL     1       2.340   6.919  19.076  0.00  0.00    +0.000 N 
ATOM     16  C   UNL     1       3.227   7.117  18.016  0.00  0.00    +0.000 C 
ATOM     17  O   UNL     1       3.592   8.123  17.441  0.00  0.00    +0.000 OA
BRANCH  12  18
ATOM     18  C   UNL     1       2.807   2.361  18.981  0.00  0.00    +0.000 C 
ATOM     19  F   UNL     1       1.450   2.330  18.890  0.00  0.00    +0.000 F 
ATOM     20  F   UNL     1       3.235   1.138  18.561  0.00  0.00    +0.000 F 
ATOM     21  F   UNL     1       3.090   2.419  20.312  0.00  0.00    +0.000 F 
ENDBRANCH  12  18
ENDBRANCH   1  15
BRANCH   5  22
ATOM     22  C   UNL     1       0.416  11.532  19.395  0.00  0.00    +0.000 C 
BRANCH  22  23
ATOM     23  N   UNL     1      -0.356  11.360  18.151  0.00  0.00    +0.000 NA
ATOM     24  H   UNL     1       0.122  10.669  17.566  0.00  0.00    +0.000 HD
BRANCH  23  25
ATOM     25  N   UNL     1      -1.747  10.934  18.465  0.00  0.00    +0.000 NA
ATOM     26  C   UNL     1      -2.216   9.875  17.566  0.00  0.00    +0.000 C 
ATOM     27  O   UNL     1      -2.178  10.197  16.180  0.00  0.00    +0.000 OA
ATOM     28  C   UNL     1      -3.138  11.138  15.709  0.00  0.00    +0.000 C 
ATOM     29  C   UNL     1      -4.566  10.953  16.215  0.00  0.00    +0.000 C 
ATOM     30  N   UNL     1      -4.878  11.341  17.577  0.00  0.00    +0.000 N 
ATOM     31  C   UNL     1      -6.116  11.145  18.126  0.00  0.00    +0.000 A 
ATOM     32  N   UNL     1      -6.122  11.555  19.368  0.00  0.00    +0.000 NA
ATOM     33  N   UNL     1      -4.856  11.992  19.662  0.00  0.00    +0.000 NA
ATOM     34  C   UNL     1      -4.092  11.829  18.596  0.00  0.00    +0.000 A 
ATOM     35  C   UNL     1      -2.622  12.125  18.535  0.00  0.00    +0.000 C 
ENDBRANCH  23  25
ENDBRANCH  22  23
ENDBRANCH   5  22
TORSDOF 5
ENDMDL
MODEL 2
REMARK VINA RESULT:      -9.4      2.568      3.468
REMARK  Name = 
REMARK  6 active torsions:
REMARK  status: ('A' for Active; 'I' for Inactive)
REMARK    1  A    between atoms: C_1  and  C_2
REMARK    2  A    between atoms: C_6  and  C_7
REMARK    3  A    between atoms: N_13  and  C_14
REMARK    4  A    between atoms: C_18  and  C_19
REMARK    5  A    between atoms: C_19  and  N_20
REMARK    6  A    between atoms: N_20  and  N_21
REMARK                            x       y       z     vdW  Elec       q    Type
REMARK                         _______ _______ _______ _____ _____    ______ ____
ROOT
ATOM      1  C   UNL     1       1.166   9.438  19.198  0.00  0.00    +0.000 A 
ATOM      2  C   UNL     1       1.268  10.295  20.303  0.00  0.00    +0.000 A 
ATOM      3  C   UNL     1       0.403  11.376  20.476  0.00  0.00    +0.000 A 
ATOM      4  C   UNL     1      -0.595  11.626  19.544  0.00  0.00    +0.000 A 
ATOM      5  C   UNL     1      -0.723  10.804  18.419  0.00  0.00    +0.000 A 
ATOM      6  C   UNL     1       0.168   9.717  18.251  0.00  0.00    +0.000 A 
ENDROOT
BRANCH   1  15
ATOM      7  C   UNL     1       4.301   2.720  19.679  0.00  0.00    +0.000 C 
ATOM      8  C   UNL     1       4.003   4.104  19.178  0.00  0.00    +0.000 A 
ATOM      9  C   UNL     1       3.133   4.930  19.890  0.00  0.00    +0.000 A 
ATOM     10  C   UNL     1       2.882   6.192  19.384  0.00  0.00    +0.000 A 
ATOM     11  C   UNL     1       3.444   6.683  18.210  0.00  0.00    +0.000 A 
ATOM     12  C   UNL     1       4.333   5.884  17.493  0.00  0.00    +0.000 A 
ATOM     13  C   UNL     1       4.603   4.590  17.996  0.00  0.00    +0.000 A 
ATOM     14  C   UNL     1       2.913   8.066  17.956  0.00  0.00    +0.000 C 
ATOM     15  N   UNL     1       2.012   8.299  19.084  0.00  0.00    +0.000 N 
ATOM     16  C   UNL     1       2.000   7.208  19.955  0.00  0.00    +0.000 C 
ATOM     17  O   UNL     1       1.421   7.016  21.006  0.00  0.00    +0.000 OA
BRANCH  12  18
ATOM     18  C   UNL     1       5.019   6.342  16.232  0.00  0.00    +0.000 C 
ATOM     19  F   UNL     1       5.186   5.353  15.312  0.00  0.00    +0.000 F 
ATOM     20  F   UNL     1       4.329   7.328  15.595  0.00  0.00    +0.000 F 
ATOM     21  F   UNL     1       6.263   6.846  16.466  0.00  0.00    +0.000 F 
ENDBRANCH  12  18
ENDBRANCH   1  15
BRANCH   5  22
ATOM     22  C   UNL     1      -1.890  10.996  17.476  0.00  0.00    +0.000 C 
BRANCH  22  23
ATOM     23  N   UNL     1      -2.787  12.104  17.852  0.00  0.00    +0.000 NA
ATOM     24  H   UNL     1      -3.129  12.549  16.996  0.00  0.00    +0.000 HD
BRANCH  23  25
ATOM     25  N   UNL     1      -3.912  11.594  18.684  0.00  0.00    +0.000 NA
ATOM     26  C   UNL     1      -4.987  11.025  17.866  0.00  0.00    +0.000 C 
ATOM     27  O   UNL     1      -5.546  11.908  16.900  0.00  0.00    +0.000 OA
ATOM     28  C   UNL     1      -6.365  12.966  17.388  0.00  0.00    +0.000 C 
ATOM     29  C   UNL     1      -7.372  12.592  18.473  0.00  0.00    +0.000 C 
ATOM     30  N   UNL     1      -6.891  12.363  19.821  0.00  0.00    +0.000 N 
ATOM     31  C   UNL     1      -7.719  11.958  20.833  0.00  0.00    +0.000 A 
ATOM     32  N   UNL     1      -7.032  11.799  21.934  0.00  0.00    +0.000 NA
ATOM     33  N   UNL     1      -5.718  12.059  21.639  0.00  0.00    +0.000 NA
ATOM     34  C   UNL     1      -5.622  12.363  20.357  0.00  0.00    +0.000 A 
ATOM     35  C   UNL     1      -4.340  12.646  19.631  0.00  0.00    +0.000 C 
ENDBRANCH  23  25
ENDBRANCH  22  23
ENDBRANCH   5  22
TORSDOF 5
ENDMDL
MODEL 3
REMARK VINA RESULT:      -9.4      2.277      2.833
REMARK  Name = 
REMARK  6 active torsions:
REMARK  status: ('A' for Active; 'I' for Inactive)
REMARK    1  A    between atoms: C_1  and  C_2
REMARK    2  A    between atoms: C_6  and  C_7
REMARK    3  A    between atoms: N_13  and  C_14
REMARK    4  A    between atoms: C_18  and  C_19
REMARK    5  A    between atoms: C_19  and  N_20
REMARK    6  A    between atoms: N_20  and  N_21
REMARK                            x       y       z     vdW  Elec       q    Type
REMARK                         _______ _______ _______ _____ _____    ______ ____
ROOT
ATOM      1  C   UNL     1       1.591   8.542  19.923  0.00  0.00    +0.000 A 
ATOM      2  C   UNL     1       1.274   8.620  21.287  0.00  0.00    +0.000 A 
ATOM      3  C   UNL     1       0.547   9.689  21.811  0.00  0.00    +0.000 A 
ATOM      4  C   UNL     1       0.113  10.712  20.979  0.00  0.00    +0.000 A 
ATOM      5  C   UNL     1       0.421  10.681  19.614  0.00  0.00    +0.000 A 
ATOM      6  C   UNL     1       1.167   9.596  19.097  0.00  0.00    +0.000 A 
ENDROOT
BRANCH   1  15
ATOM      7  C   UNL     1       3.661   1.712  17.863  0.00  0.00    +0.000 C 
ATOM      8  C   UNL     1       3.611   3.212  17.924  0.00  0.00    +0.000 A 
ATOM      9  C   UNL     1       2.813   3.843  18.878  0.00  0.00    +0.000 A 
ATOM     10  C   UNL     1       2.793   5.226  18.889  0.00  0.00    +0.000 A 
ATOM     11  C   UNL     1       3.520   6.020  18.007  0.00  0.00    +0.000 A 
ATOM     12  C   UNL     1       4.341   5.411  17.060  0.00  0.00    +0.000 A 
ATOM     13  C   UNL     1       4.375   3.997  17.033  0.00  0.00    +0.000 A 
ATOM     14  C   UNL     1       3.220   7.464  18.291  0.00  0.00    +0.000 C 
ATOM     15  N   UNL     1       2.269   7.405  19.400  0.00  0.00    +0.000 N 
ATOM     16  C   UNL     1       2.023   6.086  19.786  0.00  0.00    +0.000 C 
ATOM     17  O   UNL     1       1.335   5.614  20.669  0.00  0.00    +0.000 OA
BRANCH  12  18
ATOM     18  C   UNL     1       5.192   6.186  16.087  0.00  0.00    +0.000 C 
ATOM     19  F   UNL     1       5.789   5.407  15.144  0.00  0.00    +0.000 F 
ATOM     20  F   UNL     1       4.475   7.118  15.400  0.00  0.00    +0.000 F 
ATOM     21  F   UNL     1       6.201   6.866  16.700  0.00  0.00    +0.000 F 
ENDBRANCH  12  18
ENDBRANCH   1  15
BRANCH   5  22
ATOM     22  C   UNL     1      -0.165  11.724  18.688  0.00  0.00    +0.000 C 
BRANCH  22  23
ATOM     23  N   UNL     1      -1.242  11.216  17.818  0.00  0.00    +0.000 NA
ATOM     24  H   UNL     1      -0.906  10.372  17.347  0.00  0.00    +0.000 HD
BRANCH  23  25
ATOM     25  N   UNL     1      -2.463  10.937  18.624  0.00  0.00    +0.000 NA
ATOM     26  C   UNL     1      -3.421  10.097  17.898  0.00  0.00    +0.000 C 
ATOM     27  O   UNL     1      -3.853  10.615  16.645  0.00  0.00    +0.000 OA
ATOM     28  C   UNL     1      -4.732  11.735  16.677  0.00  0.00    +0.000 C 
ATOM     29  C   UNL     1      -5.870  11.669  17.692  0.00  0.00    +0.000 C 
ATOM     30  N   UNL     1      -5.567  11.887  19.093  0.00  0.00    +0.000 N 
ATOM     31  C   UNL     1      -6.518  11.777  20.071  0.00  0.00    +0.000 A 
ATOM     32  N   UNL     1      -5.979  11.995  21.242  0.00  0.00    +0.000 NA
ATOM     33  N   UNL     1      -4.639  12.209  21.044  0.00  0.00    +0.000 NA
ATOM     34  C   UNL     1      -4.379  12.108  19.753  0.00  0.00    +0.000 A 
ATOM     35  C   UNL     1      -3.015  12.210  19.137  0.00  0.00    +0.000 C 
ENDBRANCH  23  25
ENDBRANCH  22  23
ENDBRANCH   5  22
TORSDOF 5
ENDMDL
MODEL 4
REMARK VINA RESULT:      -9.3      1.602      2.203
REMARK  Name = 
REMARK  6 active torsions:
REMARK  status: ('A' for Active; 'I' for Inactive)
REMARK    1  A    between atoms: C_1  and  C_2
REMARK    2  A    between atoms: C_6  and  C_7
REMARK    3  A    between atoms: N_13  and  C_14
REMARK    4  A    between atoms: C_18  and  C_19
REMARK    5  A    between atoms: C_19  and  N_20
REMARK    6  A    between atoms: N_20  and  N_21
REMARK                            x       y       z     vdW  Elec       q    Type
REMARK                         _______ _______ _______ _____ _____    ______ ____
ROOT
ATOM      1  C   UNL     1       0.995   9.298  19.672  0.00  0.00    +0.000 A 
ATOM      2  C   UNL     1       1.024   9.741  21.002  0.00  0.00    +0.000 A 
ATOM      3  C   UNL     1       0.326  10.877  21.413  0.00  0.00    +0.000 A 
ATOM      4  C   UNL     1      -0.426  11.602  20.497  0.00  0.00    +0.000 A 
ATOM      5  C   UNL     1      -0.470  11.204  19.157  0.00  0.00    +0.000 A 
ATOM      6  C   UNL     1       0.251  10.055  18.752  0.00  0.00    +0.000 A 
ENDROOT
BRANCH   1  15
ATOM      7  C   UNL     1       5.527   4.178  16.768  0.00  0.00    +0.000 C 
ATOM      8  C   UNL     1       4.499   4.804  17.667  0.00  0.00    +0.000 A 
ATOM      9  C   UNL     1       4.043   6.097  17.407  0.00  0.00    +0.000 A 
ATOM     10  C   UNL     1       3.104   6.634  18.268  0.00  0.00    +0.000 A 
ATOM     11  C   UNL     1       2.591   5.963  19.374  0.00  0.00    +0.000 A 
ATOM     12  C   UNL     1       3.015   4.663  19.640  0.00  0.00    +0.000 A 
ATOM     13  C   UNL     1       3.975   4.096  18.770  0.00  0.00    +0.000 A 
ATOM     14  C   UNL     1       1.630   6.869  20.091  0.00  0.00    +0.000 C 
ATOM     15  N   UNL     1       1.654   8.094  19.294  0.00  0.00    +0.000 N 
ATOM     16  C   UNL     1       2.504   7.965  18.193  0.00  0.00    +0.000 C 
ATOM     17  O   UNL     1       2.776   8.725  17.285  0.00  0.00    +0.000 OA
BRANCH  12  18
ATOM     18  C   UNL     1       2.490   3.844  20.791  0.00  0.00    +0.000 C 
ATOM     19  F   UNL     1       1.203   3.434  20.626  0.00  0.00    +0.000 F 
ATOM     20  F   UNL     1       3.217   2.711  20.994  0.00  0.00    +0.000 F 
ATOM     21  F   UNL     1       2.516   4.522  21.972  0.00  0.00    +0.000 F 
ENDBRANCH  12  18
ENDBRANCH   1  15
BRANCH   5  22
ATOM     22  C   UNL     1      -1.393  11.914  18.192  0.00  0.00    +0.000 C 
BRANCH  22  23
ATOM     23  N   UNL     1      -2.400  12.770  18.846  0.00  0.00    +0.000 NA
ATOM     24  H   UNL     1      -2.724  13.465  18.168  0.00  0.00    +0.000 HD
BRANCH  23  25
ATOM     25  N   UNL     1      -3.528  11.940  19.352  0.00  0.00    +0.000 NA
ATOM     26  C   UNL     1      -4.121  11.115  18.295  0.00  0.00    +0.000 C 
ATOM     27  O   UNL     1      -4.602  11.833  17.164  0.00  0.00    +0.000 OA
ATOM     28  C   UNL     1      -5.786  12.603  17.343  0.00  0.00    +0.000 C 
ATOM     29  C   UNL     1      -6.917  11.930  18.116  0.00  0.00    +0.000 C 
ATOM     30  N   UNL     1      -6.799  11.806  19.555  0.00  0.00    +0.000 N 
ATOM     31  C   UNL     1      -7.737  11.157  20.312  0.00  0.00    +0.000 A 
ATOM     32  N   UNL     1      -7.378  11.165  21.569  0.00  0.00    +0.000 NA
ATOM     33  N   UNL     1      -6.161  11.793  21.645  0.00  0.00    +0.000 NA
ATOM     34  C   UNL     1      -5.790  12.148  20.428  0.00  0.00    +0.000 A 
ATOM     35  C   UNL     1      -4.485  12.802  20.081  0.00  0.00    +0.000 C 
ENDBRANCH  23  25
ENDBRANCH  22  23
ENDBRANCH   5  22
TORSDOF 5
ENDMDL
MODEL 5
REMARK VINA RESULT:      -9.2      3.302      4.190
REMARK  Name = 
REMARK  6 active torsions:
REMARK  status: ('A' for Active; 'I' for Inactive)
REMARK    1  A    between atoms: C_1  and  C_2
REMARK    2  A    between atoms: C_6  and  C_7
REMARK    3  A    between atoms: N_13  and  C_14
REMARK    4  A    between atoms: C_18  and  C_19
REMARK    5  A    between atoms: C_19  and  N_20
REMARK    6  A    between atoms: N_20  and  N_21
REMARK                            x       y       z     vdW  Elec       q    Type
REMARK                         _______ _______ _______ _____ _____    ______ ____
ROOT
ATOM      1  C   UNL     1       0.821   9.794  20.127  0.00  0.00    +0.000 A 
ATOM      2  C   UNL     1       1.130  11.040  19.565  0.00  0.00    +0.000 A 
ATOM      3  C   UNL     1       0.628  12.229  20.094  0.00  0.00    +0.000 A 
ATOM      4  C   UNL     1      -0.198  12.201  21.209  0.00  0.00    +0.000 A 
ATOM      5  C   UNL     1      -0.544  10.978  21.793  0.00  0.00    +0.000 A 
ATOM      6  C   UNL     1      -0.036   9.778  21.240  0.00  0.00    +0.000 A 
ENDROOT
BRANCH   1  15
ATOM      7  C   UNL     1       4.941   4.765  16.533  0.00  0.00    +0.000 C 
ATOM      8  C   UNL     1       4.003   5.354  17.547  0.00  0.00    +0.000 A 
ATOM      9  C   UNL     1       3.581   6.677  17.418  0.00  0.00    +0.000 A 
ATOM     10  C   UNL     1       2.724   7.177  18.382  0.00  0.00    +0.000 A 
ATOM     11  C   UNL     1       2.263   6.440  19.468  0.00  0.00    +0.000 A 
ATOM     12  C   UNL     1       2.654   5.110  19.605  0.00  0.00    +0.000 A 
ATOM     13  C   UNL     1       3.530   4.580  18.629  0.00  0.00    +0.000 A 
ATOM     14  C   UNL     1       1.389   7.320  20.317  0.00  0.00    +0.000 C 
ATOM     15  N   UNL     1       1.406   8.601  19.614  0.00  0.00    +0.000 N 
ATOM     16  C   UNL     1       2.172   8.529  18.449  0.00  0.00    +0.000 C 
ATOM     17  O   UNL     1       2.410   9.347  17.583  0.00  0.00    +0.000 OA
BRANCH  12  18
ATOM     18  C   UNL     1       2.179   4.223  20.726  0.00  0.00    +0.000 C 
ATOM     19  F   UNL     1       0.825   4.089  20.780  0.00  0.00    +0.000 F 
ATOM     20  F   UNL     1       2.672   2.957  20.630  0.00  0.00    +0.000 F 
ATOM     21  F   UNL     1       2.556   4.680  21.953  0.00  0.00    +0.000 F 
ENDBRANCH  12  18
ENDBRANCH   1  15
BRANCH   5  22
ATOM     22  C   UNL     1      -1.333  10.957  23.083  0.00  0.00    +0.000 C 
BRANCH  22  23
ATOM     23  N   UNL     1      -1.997  12.235  23.400  0.00  0.00    +0.000 NA
ATOM     24  H   UNL     1      -1.531  12.980  22.875  0.00  0.00    +0.000 HD
BRANCH  23  25
ATOM     25  N   UNL     1      -3.445  12.158  23.062  0.00  0.00    +0.000 NA
ATOM     26  C   UNL     1      -3.769  12.921  21.853  0.00  0.00    +0.000 C 
ATOM     27  O   UNL     1      -3.420  14.300  21.894  0.00  0.00    +0.000 OA
ATOM     28  C   UNL     1      -4.204  15.140  22.735  0.00  0.00    +0.000 C 
ATOM     29  C   UNL     1      -5.715  14.934  22.672  0.00  0.00    +0.000 C 
ATOM     30  N   UNL     1      -6.288  13.773  23.325  0.00  0.00    +0.000 N 
ATOM     31  C   UNL     1      -7.623  13.482  23.257  0.00  0.00    +0.000 A 
ATOM     32  N   UNL     1      -7.870  12.373  23.906  0.00  0.00    +0.000 NA
ATOM     33  N   UNL     1      -6.673  11.897  24.376  0.00  0.00    +0.000 NA
ATOM     34  C   UNL     1      -5.710  12.718  23.996  0.00  0.00    +0.000 A 
ATOM     35  C   UNL     1      -4.247  12.510  24.255  0.00  0.00    +0.000 C 
ENDBRANCH  23  25
ENDBRANCH  22  23
ENDBRANCH   5  22
TORSDOF 5
ENDMDL
MODEL 6
REMARK VINA RESULT:      -9.1      0.912      1.241
REMARK  Name = 
REMARK  6 active torsions:
REMARK  status: ('A' for Active; 'I' for Inactive)
REMARK    1  A    between atoms: C_1  and  C_2
REMARK    2  A    between atoms: C_6  and  C_7
REMARK    3  A    between atoms: N_13  and  C_14
REMARK    4  A    between atoms: C_18  and  C_19
REMARK    5  A    between atoms: C_19  and  N_20
REMARK    6  A    between atoms: N_20  and  N_21
REMARK                            x       y       z     vdW  Elec       q    Type
REMARK                         _______ _______ _______ _____ _____    ______ ____
ROOT
ATOM      1  C   UNL     1       1.558   8.505  19.824  0.00  0.00    +0.000 A 
ATOM      2  C   UNL     1       1.264   8.451  21.194  0.00  0.00    +0.000 A 
ATOM      3  C   UNL     1       0.609   9.496  21.845  0.00  0.00    +0.000 A 
ATOM      4  C   UNL     1       0.226  10.627  21.137  0.00  0.00    +0.000 A 
ATOM      5  C   UNL     1       0.513  10.729  19.772  0.00  0.00    +0.000 A 
ATOM      6  C   UNL     1       1.187   9.665  19.126  0.00  0.00    +0.000 A 
ENDROOT
BRANCH   1  15
ATOM      7  C   UNL     1       5.800   4.016  15.695  0.00  0.00    +0.000 C 
ATOM      8  C   UNL     1       4.828   4.460  16.751  0.00  0.00    +0.000 A 
ATOM      9  C   UNL     1       4.409   5.790  16.795  0.00  0.00    +0.000 A 
ATOM     10  C   UNL     1       3.520   6.153  17.791  0.00  0.00    +0.000 A 
ATOM     11  C   UNL     1       3.024   5.272  18.747  0.00  0.00    +0.000 A 
ATOM     12  C   UNL     1       3.411   3.934  18.709  0.00  0.00    +0.000 A 
ATOM     13  C   UNL     1       4.319   3.543  17.697  0.00  0.00    +0.000 A 
ATOM     14  C   UNL     1       2.122   6.027  19.683  0.00  0.00    +0.000 C 
ATOM     15  N   UNL     1       2.161   7.394  19.168  0.00  0.00    +0.000 N 
ATOM     16  C   UNL     1       2.965   7.484  18.030  0.00  0.00    +0.000 C 
ATOM     17  O   UNL     1       3.231   8.415  17.297  0.00  0.00    +0.000 OA
BRANCH  12  18
ATOM     18  C   UNL     1       2.899   2.900  19.677  0.00  0.00    +0.000 C 
ATOM     19  F   UNL     1       3.513   1.691  19.559  0.00  0.00    +0.000 F 
ATOM     20  F   UNL     1       3.070   3.277  20.975  0.00  0.00    +0.000 F 
ATOM     21  F   UNL     1       1.567   2.657  19.530  0.00  0.00    +0.000 F 
ENDBRANCH  12  18
ENDBRANCH   1  15
BRANCH   5  22
ATOM     22  C   UNL     1      -0.021  11.899  18.976  0.00  0.00    +0.000 C 
BRANCH  22  23
ATOM     23  N   UNL     1      -1.103  11.542  18.040  0.00  0.00    +0.000 NA
ATOM     24  H   UNL     1      -0.776  10.778  17.443  0.00  0.00    +0.000 HD
BRANCH  23  25
ATOM     25  N   UNL     1      -2.327  11.155  18.794  0.00  0.00    +0.000 NA
ATOM     26  C   UNL     1      -3.155  10.202  18.048  0.00  0.00    +0.000 C 
ATOM     27  O   UNL     1      -3.576  10.641  16.762  0.00  0.00    +0.000 OA
ATOM     28  C   UNL     1      -4.567  11.662  16.720  0.00  0.00    +0.000 C 
ATOM     29  C   UNL     1      -5.741  11.500  17.682  0.00  0.00    +0.000 C 
ATOM     30  N   UNL     1      -5.533  11.782  19.089  0.00  0.00    +0.000 N 
ATOM     31  C   UNL     1      -6.515  11.595  20.024  0.00  0.00    +0.000 A 
ATOM     32  N   UNL     1      -6.060  11.896  21.213  0.00  0.00    +0.000 NA
ATOM     33  N   UNL     1      -4.742  12.246  21.072  0.00  0.00    +0.000 NA
ATOM     34  C   UNL     1      -4.409  12.142  19.798  0.00  0.00    +0.000 A 
ATOM     35  C   UNL     1      -3.034  12.374  19.245  0.00  0.00    +0.000 C 
ENDBRANCH  23  25
ENDBRANCH  22  23
ENDBRANCH   5  22
TORSDOF 5
ENDMDL
MODEL 7
REMARK VINA RESULT:      -9.0      2.879      3.713
REMARK  Name = 
REMARK  6 active torsions:
REMARK  status: ('A' for Active; 'I' for Inactive)
REMARK    1  A    between atoms: C_1  and  C_2
REMARK    2  A    between atoms: C_6  and  C_7
REMARK    3  A    between atoms: N_13  and  C_14
REMARK    4  A    between atoms: C_18  and  C_19
REMARK    5  A    between atoms: C_19  and  N_20
REMARK    6  A    between atoms: N_20  and  N_21
REMARK                            x       y       z     vdW  Elec       q    Type
REMARK                         _______ _______ _______ _____ _____    ______ ____
ROOT
ATOM      1  C   UNL     1       0.462   9.194  21.176  0.00  0.00    +0.000 A 
ATOM      2  C   UNL     1       0.331   9.102  22.569  0.00  0.00    +0.000 A 
ATOM      3  C   UNL     1      -0.370  10.058  23.304  0.00  0.00    +0.000 A 
ATOM      4  C   UNL     1      -0.965  11.135  22.660  0.00  0.00    +0.000 A 
ATOM      5  C   UNL     1      -0.845  11.273  21.273  0.00  0.00    +0.000 A 
ATOM      6  C   UNL     1      -0.123  10.302  20.540  0.00  0.00    +0.000 A 
ENDROOT
BRANCH   1  15
ATOM      7  C   UNL     1       4.848   5.254  16.657  0.00  0.00    +0.000 C 
ATOM      8  C   UNL     1       3.893   5.569  17.772  0.00  0.00    +0.000 A 
ATOM      9  C   UNL     1       3.376   6.859  17.901  0.00  0.00    +0.000 A 
ATOM     10  C   UNL     1       2.506   7.103  18.949  0.00  0.00    +0.000 A 
ATOM     11  C   UNL     1       2.120   6.141  19.877  0.00  0.00    +0.000 A 
ATOM     12  C   UNL     1       2.606   4.841  19.755  0.00  0.00    +0.000 A 
ATOM     13  C   UNL     1       3.497   4.572  18.689  0.00  0.00    +0.000 A 
ATOM     14  C   UNL     1       1.205   6.777  20.885  0.00  0.00    +0.000 C 
ATOM     15  N   UNL     1       1.118   8.167  20.440  0.00  0.00    +0.000 N 
ATOM     16  C   UNL     1       1.863   8.374  19.278  0.00  0.00    +0.000 C 
ATOM     17  O   UNL     1       2.025   9.357  18.582  0.00  0.00    +0.000 OA
BRANCH  12  18
ATOM     18  C   UNL     1       2.217   3.725  20.688  0.00  0.00    +0.000 C 
ATOM     19  F   UNL     1       2.820   2.538  20.402  0.00  0.00    +0.000 F 
ATOM     20  F   UNL     1       2.536   3.998  21.984  0.00  0.00    +0.000 F 
ATOM     21  F   UNL     1       0.878   3.475  20.677  0.00  0.00    +0.000 F 
ENDBRANCH  12  18
ENDBRANCH   1  15
BRANCH   5  22
ATOM     22  C   UNL     1      -1.603  12.370  20.559  0.00  0.00    +0.000 C 
BRANCH  22  23
ATOM     23  N   UNL     1      -2.397  13.231  21.455  0.00  0.00    +0.000 NA
ATOM     24  H   UNL     1      -2.481  14.156  21.025  0.00  0.00    +0.000 HD
BRANCH  23  25
ATOM     25  N   UNL     1      -3.734  12.624  21.699  0.00  0.00    +0.000 NA
ATOM     26  C   UNL     1      -4.612  12.738  20.530  0.00  0.00    +0.000 C 
ATOM     27  O   UNL     1      -4.832  14.065  20.064  0.00  0.00    +0.000 OA
ATOM     28  C   UNL     1      -5.655  14.904  20.869  0.00  0.00    +0.000 C 
ATOM     29  C   UNL     1      -6.931  14.269  21.415  0.00  0.00    +0.000 C 
ATOM     30  N   UNL     1      -6.828  13.338  22.521  0.00  0.00    +0.000 N 
ATOM     31  C   UNL     1      -7.916  12.677  23.023  0.00  0.00    +0.000 A 
ATOM     32  N   UNL     1      -7.546  11.881  23.992  0.00  0.00    +0.000 NA
ATOM     33  N   UNL     1      -6.183  11.982  24.108  0.00  0.00    +0.000 NA
ATOM     34  C   UNL     1      -5.741  12.831  23.198  0.00  0.00    +0.000 A 
ATOM     35  C   UNL     1      -4.298  13.162  22.956  0.00  0.00    +0.000 C 
ENDBRANCH  23  25
ENDBRANCH  22  23
ENDBRANCH   5  22
TORSDOF 5
ENDMDL
MODEL 8
REMARK VINA RESULT:      -9.0      3.488      4.390
REMARK  Name = 
REMARK  6 active torsions:
REMARK  status: ('A' for Active; 'I' for Inactive)
REMARK    1  A    between atoms: C_1  and  C_2
REMARK    2  A    between atoms: C_6  and  C_7
REMARK    3  A    between atoms: N_13  and  C_14
REMARK    4  A    between atoms: C_18  and  C_19
REMARK    5  A    between atoms: C_19  and  N_20
REMARK    6  A    between atoms: N_20  and  N_21
REMARK                            x       y       z     vdW  Elec       q    Type
REMARK                         _______ _______ _______ _____ _____    ______ ____
ROOT
ATOM      1  C   UNL     1       1.666   8.605  19.267  0.00  0.00    +0.000 A 
ATOM      2  C   UNL     1       1.561   9.635  18.323  0.00  0.00    +0.000 A 
ATOM      3  C   UNL     1       0.947  10.850  18.627  0.00  0.00    +0.000 A 
ATOM      4  C   UNL     1       0.421  11.067  19.894  0.00  0.00    +0.000 A 
ATOM      5  C   UNL     1       0.491  10.060  20.862  0.00  0.00    +0.000 A 
ATOM      6  C   UNL     1       1.108   8.828  20.537  0.00  0.00    +0.000 A 
ENDROOT
BRANCH   1  15
ATOM      7  C   UNL     1       3.824   1.548  18.409  0.00  0.00    +0.000 C 
ATOM      8  C   UNL     1       3.765   3.037  18.222  0.00  0.00    +0.000 A 
ATOM      9  C   UNL     1       2.939   3.809  19.038  0.00  0.00    +0.000 A 
ATOM     10  C   UNL     1       2.912   5.175  18.822  0.00  0.00    +0.000 A 
ATOM     11  C   UNL     1       3.658   5.820  17.841  0.00  0.00    +0.000 A 
ATOM     12  C   UNL     1       4.508   5.072  17.028  0.00  0.00    +0.000 A 
ATOM     13  C   UNL     1       4.549   3.673  17.235  0.00  0.00    +0.000 A 
ATOM     14  C   UNL     1       3.344   7.289  17.877  0.00  0.00    +0.000 C 
ATOM     15  N   UNL     1       2.364   7.403  18.955  0.00  0.00    +0.000 N 
ATOM     16  C   UNL     1       2.113   6.163  19.545  0.00  0.00    +0.000 C 
ATOM     17  O   UNL     1       1.404   5.836  20.475  0.00  0.00    +0.000 OA
BRANCH  12  18
ATOM     18  C   UNL     1       5.382   5.685  15.965  0.00  0.00    +0.000 C 
ATOM     19  F   UNL     1       4.775   6.685  15.269  0.00  0.00    +0.000 F 
ATOM     20  F   UNL     1       6.519   6.229  16.479  0.00  0.00    +0.000 F 
ATOM     21  F   UNL     1       5.788   4.778  15.034  0.00  0.00    +0.000 F 
ENDBRANCH  12  18
ENDBRANCH   1  15
BRANCH   5  22
ATOM     22  C   UNL     1       0.040  10.345  22.277  0.00  0.00    +0.000 C 
BRANCH  22  23
ATOM     23  N   UNL     1      -0.410  11.732  22.495  0.00  0.00    +0.000 NA
ATOM     24  H   UNL     1      -0.003  12.323  21.765  0.00  0.00    +0.000 HD
BRANCH  23  25
ATOM     25  N   UNL     1      -1.898  11.797  22.476  0.00  0.00    +0.000 NA
ATOM     26  C   UNL     1      -2.401  12.557  21.328  0.00  0.00    +0.000 C 
ATOM     27  O   UNL     1      -1.921  13.893  21.227  0.00  0.00    +0.000 OA
ATOM     28  C   UNL     1      -2.420  14.833  22.175  0.00  0.00    +0.000 C 
ATOM     29  C   UNL     1      -3.922  14.783  22.444  0.00  0.00    +0.000 C 
ATOM     30  N   UNL     1      -4.448  13.706  23.259  0.00  0.00    +0.000 N 
ATOM     31  C   UNL     1      -5.788  13.553  23.490  0.00  0.00    +0.000 A 
ATOM     32  N   UNL     1      -5.994  12.493  24.229  0.00  0.00    +0.000 NA
ATOM     33  N   UNL     1      -4.775  11.908  24.456  0.00  0.00    +0.000 NA
ATOM     34  C   UNL     1      -3.844  12.614  23.841  0.00  0.00    +0.000 A 
ATOM     35  C   UNL     1      -2.386  12.262  23.793  0.00  0.00    +0.000 C 
ENDBRANCH  23  25
ENDBRANCH  22  23
ENDBRANCH   5  22
TORSDOF 5
ENDMDL
MODEL 9
REMARK VINA RESULT:      -8.9      2.683      3.237
REMARK  Name = 
REMARK  6 active torsions:
REMARK  status: ('A' for Active; 'I' for Inactive)
REMARK    1  A    between atoms: C_1  and  C_2
REMARK    2  A    between atoms: C_6  and  C_7
REMARK    3  A    between atoms: N_13  and  C_14
REMARK    4  A    between atoms: C_18  and  C_19
REMARK    5  A    between atoms: C_19  and  N_20
REMARK    6  A    between atoms: N_20  and  N_21
REMARK                            x       y       z     vdW  Elec       q    Type
REMARK                         _______ _______ _______ _____ _____    ______ ____
ROOT
ATOM      1  C   UNL     1       1.587   8.205  20.202  0.00  0.00    +0.000 A 
ATOM      2  C   UNL     1       1.636   8.143  21.602  0.00  0.00    +0.000 A 
ATOM      3  C   UNL     1       1.032   9.115  22.401  0.00  0.00    +0.000 A 
ATOM      4  C   UNL     1       0.357  10.178  21.816  0.00  0.00    +0.000 A 
ATOM      5  C   UNL     1       0.297  10.286  20.422  0.00  0.00    +0.000 A 
ATOM      6  C   UNL     1       0.922   9.299  19.624  0.00  0.00    +0.000 A 
ENDROOT
BRANCH   1  15
ATOM      7  C   UNL     1       5.676   4.094  15.558  0.00  0.00    +0.000 C 
ATOM      8  C   UNL     1       4.709   4.443  16.653  0.00  0.00    +0.000 A 
ATOM      9  C   UNL     1       4.354   5.774  16.870  0.00  0.00    +0.000 A 
ATOM     10  C   UNL     1       3.467   6.047  17.895  0.00  0.00    +0.000 A 
ATOM     11  C   UNL     1       2.911   5.074  18.720  0.00  0.00    +0.000 A 
ATOM     12  C   UNL     1       3.234   3.735  18.508  0.00  0.00    +0.000 A 
ATOM     13  C   UNL     1       4.139   3.436  17.463  0.00  0.00    +0.000 A 
ATOM     14  C   UNL     1       2.031   5.742  19.738  0.00  0.00    +0.000 C 
ATOM     15  N   UNL     1       2.146   7.162  19.410  0.00  0.00    +0.000 N 
ATOM     16  C   UNL     1       2.973   7.361  18.304  0.00  0.00    +0.000 C 
ATOM     17  O   UNL     1       3.297   8.366  17.703  0.00  0.00    +0.000 OA
BRANCH  12  18
ATOM     18  C   UNL     1       2.655   2.608  19.324  0.00  0.00    +0.000 C 
ATOM     19  F   UNL     1       1.295   2.596  19.351  0.00  0.00    +0.000 F 
ATOM     20  F   UNL     1       3.028   1.385  18.857  0.00  0.00    +0.000 F 
ATOM     21  F   UNL     1       3.052   2.648  20.627  0.00  0.00    +0.000 F 
ENDBRANCH  12  18
ENDBRANCH   1  15
BRANCH   5  22
ATOM     22  C   UNL     1      -0.549  11.367  19.788  0.00  0.00    +0.000 C 
BRANCH  22  23
ATOM     23  N   UNL     1      -0.865  12.488  20.693  0.00  0.00    +0.000 NA
ATOM     24  H   UNL     1      -0.794  13.361  20.163  0.00  0.00    +0.000 HD
BRANCH  23  25
ATOM     25  N   UNL     1      -2.227  12.313  21.269  0.00  0.00    +0.000 NA
ATOM     26  C   UNL     1      -3.240  13.069  20.526  0.00  0.00    +0.000 C 
ATOM     27  O   UNL     1      -3.002  14.469  20.428  0.00  0.00    +0.000 OA
ATOM     28  C   UNL     1      -3.177  15.238  21.613  0.00  0.00    +0.000 C 
ATOM     29  C   UNL     1      -4.421  14.926  22.441  0.00  0.00    +0.000 C 
ATOM     30  N   UNL     1      -4.439  13.718  23.242  0.00  0.00    +0.000 N 
ATOM     31  C   UNL     1      -5.540  13.333  23.958  0.00  0.00    +0.000 A 
ATOM     32  N   UNL     1      -5.302  12.200  24.566  0.00  0.00    +0.000 NA
ATOM     33  N   UNL     1      -4.037  11.803  24.214  0.00  0.00    +0.000 NA
ATOM     34  C   UNL     1      -3.526  12.696  23.386  0.00  0.00    +0.000 A 
ATOM     35  C   UNL     1      -2.185  12.589  22.722  0.00  0.00    +0.000 C 
ENDBRANCH  23  25
ENDBRANCH  22  23
ENDBRANCH   5  22
TORSDOF 5
ENDMDL
