MODEL 1
REMARK VINA RESULT:      -8.6      0.000      0.000
REMARK  Name = 
REMARK  5 active torsions:
REMARK  status: ('A' for Active; 'I' for Inactive)
REMARK    1  A    between atoms: C_1  and  C_2
REMARK    2  A    between atoms: C_9  and  N_10
REMARK    3  A    between atoms: C_11  and  C_13
REMARK    4  A    between atoms: C_18  and  C_19
REMARK    5  A    between atoms: C_24  and  C_25
REMARK                            x       y       z     vdW  Elec       q    Type
REMARK                         _______ _______ _______ _____ _____    ______ ____
ROOT
ATOM      1  N   UNL     1       2.955   6.747  17.363  0.00  0.00    +0.000 N 
ATOM      2  C   UNL     1       4.330   6.704  17.134  0.00  0.00    +0.000 C 
ATOM      3  O   UNL     1       5.148   7.466  17.644  0.00  0.00    +0.000 OA
ATOM      4  H   UNL     1       2.418   5.915  17.157  0.00  0.00    +0.000 HD
ENDROOT
BRANCH   1  13
ATOM      5  C   UNL     1      -0.772  12.268  21.802  0.00  0.00    +0.000 C 
ATOM      6  C   UNL     1      -0.210  11.612  20.561  0.00  0.00    +0.000 C 
ATOM      7  O   UNL     1      -0.326  12.172  19.472  0.00  0.00    +0.000 OA
ATOM      8  N   UNL     1       0.430  10.402  20.773  0.00  0.00    +0.000 N 
ATOM      9  C   UNL     1       0.434   9.647  22.038  0.00  0.00    +0.000 C 
ATOM     10  C   UNL     1       1.297   8.399  21.827  0.00  0.00    +0.000 C 
ATOM     11  C   UNL     1       1.521   8.424  20.350  0.00  0.00    +0.000 A 
ATOM     12  C   UNL     1       2.135   7.449  19.573  0.00  0.00    +0.000 A 
ATOM     13  C   UNL     1       2.357   7.707  18.215  0.00  0.00    +0.000 A 
ATOM     14  C   UNL     1       1.989   8.951  17.676  0.00  0.00    +0.000 A 
ATOM     15  C   UNL     1       1.310   9.902  18.457  0.00  0.00    +0.000 A 
ATOM     16  C   UNL     1       1.076   9.623  19.793  0.00  0.00    +0.000 A 
ENDBRANCH   1  13
BRANCH   2  17
ATOM     17  C   UNL     1       4.826   5.623  16.227  0.00  0.00    +0.000 A 
ATOM     18  C   UNL     1       5.498   6.047  15.059  0.00  0.00    +0.000 A 
ATOM     19  C   UNL     1       6.213   5.141  14.282  0.00  0.00    +0.000 A 
ATOM     20  C   UNL     1       6.261   3.807  14.658  0.00  0.00    +0.000 A 
ATOM     21  C   UNL     1       5.526   3.363  15.760  0.00  0.00    +0.000 A 
ATOM     22  C   UNL     1       4.782   4.243  16.579  0.00  0.00    +0.000 A 
BRANCH  22  23
ATOM     23  C   UNL     1       3.929   3.683  17.694  0.00  0.00    +0.000 A 
ATOM     24  C   UNL     1       2.735   3.006  17.367  0.00  0.00    +0.000 A 
ATOM     25  C   UNL     1       1.884   2.455  18.332  0.00  0.00    +0.000 A 
ATOM     26  C   UNL     1       2.237   2.505  19.675  0.00  0.00    +0.000 A 
ATOM     27  C   UNL     1       3.418   3.125  20.036  0.00  0.00    +0.000 A 
ATOM     28  C   UNL     1       4.261   3.732  19.076  0.00  0.00    +0.000 A 
BRANCH  28  29
ATOM     29  C   UNL     1       5.431   4.383  19.591  0.00  0.00    +0.000 C 
ATOM     30  N   UNL     1       6.372   4.958  19.961  0.00  0.00    +0.000 NA
ENDBRANCH  28  29
ENDBRANCH  22  23
ENDBRANCH   2  17
TORSDOF 4
ENDMDL
MODEL 2
REMARK VINA RESULT:      -8.6      0.955      1.627
REMARK  Name = 
REMARK  5 active torsions:
REMARK  status: ('A' for Active; 'I' for Inactive)
REMARK    1  A    between atoms: C_1  and  C_2
REMARK    2  A    between atoms: C_9  and  N_10
REMARK    3  A    between atoms: C_11  and  C_13
REMARK    4  A    between atoms: C_18  and  C_19
REMARK    5  A    between atoms: C_24  and  C_25
REMARK                            x       y       z     vdW  Elec       q    Type
REMARK                         _______ _______ _______ _____ _____    ______ ____
ROOT
ATOM      1  N   UNL     1       2.915   6.550  17.442  0.00  0.00    +0.000 N 
ATOM      2  C   UNL     1       4.269   6.689  17.140  0.00  0.00    +0.000 C 
ATOM      3  O   UNL     1       4.997   7.572  17.586  0.00  0.00    +0.000 OA
ATOM      4  H   UNL     1       2.489   5.645  17.286  0.00  0.00    +0.000 HD
ENDROOT
BRANCH   1  13
ATOM      5  C   UNL     1      -0.551  11.566  22.628  0.00  0.00    +0.000 C 
ATOM      6  C   UNL     1       0.246  10.374  22.149  0.00  0.00    +0.000 C 
ATOM      7  O   UNL     1       0.724   9.593  22.971  0.00  0.00    +0.000 OA
ATOM      8  N   UNL     1       0.353  10.250  20.774  0.00  0.00    +0.000 N 
ATOM      9  C   UNL     1      -0.073  11.260  19.789  0.00  0.00    +0.000 C 
ATOM     10  C   UNL     1       0.194  10.684  18.394  0.00  0.00    +0.000 C 
ATOM     11  C   UNL     1       0.993   9.462  18.712  0.00  0.00    +0.000 A 
ATOM     12  C   UNL     1       1.627   8.611  17.814  0.00  0.00    +0.000 A 
ATOM     13  C   UNL     1       2.232   7.445  18.299  0.00  0.00    +0.000 A 
ATOM     14  C   UNL     1       2.159   7.144  19.669  0.00  0.00    +0.000 A 
ATOM     15  C   UNL     1       1.573   8.045  20.575  0.00  0.00    +0.000 A 
ATOM     16  C   UNL     1       0.998   9.205  20.083  0.00  0.00    +0.000 A 
ENDBRANCH   1  13
BRANCH   2  17
ATOM     17  C   UNL     1       4.866   5.657  16.235  0.00  0.00    +0.000 A 
ATOM     18  C   UNL     1       5.514   6.141  15.078  0.00  0.00    +0.000 A 
ATOM     19  C   UNL     1       6.312   5.302  14.306  0.00  0.00    +0.000 A 
ATOM     20  C   UNL     1       6.466   3.975  14.677  0.00  0.00    +0.000 A 
ATOM     21  C   UNL     1       5.757   3.465  15.769  0.00  0.00    +0.000 A 
ATOM     22  C   UNL     1       4.932   4.276  16.582  0.00  0.00    +0.000 A 
BRANCH  22  23
ATOM     23  C   UNL     1       4.116   3.642  17.683  0.00  0.00    +0.000 A 
ATOM     24  C   UNL     1       2.975   2.886  17.340  0.00  0.00    +0.000 A 
ATOM     25  C   UNL     1       2.160   2.263  18.293  0.00  0.00    +0.000 A 
ATOM     26  C   UNL     1       2.502   2.319  19.638  0.00  0.00    +0.000 A 
ATOM     27  C   UNL     1       3.634   3.017  20.015  0.00  0.00    +0.000 A 
ATOM     28  C   UNL     1       4.437   3.695  19.068  0.00  0.00    +0.000 A 
BRANCH  28  29
ATOM     29  C   UNL     1       5.555   4.419  19.599  0.00  0.00    +0.000 C 
ATOM     30  N   UNL     1       6.471   5.034  19.968  0.00  0.00    +0.000 NA
ENDBRANCH  28  29
ENDBRANCH  22  23
ENDBRANCH   2  17
TORSDOF 4
ENDMDL
MODEL 3
REMARK VINA RESULT:      -8.2      1.563      2.268
REMARK  Name = 
REMARK  5 active torsions:
REMARK  status: ('A' for Active; 'I' for Inactive)
REMARK    1  A    between atoms: C_1  and  C_2
REMARK    2  A    between atoms: C_9  and  N_10
REMARK    3  A    between atoms: C_11  and  C_13
REMARK    4  A    between atoms: C_18  and  C_19
REMARK    5  A    between atoms: C_24  and  C_25
REMARK                            x       y       z     vdW  Elec       q    Type
REMARK                         _______ _______ _______ _____ _____    ______ ____
ROOT
ATOM      1  N   UNL     1       2.434   7.662  17.951  0.00  0.00    +0.000 N 
ATOM      2  C   UNL     1       3.303   6.700  18.465  0.00  0.00    +0.000 C 
ATOM      3  O   UNL     1       3.493   6.498  19.662  0.00  0.00    +0.000 OA
ATOM      4  H   UNL     1       2.116   7.546  16.997  0.00  0.00    +0.000 HD
ENDROOT
BRANCH   1  13
ATOM      5  C   UNL     1      -1.456  12.487  23.018  0.00  0.00    +0.000 C 
ATOM      6  C   UNL     1      -0.627  11.307  22.561  0.00  0.00    +0.000 C 
ATOM      7  O   UNL     1      -0.234  10.484  23.388  0.00  0.00    +0.000 OA
ATOM      8  N   UNL     1      -0.394  11.242  21.198  0.00  0.00    +0.000 N 
ATOM      9  C   UNL     1      -0.719  12.300  20.225  0.00  0.00    +0.000 C 
ATOM     10  C   UNL     1      -0.329  11.784  18.835  0.00  0.00    +0.000 C 
ATOM     11  C   UNL     1       0.426  10.538  19.170  0.00  0.00    +0.000 A 
ATOM     12  C   UNL     1       1.134   9.721  18.296  0.00  0.00    +0.000 A 
ATOM     13  C   UNL     1       1.682   8.527  18.782  0.00  0.00    +0.000 A 
ATOM     14  C   UNL     1       1.480   8.166  20.124  0.00  0.00    +0.000 A 
ATOM     15  C   UNL     1       0.820   9.033  21.012  0.00  0.00    +0.000 A 
ATOM     16  C   UNL     1       0.303  10.221  20.523  0.00  0.00    +0.000 A 
ENDBRANCH   1  13
BRANCH   2  17
ATOM     17  C   UNL     1       4.018   5.840  17.471  0.00  0.00    +0.000 A 
ATOM     18  C   UNL     1       4.969   6.489  16.654  0.00  0.00    +0.000 A 
ATOM     19  C   UNL     1       5.861   5.754  15.880  0.00  0.00    +0.000 A 
ATOM     20  C   UNL     1       5.809   4.368  15.909  0.00  0.00    +0.000 A 
ATOM     21  C   UNL     1       4.814   3.719  16.644  0.00  0.00    +0.000 A 
ATOM     22  C   UNL     1       3.883   4.421  17.443  0.00  0.00    +0.000 A 
BRANCH  22  23
ATOM     23  C   UNL     1       2.770   3.666  18.131  0.00  0.00    +0.000 A 
ATOM     24  C   UNL     1       1.446   3.837  17.677  0.00  0.00    +0.000 A 
ATOM     25  C   UNL     1       0.353   3.178  18.253  0.00  0.00    +0.000 A 
ATOM     26  C   UNL     1       0.559   2.260  19.276  0.00  0.00    +0.000 A 
ATOM     27  C   UNL     1       1.846   2.033  19.725  0.00  0.00    +0.000 A 
ATOM     28  C   UNL     1       2.953   2.731  19.187  0.00  0.00    +0.000 A 
BRANCH  28  29
ATOM     29  C   UNL     1       4.227   2.435  19.778  0.00  0.00    +0.000 C 
ATOM     30  N   UNL     1       5.227   2.176  20.313  0.00  0.00    +0.000 NA
ENDBRANCH  28  29
ENDBRANCH  22  23
ENDBRANCH   2  17
TORSDOF 4
ENDMDL
MODEL 4
REMARK VINA RESULT:      -8.1      1.298      1.533
REMARK  Name = 
REMARK  5 active torsions:
REMARK  status: ('A' for Active; 'I' for Inactive)
REMARK    1  A    between atoms: C_1  and  C_2
REMARK    2  A    between atoms: C_9  and  N_10
REMARK    3  A    between atoms: C_11  and  C_13
REMARK    4  A    between atoms: C_18  and  C_19
REMARK    5  A    between atoms: C_24  and  C_25
REMARK                            x       y       z     vdW  Elec       q    Type
REMARK                         _______ _______ _______ _____ _____    ______ ____
ROOT
ATOM      1  N   UNL     1       2.504   7.611  17.917  0.00  0.00    +0.000 N 
ATOM      2  C   UNL     1       3.412   6.669  18.400  0.00  0.00    +0.000 C 
ATOM      3  O   UNL     1       3.689   6.511  19.587  0.00  0.00    +0.000 OA
ATOM      4  H   UNL     1       2.117   7.461  16.994  0.00  0.00    +0.000 HD
ENDROOT
BRANCH   1  13
ATOM      5  C   UNL     1      -1.760  12.729  22.357  0.00  0.00    +0.000 C 
ATOM      6  C   UNL     1      -1.130  12.135  21.116  0.00  0.00    +0.000 C 
ATOM      7  O   UNL     1      -1.294  12.686  20.028  0.00  0.00    +0.000 OA
ATOM      8  N   UNL     1      -0.379  10.991  21.327  0.00  0.00    +0.000 N 
ATOM      9  C   UNL     1      -0.309  10.235  22.589  0.00  0.00    +0.000 C 
ATOM     10  C   UNL     1       0.672   9.076  22.378  0.00  0.00    +0.000 C 
ATOM     11  C   UNL     1       0.900   9.129  20.903  0.00  0.00    +0.000 A 
ATOM     12  C   UNL     1       1.608   8.220  20.125  0.00  0.00    +0.000 A 
ATOM     13  C   UNL     1       1.812   8.505  18.769  0.00  0.00    +0.000 A 
ATOM     14  C   UNL     1       1.329   9.710  18.233  0.00  0.00    +0.000 A 
ATOM     15  C   UNL     1       0.557  10.588  19.014  0.00  0.00    +0.000 A 
ATOM     16  C   UNL     1       0.345  10.282  20.348  0.00  0.00    +0.000 A 
ENDBRANCH   1  13
BRANCH   2  17
ATOM     17  C   UNL     1       4.055   5.774  17.388  0.00  0.00    +0.000 A 
ATOM     18  C   UNL     1       4.993   6.381  16.525  0.00  0.00    +0.000 A 
ATOM     19  C   UNL     1       5.827   5.607  15.724  0.00  0.00    +0.000 A 
ATOM     20  C   UNL     1       5.729   4.224  15.772  0.00  0.00    +0.000 A 
ATOM     21  C   UNL     1       4.744   3.618  16.556  0.00  0.00    +0.000 A 
ATOM     22  C   UNL     1       3.871   4.361  17.384  0.00  0.00    +0.000 A 
BRANCH  22  23
ATOM     23  C   UNL     1       2.763   3.651  18.127  0.00  0.00    +0.000 A 
ATOM     24  C   UNL     1       1.430   3.834  17.703  0.00  0.00    +0.000 A 
ATOM     25  C   UNL     1       0.341   3.217  18.330  0.00  0.00    +0.000 A 
ATOM     26  C   UNL     1       0.557   2.330  19.377  0.00  0.00    +0.000 A 
ATOM     27  C   UNL     1       1.851   2.092  19.799  0.00  0.00    +0.000 A 
ATOM     28  C   UNL     1       2.956   2.749  19.209  0.00  0.00    +0.000 A 
BRANCH  28  29
ATOM     29  C   UNL     1       4.240   2.447  19.775  0.00  0.00    +0.000 C 
ATOM     30  N   UNL     1       5.248   2.176  20.288  0.00  0.00    +0.000 NA
ENDBRANCH  28  29
ENDBRANCH  22  23
ENDBRANCH   2  17
TORSDOF 4
ENDMDL
MODEL 5
REMARK VINA RESULT:      -7.9      1.938      3.695
REMARK  Name = 
REMARK  5 active torsions:
REMARK  status: ('A' for Active; 'I' for Inactive)
REMARK    1  A    between atoms: C_1  and  C_2
REMARK    2  A    between atoms: C_9  and  N_10
REMARK    3  A    between atoms: C_11  and  C_13
REMARK    4  A    between atoms: C_18  and  C_19
REMARK    5  A    between atoms: C_24  and  C_25
REMARK                            x       y       z     vdW  Elec       q    Type
REMARK                         _______ _______ _______ _____ _____    ______ ____
ROOT
ATOM      1  N   UNL     1       2.105   7.282  18.297  0.00  0.00    +0.000 N 
ATOM      2  C   UNL     1       2.678   6.343  19.155  0.00  0.00    +0.000 C 
ATOM      3  O   UNL     1       2.971   6.558  20.329  0.00  0.00    +0.000 OA
ATOM      4  H   UNL     1       1.625   6.936  17.475  0.00  0.00    +0.000 HD
ENDROOT
BRANCH   1  13
ATOM      5  C   UNL     1       0.330  14.873  20.111  0.00  0.00    +0.000 C 
ATOM      6  C   UNL     1       0.848  13.711  19.294  0.00  0.00    +0.000 C 
ATOM      7  O   UNL     1       1.335  13.917  18.184  0.00  0.00    +0.000 OA
ATOM      8  N   UNL     1       0.744  12.471  19.903  0.00  0.00    +0.000 N 
ATOM      9  C   UNL     1       0.020  12.191  21.155  0.00  0.00    +0.000 C 
ATOM     10  C   UNL     1       0.207  10.704  21.473  0.00  0.00    +0.000 C 
ATOM     11  C   UNL     1       0.836  10.196  20.217  0.00  0.00    +0.000 A 
ATOM     12  C   UNL     1       1.110   8.874  19.885  0.00  0.00    +0.000 A 
ATOM     13  C   UNL     1       1.814   8.606  18.704  0.00  0.00    +0.000 A 
ATOM     14  C   UNL     1       2.256   9.671  17.902  0.00  0.00    +0.000 A 
ATOM     15  C   UNL     1       1.914  10.998  18.214  0.00  0.00    +0.000 A 
ATOM     16  C   UNL     1       1.198  11.247  19.373  0.00  0.00    +0.000 A 
ENDBRANCH   1  13
BRANCH   2  17
ATOM     17  C   UNL     1       2.911   4.975  18.596  0.00  0.00    +0.000 A 
ATOM     18  C   UNL     1       1.785   4.126  18.533  0.00  0.00    +0.000 A 
ATOM     19  C   UNL     1       1.828   2.938  17.810  0.00  0.00    +0.000 A 
ATOM     20  C   UNL     1       2.995   2.585  17.148  0.00  0.00    +0.000 A 
ATOM     21  C   UNL     1       4.141   3.373  17.278  0.00  0.00    +0.000 A 
ATOM     22  C   UNL     1       4.148   4.586  18.004  0.00  0.00    +0.000 A 
BRANCH  22  23
ATOM     23  C   UNL     1       5.446   5.337  18.190  0.00  0.00    +0.000 A 
ATOM     24  C   UNL     1       6.229   5.077  19.334  0.00  0.00    +0.000 A 
ATOM     25  C   UNL     1       7.444   5.724  19.588  0.00  0.00    +0.000 A 
ATOM     26  C   UNL     1       7.958   6.619  18.659  0.00  0.00    +0.000 A 
ATOM     27  C   UNL     1       7.242   6.875  17.505  0.00  0.00    +0.000 A 
ATOM     28  C   UNL     1       5.988   6.268  17.261  0.00  0.00    +0.000 A 
BRANCH  28  29
ATOM     29  C   UNL     1       5.328   6.658  16.048  0.00  0.00    +0.000 C 
ATOM     30  N   UNL     1       4.853   6.964  15.031  0.00  0.00    +0.000 NA
ENDBRANCH  28  29
ENDBRANCH  22  23
ENDBRANCH   2  17
TORSDOF 4
ENDMDL
MODEL 6
REMARK VINA RESULT:      -7.9      2.223      9.104
REMARK  Name = 
REMARK  5 active torsions:
REMARK  status: ('A' for Active; 'I' for Inactive)
REMARK    1  A    between atoms: C_1  and  C_2
REMARK    2  A    between atoms: C_9  and  N_10
REMARK    3  A    between atoms: C_11  and  C_13
REMARK    4  A    between atoms: C_18  and  C_19
REMARK    5  A    between atoms: C_24  and  C_25
REMARK                            x       y       z     vdW  Elec       q    Type
REMARK                         _______ _______ _______ _____ _____    ______ ____
ROOT
ATOM      1  N   UNL     1       0.507   9.708  20.191  0.00  0.00    +0.000 N 
ATOM      2  C   UNL     1       0.746  10.269  21.446  0.00  0.00    +0.000 C 
ATOM      3  O   UNL     1       1.671   9.949  22.189  0.00  0.00    +0.000 OA
ATOM      4  H   UNL     1      -0.065  10.235  19.543  0.00  0.00    +0.000 HD
ENDROOT
BRANCH   1  13
ATOM      5  C   UNL     1       5.428   4.267  16.989  0.00  0.00    +0.000 C 
ATOM      6  C   UNL     1       4.688   5.579  17.130  0.00  0.00    +0.000 C 
ATOM      7  O   UNL     1       4.847   6.460  16.287  0.00  0.00    +0.000 OA
ATOM      8  N   UNL     1       3.846   5.666  18.226  0.00  0.00    +0.000 N 
ATOM      9  C   UNL     1       3.770   4.686  19.325  0.00  0.00    +0.000 C 
ATOM     10  C   UNL     1       2.680   5.162  20.291  0.00  0.00    +0.000 C 
ATOM     11  C   UNL     1       2.385   6.533  19.774  0.00  0.00    +0.000 A 
ATOM     12  C   UNL     1       1.560   7.492  20.350  0.00  0.00    +0.000 A 
ATOM     13  C   UNL     1       1.317   8.681  19.651  0.00  0.00    +0.000 A 
ATOM     14  C   UNL     1       1.881   8.866  18.378  0.00  0.00    +0.000 A 
ATOM     15  C   UNL     1       2.766   7.917  17.838  0.00  0.00    +0.000 A 
ATOM     16  C   UNL     1       3.015   6.756  18.550  0.00  0.00    +0.000 A 
ENDBRANCH   1  13
BRANCH   2  17
ATOM     17  C   UNL     1      -0.179  11.361  21.882  0.00  0.00    +0.000 A 
ATOM     18  C   UNL     1      -1.231  10.981  22.743  0.00  0.00    +0.000 A 
ATOM     19  C   UNL     1      -1.991  11.941  23.404  0.00  0.00    +0.000 A 
ATOM     20  C   UNL     1      -1.712  13.286  23.209  0.00  0.00    +0.000 A 
ATOM     21  C   UNL     1      -0.733  13.672  22.291  0.00  0.00    +0.000 A 
ATOM     22  C   UNL     1       0.063  12.735  21.592  0.00  0.00    +0.000 A 
BRANCH  22  23
ATOM     23  C   UNL     1       1.033  13.218  20.540  0.00  0.00    +0.000 A 
ATOM     24  C   UNL     1       2.296  13.701  20.944  0.00  0.00    +0.000 A 
ATOM     25  C   UNL     1       3.257  14.168  20.040  0.00  0.00    +0.000 A 
ATOM     26  C   UNL     1       3.011  14.105  18.675  0.00  0.00    +0.000 A 
ATOM     27  C   UNL     1       1.801  13.602  18.233  0.00  0.00    +0.000 A 
ATOM     28  C   UNL     1       0.801  13.176  19.137  0.00  0.00    +0.000 A 
BRANCH  28  29
ATOM     29  C   UNL     1      -0.425  12.722  18.546  0.00  0.00    +0.000 C 
ATOM     30  N   UNL     1      -1.390  12.293  18.058  0.00  0.00    +0.000 NA
ENDBRANCH  28  29
ENDBRANCH  22  23
ENDBRANCH   2  17
TORSDOF 4
ENDMDL
MODEL 7
REMARK VINA RESULT:      -7.8      2.033      3.962
REMARK  Name = 
REMARK  5 active torsions:
REMARK  status: ('A' for Active; 'I' for Inactive)
REMARK    1  A    between atoms: C_1  and  C_2
REMARK    2  A    between atoms: C_9  and  N_10
REMARK    3  A    between atoms: C_11  and  C_13
REMARK    4  A    between atoms: C_18  and  C_19
REMARK    5  A    between atoms: C_24  and  C_25
REMARK                            x       y       z     vdW  Elec       q    Type
REMARK                         _______ _______ _______ _____ _____    ______ ____
ROOT
ATOM      1  N   UNL     1       2.034   7.368  18.297  0.00  0.00    +0.000 N 
ATOM      2  C   UNL     1       2.665   6.441  19.126  0.00  0.00    +0.000 C 
ATOM      3  O   UNL     1       3.033   6.669  20.276  0.00  0.00    +0.000 OA
ATOM      4  H   UNL     1       1.503   7.011  17.512  0.00  0.00    +0.000 HD
ENDROOT
BRANCH   1  13
ATOM      5  C   UNL     1       0.619  14.728  21.108  0.00  0.00    +0.000 C 
ATOM      6  C   UNL     1       0.631  13.216  21.078  0.00  0.00    +0.000 C 
ATOM      7  O   UNL     1       0.146  12.586  22.017  0.00  0.00    +0.000 OA
ATOM      8  N   UNL     1       1.188  12.653  19.942  0.00  0.00    +0.000 N 
ATOM      9  C   UNL     1       1.914  13.389  18.892  0.00  0.00    +0.000 C 
ATOM     10  C   UNL     1       2.312  12.377  17.812  0.00  0.00    +0.000 C 
ATOM     11  C   UNL     1       1.982  11.077  18.471  0.00  0.00    +0.000 A 
ATOM     12  C   UNL     1       2.261   9.798  18.001  0.00  0.00    +0.000 A 
ATOM     13  C   UNL     1       1.766   8.695  18.708  0.00  0.00    +0.000 A 
ATOM     14  C   UNL     1       0.974   8.902  19.850  0.00  0.00    +0.000 A 
ATOM     15  C   UNL     1       0.756  10.196  20.351  0.00  0.00    +0.000 A 
ATOM     16  C   UNL     1       1.271  11.277  19.654  0.00  0.00    +0.000 A 
ENDBRANCH   1  13
BRANCH   2  17
ATOM     17  C   UNL     1       2.866   5.067  18.568  0.00  0.00    +0.000 A 
ATOM     18  C   UNL     1       1.721   4.244  18.508  0.00  0.00    +0.000 A 
ATOM     19  C   UNL     1       1.737   3.055  17.785  0.00  0.00    +0.000 A 
ATOM     20  C   UNL     1       2.894   2.674  17.123  0.00  0.00    +0.000 A 
ATOM     21  C   UNL     1       4.058   3.436  17.252  0.00  0.00    +0.000 A 
ATOM     22  C   UNL     1       4.094   4.650  17.977  0.00  0.00    +0.000 A 
BRANCH  22  23
ATOM     23  C   UNL     1       5.408   5.371  18.160  0.00  0.00    +0.000 A 
ATOM     24  C   UNL     1       6.173   5.114  19.317  0.00  0.00    +0.000 A 
ATOM     25  C   UNL     1       7.402   5.735  19.571  0.00  0.00    +0.000 A 
ATOM     26  C   UNL     1       7.948   6.598  18.629  0.00  0.00    +0.000 A 
ATOM     27  C   UNL     1       7.250   6.848  17.463  0.00  0.00    +0.000 A 
ATOM     28  C   UNL     1       5.983   6.268  17.218  0.00  0.00    +0.000 A 
BRANCH  28  29
ATOM     29  C   UNL     1       5.346   6.650  15.991  0.00  0.00    +0.000 C 
ATOM     30  N   UNL     1       4.844   7.025  15.011  0.00  0.00    +0.000 NA
ENDBRANCH  28  29
ENDBRANCH  22  23
ENDBRANCH   2  17
TORSDOF 4
ENDMDL
MODEL 8
REMARK VINA RESULT:      -7.7      1.164      1.785
REMARK  Name = 
REMARK  5 active torsions:
REMARK  status: ('A' for Active; 'I' for Inactive)
REMARK    1  A    between atoms: C_1  and  C_2
REMARK    2  A    between atoms: C_9  and  N_10
REMARK    3  A    between atoms: C_11  and  C_13
REMARK    4  A    between atoms: C_18  and  C_19
REMARK    5  A    between atoms: C_24  and  C_25
REMARK                            x       y       z     vdW  Elec       q    Type
REMARK                         _______ _______ _______ _____ _____    ______ ____
ROOT
ATOM      1  N   UNL     1       2.774   7.049  17.657  0.00  0.00    +0.000 N 
ATOM      2  C   UNL     1       4.085   6.608  17.835  0.00  0.00    +0.000 C 
ATOM      3  O   UNL     1       4.842   7.005  18.718  0.00  0.00    +0.000 OA
ATOM      4  H   UNL     1       2.148   6.459  17.123  0.00  0.00    +0.000 HD
ENDROOT
BRANCH   1  13
ATOM      5  C   UNL     1      -0.891  12.709  21.971  0.00  0.00    +0.000 C 
ATOM      6  C   UNL     1      -0.307  12.034  20.750  0.00  0.00    +0.000 C 
ATOM      7  O   UNL     1      -0.352  12.603  19.661  0.00  0.00    +0.000 OA
ATOM      8  N   UNL     1       0.270  10.796  20.981  0.00  0.00    +0.000 N 
ATOM      9  C   UNL     1       0.188  10.037  22.241  0.00  0.00    +0.000 C 
ATOM     10  C   UNL     1       1.005   8.752  22.059  0.00  0.00    +0.000 C 
ATOM     11  C   UNL     1       1.291   8.774  20.592  0.00  0.00    +0.000 A 
ATOM     12  C   UNL     1       1.894   7.776  19.835  0.00  0.00    +0.000 A 
ATOM     13  C   UNL     1       2.184   8.030  18.489  0.00  0.00    +0.000 A 
ATOM     14  C   UNL     1       1.893   9.291  17.943  0.00  0.00    +0.000 A 
ATOM     15  C   UNL     1       1.224  10.268  18.701  0.00  0.00    +0.000 A 
ATOM     16  C   UNL     1       0.923   9.994  20.024  0.00  0.00    +0.000 A 
ENDBRANCH   1  13
BRANCH   2  17
ATOM     17  C   UNL     1       4.573   5.552  16.895  0.00  0.00    +0.000 A 
ATOM     18  C   UNL     1       5.092   6.003  15.662  0.00  0.00    +0.000 A 
ATOM     19  C   UNL     1       5.796   5.140  14.828  0.00  0.00    +0.000 A 
ATOM     20  C   UNL     1       5.982   3.821  15.211  0.00  0.00    +0.000 A 
ATOM     21  C   UNL     1       5.395   3.342  16.386  0.00  0.00    +0.000 A 
ATOM     22  C   UNL     1       4.669   4.178  17.265  0.00  0.00    +0.000 A 
BRANCH  22  23
ATOM     23  C   UNL     1       3.975   3.576  18.464  0.00  0.00    +0.000 A 
ATOM     24  C   UNL     1       4.758   3.041  19.509  0.00  0.00    +0.000 A 
ATOM     25  C   UNL     1       4.203   2.464  20.657  0.00  0.00    +0.000 A 
ATOM     26  C   UNL     1       2.825   2.463  20.833  0.00  0.00    +0.000 A 
ATOM     27  C   UNL     1       2.022   3.013  19.852  0.00  0.00    +0.000 A 
ATOM     28  C   UNL     1       2.567   3.551  18.663  0.00  0.00    +0.000 A 
BRANCH  28  29
ATOM     29  C   UNL     1       1.619   4.046  17.707  0.00  0.00    +0.000 C 
ATOM     30  N   UNL     1       0.856   4.508  16.960  0.00  0.00    +0.000 NA
ENDBRANCH  28  29
ENDBRANCH  22  23
ENDBRANCH   2  17
TORSDOF 4
ENDMDL
MODEL 9
REMARK VINA RESULT:      -7.6      1.583      2.502
REMARK  Name = 
REMARK  5 active torsions:
REMARK  status: ('A' for Active; 'I' for Inactive)
REMARK    1  A    between atoms: C_1  and  C_2
REMARK    2  A    between atoms: C_9  and  N_10
REMARK    3  A    between atoms: C_11  and  C_13
REMARK    4  A    between atoms: C_18  and  C_19
REMARK    5  A    between atoms: C_24  and  C_25
REMARK                            x       y       z     vdW  Elec       q    Type
REMARK                         _______ _______ _______ _____ _____    ______ ____
ROOT
ATOM      1  N   UNL     1       2.568   7.208  17.823  0.00  0.00    +0.000 N 
ATOM      2  C   UNL     1       3.746   6.584  18.230  0.00  0.00    +0.000 C 
ATOM      3  O   UNL     1       4.262   6.718  19.337  0.00  0.00    +0.000 OA
ATOM      4  H   UNL     1       2.069   6.806  17.039  0.00  0.00    +0.000 HD
ENDROOT
BRANCH   1  13
ATOM      5  C   UNL     1      -1.137  12.136  22.929  0.00  0.00    +0.000 C 
ATOM      6  C   UNL     1      -0.325  10.946  22.467  0.00  0.00    +0.000 C 
ATOM      7  O   UNL     1       0.099  10.141  23.295  0.00  0.00    +0.000 OA
ATOM      8  N   UNL     1      -0.142  10.854  21.097  0.00  0.00    +0.000 N 
ATOM      9  C   UNL     1      -0.502  11.892  20.115  0.00  0.00    +0.000 C 
ATOM     10  C   UNL     1      -0.163  11.347  18.723  0.00  0.00    +0.000 C 
ATOM     11  C   UNL     1       0.605  10.109  19.055  0.00  0.00    +0.000 A 
ATOM     12  C   UNL     1       1.280   9.274  18.173  0.00  0.00    +0.000 A 
ATOM     13  C   UNL     1       1.847   8.090  18.663  0.00  0.00    +0.000 A 
ATOM     14  C   UNL     1       1.694   7.757  20.019  0.00  0.00    +0.000 A 
ATOM     15  C   UNL     1       1.067   8.642  20.912  0.00  0.00    +0.000 A 
ATOM     16  C   UNL     1       0.531   9.820  20.418  0.00  0.00    +0.000 A 
ENDBRANCH   1  13
BRANCH   2  17
ATOM     17  C   UNL     1       4.392   5.660  17.246  0.00  0.00    +0.000 A 
ATOM     18  C   UNL     1       4.930   6.260  16.086  0.00  0.00    +0.000 A 
ATOM     19  C   UNL     1       5.765   5.542  15.236  0.00  0.00    +0.000 A 
ATOM     20  C   UNL     1       6.065   4.220  15.530  0.00  0.00    +0.000 A 
ATOM     21  C   UNL     1       5.466   3.592  16.625  0.00  0.00    +0.000 A 
ATOM     22  C   UNL     1       4.609   4.277  17.517  0.00  0.00    +0.000 A 
BRANCH  22  23
ATOM     23  C   UNL     1       3.915   3.514  18.620  0.00  0.00    +0.000 A 
ATOM     24  C   UNL     1       4.695   2.918  19.633  0.00  0.00    +0.000 A 
ATOM     25  C   UNL     1       4.140   2.193  20.694  0.00  0.00    +0.000 A 
ATOM     26  C   UNL     1       2.760   2.094  20.816  0.00  0.00    +0.000 A 
ATOM     27  C   UNL     1       1.956   2.697  19.866  0.00  0.00    +0.000 A 
ATOM     28  C   UNL     1       2.506   3.388  18.761  0.00  0.00    +0.000 A 
BRANCH  28  29
ATOM     29  C   UNL     1       1.560   3.924  17.825  0.00  0.00    +0.000 C 
ATOM     30  N   UNL     1       0.779   4.407  17.111  0.00  0.00    +0.000 NA
ENDBRANCH  28  29
ENDBRANCH  22  23
ENDBRANCH   2  17
TORSDOF 4
ENDMDL
