MODEL 1
REMARK VINA RESULT:      -8.6      0.000      0.000
REMARK  Name = 
REMARK  8 active torsions:
REMARK  status: ('A' for Active; 'I' for Inactive)
REMARK    1  A    between atoms: C_1  and  N_2
REMARK    2  A    between atoms: C_6  and  C_7
REMARK    3  A    between atoms: C_7  and  C_8
REMARK    4  A    between atoms: C_8  and  N_9
REMARK    5  A    between atoms: C_8  and  C_10
REMARK    6  A    between atoms: C_14  and  N_15
REMARK    7  A    between atoms: C_16  and  C_18
REMARK    8  A    between atoms: C_22  and  C_23
REMARK                            x       y       z     vdW  Elec       q    Type
REMARK                         _______ _______ _______ _____ _____    ______ ____
ROOT
ATOM      1  C   UNL     1       4.344   5.404  17.010  0.00  0.00    +0.000 A 
ATOM      2  C   UNL     1       3.665   4.175  17.049  0.00  0.00    +0.000 A 
ATOM      3  C   UNL     1       2.473   4.040  17.750  0.00  0.00    +0.000 A 
ATOM      4  C   UNL     1       1.942   5.127  18.435  0.00  0.00    +0.000 A 
ATOM      5  C   UNL     1       2.591   6.364  18.440  0.00  0.00    +0.000 A 
ATOM      6  C   UNL     1       3.771   6.505  17.688  0.00  0.00    +0.000 A 
ENDROOT
BRANCH   5   7
ATOM      7  N   UNL     1       2.108   7.470  19.188  0.00  0.00    +0.000 N 
ATOM      8  C   UNL     1       1.724   8.680  18.623  0.00  0.00    +0.000 C 
ATOM      9  O   UNL     1       1.720   8.952  17.424  0.00  0.00    +0.000 OA
ATOM     10  H   UNL     1       1.881   7.294  20.156  0.00  0.00    +0.000 HD
BRANCH   8  11
ATOM     11  C   UNL     1       1.200   9.738  19.527  0.00  0.00    +0.000 A 
ATOM     12  C   UNL     1       1.120  11.079  19.173  0.00  0.00    +0.000 A 
ATOM     13  C   UNL     1       0.528  11.948  20.073  0.00  0.00    +0.000 A 
ATOM     14  N   UNL     1       0.027  11.570  21.270  0.00  0.00    +0.000 NA
ATOM     15  C   UNL     1       0.096  10.253  21.610  0.00  0.00    +0.000 A 
ATOM     16  C   UNL     1       0.682   9.320  20.759  0.00  0.00    +0.000 A 
BRANCH  15  17
ATOM     17  C   UNL     1      -0.488   9.763  22.932  0.00  0.00    +0.000 C 
ATOM     18  F   UNL     1      -1.435  10.581  23.469  0.00  0.00    +0.000 F 
ATOM     19  F   UNL     1      -1.080   8.537  22.818  0.00  0.00    +0.000 F 
ATOM     20  F   UNL     1       0.466   9.615  23.898  0.00  0.00    +0.000 F 
ENDBRANCH  15  17
ENDBRANCH   8  11
ENDBRANCH   5   7
BRANCH   1  21
ATOM     21  C   UNL     1       5.629   5.574  16.196  0.00  0.00    +0.000 C 
BRANCH  21  22
ATOM     22  N   UNL     1       5.481   6.763  15.346  0.00  0.00    +0.000 NA
ATOM     23  H   UNL     1       6.129   6.694  14.560  0.00  0.00    +0.000 HD
ATOM     24  H   UNL     1       5.798   7.590  15.863  0.00  0.00    +0.000 HD
ENDBRANCH  21  22
BRANCH  21  25
ATOM     25  C   UNL     1       6.033   4.293  15.409  0.00  0.00    +0.000 C 
BRANCH  25  31
ATOM     26  C   UNL     1       5.277   3.320  12.486  0.00  0.00    +0.000 C 
ATOM     27  N   UNL     1       6.397   4.135  12.874  0.00  0.00    +0.000 N 
ATOM     28  C   UNL     1       7.319   4.664  12.021  0.00  0.00    +0.000 A 
ATOM     29  N   UNL     1       8.183   5.381  12.696  0.00  0.00    +0.000 NA
ATOM     30  N   UNL     1       7.829   5.318  14.019  0.00  0.00    +0.000 NA
ATOM     31  C   UNL     1       6.752   4.562  14.128  0.00  0.00    +0.000 A 
ENDBRANCH  25  31
ENDBRANCH  21  25
ENDBRANCH   1  21
TORSDOF 7
ENDMDL
MODEL 2
REMARK VINA RESULT:      -8.2      5.943      8.059
REMARK  Name = 
REMARK  8 active torsions:
REMARK  status: ('A' for Active; 'I' for Inactive)
REMARK    1  A    between atoms: C_1  and  N_2
REMARK    2  A    between atoms: C_6  and  C_7
REMARK    3  A    between atoms: C_7  and  C_8
REMARK    4  A    between atoms: C_8  and  N_9
REMARK    5  A    between atoms: C_8  and  C_10
REMARK    6  A    between atoms: C_14  and  N_15
REMARK    7  A    between atoms: C_16  and  C_18
REMARK    8  A    between atoms: C_22  and  C_23
REMARK                            x       y       z     vdW  Elec       q    Type
REMARK                         _______ _______ _______ _____ _____    ______ ____
ROOT
ATOM      1  C   UNL     1       4.539   5.598  17.294  0.00  0.00    +0.000 A 
ATOM      2  C   UNL     1       5.344   4.547  16.821  0.00  0.00    +0.000 A 
ATOM      3  C   UNL     1       6.691   4.748  16.546  0.00  0.00    +0.000 A 
ATOM      4  C   UNL     1       7.259   6.003  16.728  0.00  0.00    +0.000 A 
ATOM      5  C   UNL     1       6.494   7.082  17.178  0.00  0.00    +0.000 A 
ATOM      6  C   UNL     1       5.143   6.859  17.501  0.00  0.00    +0.000 A 
ENDROOT
BRANCH   5   7
ATOM      7  N   UNL     1       7.032   8.390  17.306  0.00  0.00    +0.000 N 
ATOM      8  C   UNL     1       8.078   8.720  18.159  0.00  0.00    +0.000 C 
ATOM      9  O   UNL     1       8.693   7.942  18.886  0.00  0.00    +0.000 OA
ATOM     10  H   UNL     1       6.740   9.066  16.615  0.00  0.00    +0.000 HD
BRANCH   8  11
ATOM     11  C   UNL     1       8.563  10.125  18.160  0.00  0.00    +0.000 A 
ATOM     12  C   UNL     1       8.047  11.116  17.335  0.00  0.00    +0.000 A 
ATOM     13  C   UNL     1       8.525  12.405  17.501  0.00  0.00    +0.000 A 
ATOM     14  N   UNL     1       9.461  12.752  18.412  0.00  0.00    +0.000 NA
ATOM     15  C   UNL     1       9.958  11.781  19.226  0.00  0.00    +0.000 A 
ATOM     16  C   UNL     1       9.530  10.461  19.118  0.00  0.00    +0.000 A 
BRANCH  15  17
ATOM     17  C   UNL     1      10.988  12.122  20.300  0.00  0.00    +0.000 C 
ATOM     18  F   UNL     1      11.301  13.445  20.381  0.00  0.00    +0.000 F 
ATOM     19  F   UNL     1      10.577  11.762  21.551  0.00  0.00    +0.000 F 
ATOM     20  F   UNL     1      12.173  11.471  20.107  0.00  0.00    +0.000 F 
ENDBRANCH  15  17
ENDBRANCH   8  11
ENDBRANCH   5   7
BRANCH   1  21
ATOM     21  C   UNL     1       3.068   5.371  17.649  0.00  0.00    +0.000 C 
BRANCH  21  22
ATOM     22  N   UNL     1       2.760   6.155  18.853  0.00  0.00    +0.000 NA
ATOM     23  H   UNL     1       2.205   5.583  19.490  0.00  0.00    +0.000 HD
ATOM     24  H   UNL     1       2.137   6.930  18.600  0.00  0.00    +0.000 HD
ENDBRANCH  21  22
BRANCH  21  25
ATOM     25  C   UNL     1       2.689   3.866  17.773  0.00  0.00    +0.000 C 
BRANCH  25  31
ATOM     26  C   UNL     1       4.425   2.400  19.986  0.00  0.00    +0.000 C 
ATOM     27  N   UNL     1       3.055   2.823  20.089  0.00  0.00    +0.000 N 
ATOM     28  C   UNL     1       2.270   2.689  21.195  0.00  0.00    +0.000 A 
ATOM     29  N   UNL     1       1.089   3.208  20.962  0.00  0.00    +0.000 NA
ATOM     30  N   UNL     1       1.092   3.685  19.677  0.00  0.00    +0.000 NA
ATOM     31  C   UNL     1       2.278   3.449  19.147  0.00  0.00    +0.000 A 
ENDBRANCH  25  31
ENDBRANCH  21  25
ENDBRANCH   1  21
TORSDOF 7
ENDMDL
MODEL 3
REMARK VINA RESULT:      -8.1      1.930      3.038
REMARK  Name = 
REMARK  8 active torsions:
REMARK  status: ('A' for Active; 'I' for Inactive)
REMARK    1  A    between atoms: C_1  and  N_2
REMARK    2  A    between atoms: C_6  and  C_7
REMARK    3  A    between atoms: C_7  and  C_8
REMARK    4  A    between atoms: C_8  and  N_9
REMARK    5  A    between atoms: C_8  and  C_10
REMARK    6  A    between atoms: C_14  and  N_15
REMARK    7  A    between atoms: C_16  and  C_18
REMARK    8  A    between atoms: C_22  and  C_23
REMARK                            x       y       z     vdW  Elec       q    Type
REMARK                         _______ _______ _______ _____ _____    ______ ____
ROOT
ATOM      1  C   UNL     1       4.132   4.554  16.933  0.00  0.00    +0.000 A 
ATOM      2  C   UNL     1       3.570   3.318  17.294  0.00  0.00    +0.000 A 
ATOM      3  C   UNL     1       2.512   3.250  18.192  0.00  0.00    +0.000 A 
ATOM      4  C   UNL     1       2.002   4.414  18.756  0.00  0.00    +0.000 A 
ATOM      5  C   UNL     1       2.541   5.664  18.442  0.00  0.00    +0.000 A 
ATOM      6  C   UNL     1       3.579   5.728  17.495  0.00  0.00    +0.000 A 
ENDROOT
BRANCH   5   7
ATOM      7  N   UNL     1       2.086   6.861  19.055  0.00  0.00    +0.000 N 
ATOM      8  C   UNL     1       2.090   8.103  18.432  0.00  0.00    +0.000 C 
ATOM      9  O   UNL     1       2.452   8.335  17.280  0.00  0.00    +0.000 OA
ATOM     10  H   UNL     1       1.583   6.758  19.925  0.00  0.00    +0.000 HD
BRANCH   8  11
ATOM     11  C   UNL     1       1.547   9.265  19.184  0.00  0.00    +0.000 A 
ATOM     12  C   UNL     1       1.410  10.535  18.640  0.00  0.00    +0.000 A 
ATOM     13  C   UNL     1       0.805  11.506  19.419  0.00  0.00    +0.000 A 
ATOM     14  N   UNL     1       0.344  11.293  20.671  0.00  0.00    +0.000 NA
ATOM     15  C   UNL     1       0.469  10.043  21.198  0.00  0.00    +0.000 A 
ATOM     16  C   UNL     1       1.070   9.015  20.478  0.00  0.00    +0.000 A 
BRANCH  15  17
ATOM     17  C   UNL     1      -0.068   9.734  22.593  0.00  0.00    +0.000 C 
ATOM     18  F   UNL     1      -0.930   8.680  22.646  0.00  0.00    +0.000 F 
ATOM     19  F   UNL     1       0.926   9.443  23.482  0.00  0.00    +0.000 F 
ATOM     20  F   UNL     1      -0.741  10.792  23.135  0.00  0.00    +0.000 F 
ENDBRANCH  15  17
ENDBRANCH   8  11
ENDBRANCH   5   7
BRANCH   1  21
ATOM     21  C   UNL     1       5.262   4.641  15.905  0.00  0.00    +0.000 C 
BRANCH  21  22
ATOM     22  N   UNL     1       5.956   3.346  15.873  0.00  0.00    +0.000 NA
ATOM     23  H   UNL     1       6.521   3.291  15.025  0.00  0.00    +0.000 HD
ATOM     24  H   UNL     1       5.265   2.596  15.767  0.00  0.00    +0.000 HD
ENDBRANCH  21  22
BRANCH  21  25
ATOM     25  C   UNL     1       6.214   5.851  16.136  0.00  0.00    +0.000 C 
BRANCH  25  31
ATOM     26  C   UNL     1       7.697   8.199  17.668  0.00  0.00    +0.000 C 
ATOM     27  N   UNL     1       7.624   6.815  18.050  0.00  0.00    +0.000 N 
ATOM     28  C   UNL     1       8.166   6.281  19.181  0.00  0.00    +0.000 A 
ATOM     29  N   UNL     1       7.888   5.001  19.241  0.00  0.00    +0.000 NA
ATOM     30  N   UNL     1       7.156   4.684  18.126  0.00  0.00    +0.000 NA
ATOM     31  C   UNL     1       7.000   5.779  17.404  0.00  0.00    +0.000 A 
ENDBRANCH  25  31
ENDBRANCH  21  25
ENDBRANCH   1  21
TORSDOF 7
ENDMDL
MODEL 4
REMARK VINA RESULT:      -7.8      2.018      2.451
REMARK  Name = 
REMARK  8 active torsions:
REMARK  status: ('A' for Active; 'I' for Inactive)
REMARK    1  A    between atoms: C_1  and  N_2
REMARK    2  A    between atoms: C_6  and  C_7
REMARK    3  A    between atoms: C_7  and  C_8
REMARK    4  A    between atoms: C_8  and  N_9
REMARK    5  A    between atoms: C_8  and  C_10
REMARK    6  A    between atoms: C_14  and  N_15
REMARK    7  A    between atoms: C_16  and  C_18
REMARK    8  A    between atoms: C_22  and  C_23
REMARK                            x       y       z     vdW  Elec       q    Type
REMARK                         _______ _______ _______ _____ _____    ______ ____
ROOT
ATOM      1  C   UNL     1       4.373   5.072  17.207  0.00  0.00    +0.000 A 
ATOM      2  C   UNL     1       3.778   3.800  17.260  0.00  0.00    +0.000 A 
ATOM      3  C   UNL     1       2.550   3.612  17.881  0.00  0.00    +0.000 A 
ATOM      4  C   UNL     1       1.897   4.687  18.472  0.00  0.00    +0.000 A 
ATOM      5  C   UNL     1       2.458   5.967  18.460  0.00  0.00    +0.000 A 
ATOM      6  C   UNL     1       3.678   6.159  17.786  0.00  0.00    +0.000 A 
ENDROOT
BRANCH   5   7
ATOM      7  N   UNL     1       1.847   7.068  19.115  0.00  0.00    +0.000 N 
ATOM      8  C   UNL     1       1.774   8.348  18.579  0.00  0.00    +0.000 C 
ATOM      9  O   UNL     1       2.193   8.697  17.477  0.00  0.00    +0.000 OA
ATOM     10  H   UNL     1       1.296   6.855  19.935  0.00  0.00    +0.000 HD
BRANCH   8  11
ATOM     11  C   UNL     1       1.069   9.396  19.363  0.00  0.00    +0.000 A 
ATOM     12  C   UNL     1       1.252   9.588  20.726  0.00  0.00    +0.000 A 
ATOM     13  C   UNL     1       0.603  10.659  21.318  0.00  0.00    +0.000 A 
ATOM     14  N   UNL     1      -0.194  11.522  20.650  0.00  0.00    +0.000 NA
ATOM     15  C   UNL     1      -0.363  11.338  19.311  0.00  0.00    +0.000 A 
ATOM     16  C   UNL     1       0.253  10.282  18.646  0.00  0.00    +0.000 A 
BRANCH  15  17
ATOM     17  C   UNL     1      -1.221  12.304  18.499  0.00  0.00    +0.000 C 
ATOM     18  F   UNL     1      -0.519  13.116  17.661  0.00  0.00    +0.000 F 
ATOM     19  F   UNL     1      -2.131  11.658  17.711  0.00  0.00    +0.000 F 
ATOM     20  F   UNL     1      -1.957  13.137  19.293  0.00  0.00    +0.000 F 
ENDBRANCH  15  17
ENDBRANCH   8  11
ENDBRANCH   5   7
BRANCH   1  21
ATOM     21  C   UNL     1       5.699   5.297  16.477  0.00  0.00    +0.000 C 
BRANCH  21  22
ATOM     22  N   UNL     1       5.674   6.639  15.880  0.00  0.00    +0.000 NA
ATOM     23  H   UNL     1       4.932   7.185  16.318  0.00  0.00    +0.000 HD
ATOM     24  H   UNL     1       5.389   6.565  14.897  0.00  0.00    +0.000 HD
ENDBRANCH  21  22
BRANCH  21  25
ATOM     25  C   UNL     1       6.042   4.169  15.460  0.00  0.00    +0.000 C 
BRANCH  25  31
ATOM     26  C   UNL     1       5.742   3.389  12.400  0.00  0.00    +0.000 C 
ATOM     27  N   UNL     1       6.714   4.271  12.986  0.00  0.00    +0.000 N 
ATOM     28  C   UNL     1       7.669   4.960  12.298  0.00  0.00    +0.000 A 
ATOM     29  N   UNL     1       8.366   5.695  13.129  0.00  0.00    +0.000 NA
ATOM     30  N   UNL     1       7.868   5.482  14.389  0.00  0.00    +0.000 NA
ATOM     31  C   UNL     1       6.873   4.618  14.303  0.00  0.00    +0.000 A 
ENDBRANCH  25  31
ENDBRANCH  21  25
ENDBRANCH   1  21
TORSDOF 7
ENDMDL
MODEL 5
REMARK VINA RESULT:      -7.8      5.976      7.983
REMARK  Name = 
REMARK  8 active torsions:
REMARK  status: ('A' for Active; 'I' for Inactive)
REMARK    1  A    between atoms: C_1  and  N_2
REMARK    2  A    between atoms: C_6  and  C_7
REMARK    3  A    between atoms: C_7  and  C_8
REMARK    4  A    between atoms: C_8  and  N_9
REMARK    5  A    between atoms: C_8  and  C_10
REMARK    6  A    between atoms: C_14  and  N_15
REMARK    7  A    between atoms: C_16  and  C_18
REMARK    8  A    between atoms: C_22  and  C_23
REMARK                            x       y       z     vdW  Elec       q    Type
REMARK                         _______ _______ _______ _____ _____    ______ ____
ROOT
ATOM      1  C   UNL     1       4.739   5.438  17.267  0.00  0.00    +0.000 A 
ATOM      2  C   UNL     1       5.559   4.433  16.727  0.00  0.00    +0.000 A 
ATOM      3  C   UNL     1       6.885   4.691  16.404  0.00  0.00    +0.000 A 
ATOM      4  C   UNL     1       7.416   5.960  16.602  0.00  0.00    +0.000 A 
ATOM      5  C   UNL     1       6.633   6.996  17.119  0.00  0.00    +0.000 A 
ATOM      6  C   UNL     1       5.306   6.714  17.490  0.00  0.00    +0.000 A 
ENDROOT
BRANCH   5   7
ATOM      7  N   UNL     1       7.129   8.318  17.267  0.00  0.00    +0.000 N 
ATOM      8  C   UNL     1       8.121   8.679  18.171  0.00  0.00    +0.000 C 
ATOM      9  O   UNL     1       8.717   7.922  18.934  0.00  0.00    +0.000 OA
ATOM     10  H   UNL     1       6.856   8.983  16.558  0.00  0.00    +0.000 HD
BRANCH   8  11
ATOM     11  C   UNL     1       8.569  10.097  18.189  0.00  0.00    +0.000 A 
ATOM     12  C   UNL     1       8.048  11.077  17.354  0.00  0.00    +0.000 A 
ATOM     13  C   UNL     1       8.488  12.377  17.536  0.00  0.00    +0.000 A 
ATOM     14  N   UNL     1       9.390  12.746  18.472  0.00  0.00    +0.000 NA
ATOM     15  C   UNL     1       9.891  11.784  19.297  0.00  0.00    +0.000 A 
ATOM     16  C   UNL     1       9.500  10.455  19.173  0.00  0.00    +0.000 A 
BRANCH  15  17
ATOM     17  C   UNL     1      10.883  12.149  20.398  0.00  0.00    +0.000 C 
ATOM     18  F   UNL     1      10.467  11.843  21.658  0.00  0.00    +0.000 F 
ATOM     19  F   UNL     1      12.086  11.522  20.244  0.00  0.00    +0.000 F 
ATOM     20  F   UNL     1      11.170  13.484  20.415  0.00  0.00    +0.000 F 
ENDBRANCH  15  17
ENDBRANCH   8  11
ENDBRANCH   5   7
BRANCH   1  21
ATOM     21  C   UNL     1       3.293   5.147  17.675  0.00  0.00    +0.000 C 
BRANCH  21  22
ATOM     22  N   UNL     1       2.970   5.975  18.845  0.00  0.00    +0.000 NA
ATOM     23  H   UNL     1       2.142   6.535  18.640  0.00  0.00    +0.000 HD
ATOM     24  H   UNL     1       3.715   6.665  18.986  0.00  0.00    +0.000 HD
ENDBRANCH  21  22
BRANCH  21  25
ATOM     25  C   UNL     1       3.006   3.632  17.887  0.00  0.00    +0.000 C 
BRANCH  25  31
ATOM     26  C   UNL     1       0.724   3.477  20.084  0.00  0.00    +0.000 C 
ATOM     27  N   UNL     1       2.107   3.114  20.234  0.00  0.00    +0.000 N 
ATOM     28  C   UNL     1       2.668   2.599  21.363  0.00  0.00    +0.000 A 
ATOM     29  N   UNL     1       3.937   2.349  21.150  0.00  0.00    +0.000 NA
ATOM     30  N   UNL     1       4.220   2.713  19.859  0.00  0.00    +0.000 NA
ATOM     31  C   UNL     1       3.115   3.179  19.306  0.00  0.00    +0.000 A 
ENDBRANCH  25  31
ENDBRANCH  21  25
ENDBRANCH   1  21
TORSDOF 7
ENDMDL
MODEL 6
REMARK VINA RESULT:      -7.8      2.914      3.373
REMARK  Name = 
REMARK  8 active torsions:
REMARK  status: ('A' for Active; 'I' for Inactive)
REMARK    1  A    between atoms: C_1  and  N_2
REMARK    2  A    between atoms: C_6  and  C_7
REMARK    3  A    between atoms: C_7  and  C_8
REMARK    4  A    between atoms: C_8  and  N_9
REMARK    5  A    between atoms: C_8  and  C_10
REMARK    6  A    between atoms: C_14  and  N_15
REMARK    7  A    between atoms: C_16  and  C_18
REMARK    8  A    between atoms: C_22  and  C_23
REMARK                            x       y       z     vdW  Elec       q    Type
REMARK                         _______ _______ _______ _____ _____    ______ ____
ROOT
ATOM      1  C   UNL     1       5.073   6.100  18.139  0.00  0.00    +0.000 A 
ATOM      2  C   UNL     1       4.556   4.863  18.558  0.00  0.00    +0.000 A 
ATOM      3  C   UNL     1       3.194   4.693  18.771  0.00  0.00    +0.000 A 
ATOM      4  C   UNL     1       2.322   5.759  18.581  0.00  0.00    +0.000 A 
ATOM      5  C   UNL     1       2.792   7.013  18.183  0.00  0.00    +0.000 A 
ATOM      6  C   UNL     1       4.165   7.163  17.921  0.00  0.00    +0.000 A 
ENDROOT
BRANCH   5   7
ATOM      7  N   UNL     1       1.933   8.136  18.048  0.00  0.00    +0.000 N 
ATOM      8  C   UNL     1       1.381   8.824  19.122  0.00  0.00    +0.000 C 
ATOM      9  O   UNL     1       1.573   8.585  20.313  0.00  0.00    +0.000 OA
ATOM     10  H   UNL     1       1.865   8.542  17.127  0.00  0.00    +0.000 HD
BRANCH   8  11
ATOM     11  C   UNL     1       0.528  10.007  18.831  0.00  0.00    +0.000 A 
ATOM     12  C   UNL     1       0.860  11.302  19.205  0.00  0.00    +0.000 A 
ATOM     13  C   UNL     1       0.023  12.325  18.792  0.00  0.00    +0.000 A 
ATOM     14  N   UNL     1      -1.092  12.137  18.051  0.00  0.00    +0.000 NA
ATOM     15  C   UNL     1      -1.408  10.867  17.676  0.00  0.00    +0.000 A 
ATOM     16  C   UNL     1      -0.619   9.786  18.057  0.00  0.00    +0.000 A 
BRANCH  15  17
ATOM     17  C   UNL     1      -2.634  10.599  16.807  0.00  0.00    +0.000 C 
ATOM     18  F   UNL     1      -2.353  10.322  15.504  0.00  0.00    +0.000 F 
ATOM     19  F   UNL     1      -3.373   9.544  17.259  0.00  0.00    +0.000 F 
ATOM     20  F   UNL     1      -3.495  11.660  16.784  0.00  0.00    +0.000 F 
ENDBRANCH  15  17
ENDBRANCH   8  11
ENDBRANCH   5   7
BRANCH   1  21
ATOM     21  C   UNL     1       6.565   6.280  17.851  0.00  0.00    +0.000 C 
BRANCH  21  22
ATOM     22  N   UNL     1       6.728   7.457  16.986  0.00  0.00    +0.000 NA
ATOM     23  H   UNL     1       6.761   8.295  17.567  0.00  0.00    +0.000 HD
ATOM     24  H   UNL     1       5.884   7.576  16.416  0.00  0.00    +0.000 HD
ENDBRANCH  21  22
BRANCH  21  25
ATOM     25  C   UNL     1       7.242   4.996  17.287  0.00  0.00    +0.000 C 
BRANCH  25  31
ATOM     26  C   UNL     1       5.241   3.038  15.797  0.00  0.00    +0.000 C 
ATOM     27  N   UNL     1       6.177   3.951  15.200  0.00  0.00    +0.000 N 
ATOM     28  C   UNL     1       6.336   4.153  13.861  0.00  0.00    +0.000 A 
ATOM     29  N   UNL     1       7.246   5.075  13.660  0.00  0.00    +0.000 NA
ATOM     30  N   UNL     1       7.702   5.482  14.887  0.00  0.00    +0.000 NA
ATOM     31  C   UNL     1       7.059   4.800  15.818  0.00  0.00    +0.000 A 
ENDBRANCH  25  31
ENDBRANCH  21  25
ENDBRANCH   1  21
TORSDOF 7
ENDMDL
MODEL 7
REMARK VINA RESULT:      -7.8      2.799      3.823
REMARK  Name = 
REMARK  8 active torsions:
REMARK  status: ('A' for Active; 'I' for Inactive)
REMARK    1  A    between atoms: C_1  and  N_2
REMARK    2  A    between atoms: C_6  and  C_7
REMARK    3  A    between atoms: C_7  and  C_8
REMARK    4  A    between atoms: C_8  and  N_9
REMARK    5  A    between atoms: C_8  and  C_10
REMARK    6  A    between atoms: C_14  and  N_15
REMARK    7  A    between atoms: C_16  and  C_18
REMARK    8  A    between atoms: C_22  and  C_23
REMARK                            x       y       z     vdW  Elec       q    Type
REMARK                         _______ _______ _______ _____ _____    ______ ____
ROOT
ATOM      1  C   UNL     1       2.923   3.522  18.918  0.00  0.00    +0.000 A 
ATOM      2  C   UNL     1       3.001   2.500  19.878  0.00  0.00    +0.000 A 
ATOM      3  C   UNL     1       2.474   2.675  21.151  0.00  0.00    +0.000 A 
ATOM      4  C   UNL     1       1.867   3.878  21.494  0.00  0.00    +0.000 A 
ATOM      5  C   UNL     1       1.782   4.929  20.579  0.00  0.00    +0.000 A 
ATOM      6  C   UNL     1       2.274   4.727  19.277  0.00  0.00    +0.000 A 
ENDROOT
BRANCH   5   7
ATOM      7  N   UNL     1       1.231   6.191  20.924  0.00  0.00    +0.000 N 
ATOM      8  C   UNL     1       1.661   7.399  20.388  0.00  0.00    +0.000 C 
ATOM      9  O   UNL     1       2.539   7.545  19.539  0.00  0.00    +0.000 OA
ATOM     10  H   UNL     1       0.375   6.178  21.459  0.00  0.00    +0.000 HD
BRANCH   8  11
ATOM     11  C   UNL     1       0.964   8.642  20.815  0.00  0.00    +0.000 A 
ATOM     12  C   UNL     1       0.700   8.956  22.141  0.00  0.00    +0.000 A 
ATOM     13  C   UNL     1       0.126  10.188  22.408  0.00  0.00    +0.000 A 
ATOM     14  N   UNL     1      -0.192  11.095  21.459  0.00  0.00    +0.000 NA
ATOM     15  C   UNL     1       0.079  10.789  20.160  0.00  0.00    +0.000 A 
ATOM     16  C   UNL     1       0.651   9.569  19.812  0.00  0.00    +0.000 A 
BRANCH  15  17
ATOM     17  C   UNL     1      -0.222  11.791  19.049  0.00  0.00    +0.000 C 
ATOM     18  F   UNL     1      -0.992  12.847  19.434  0.00  0.00    +0.000 F 
ATOM     19  F   UNL     1       0.911  12.335  18.516  0.00  0.00    +0.000 F 
ATOM     20  F   UNL     1      -0.877  11.217  17.996  0.00  0.00    +0.000 F 
ENDBRANCH  15  17
ENDBRANCH   8  11
ENDBRANCH   5   7
BRANCH   1  21
ATOM     21  C   UNL     1       3.454   3.318  17.497  0.00  0.00    +0.000 C 
BRANCH  21  22
ATOM     22  N   UNL     1       4.332   2.140  17.499  0.00  0.00    +0.000 NA
ATOM     23  H   UNL     1       3.791   1.320  17.221  0.00  0.00    +0.000 HD
ATOM     24  H   UNL     1       4.622   1.937  18.462  0.00  0.00    +0.000 HD
ENDBRANCH  21  22
BRANCH  21  25
ATOM     25  C   UNL     1       4.123   4.591  16.900  0.00  0.00    +0.000 C 
BRANCH  25  31
ATOM     26  C   UNL     1       6.014   5.349  19.331  0.00  0.00    +0.000 C 
ATOM     27  N   UNL     1       6.409   4.905  18.022  0.00  0.00    +0.000 N 
ATOM     28  C   UNL     1       7.693   4.700  17.614  0.00  0.00    +0.000 A 
ATOM     29  N   UNL     1       7.698   4.265  16.378  0.00  0.00    +0.000 NA
ATOM     30  N   UNL     1       6.395   4.189  15.960  0.00  0.00    +0.000 NA
ATOM     31  C   UNL     1       5.616   4.580  16.952  0.00  0.00    +0.000 A 
ENDBRANCH  25  31
ENDBRANCH  21  25
ENDBRANCH   1  21
TORSDOF 7
ENDMDL
MODEL 8
REMARK VINA RESULT:      -7.8      2.938      3.804
REMARK  Name = 
REMARK  8 active torsions:
REMARK  status: ('A' for Active; 'I' for Inactive)
REMARK    1  A    between atoms: C_1  and  N_2
REMARK    2  A    between atoms: C_6  and  C_7
REMARK    3  A    between atoms: C_7  and  C_8
REMARK    4  A    between atoms: C_8  and  N_9
REMARK    5  A    between atoms: C_8  and  C_10
REMARK    6  A    between atoms: C_14  and  N_15
REMARK    7  A    between atoms: C_16  and  C_18
REMARK    8  A    between atoms: C_22  and  C_23
REMARK                            x       y       z     vdW  Elec       q    Type
REMARK                         _______ _______ _______ _____ _____    ______ ____
ROOT
ATOM      1  C   UNL     1       2.906   3.402  19.046  0.00  0.00    +0.000 A 
ATOM      2  C   UNL     1       3.089   2.455  20.068  0.00  0.00    +0.000 A 
ATOM      3  C   UNL     1       2.623   2.696  21.354  0.00  0.00    +0.000 A 
ATOM      4  C   UNL     1       1.976   3.890  21.649  0.00  0.00    +0.000 A 
ATOM      5  C   UNL     1       1.788   4.869  20.669  0.00  0.00    +0.000 A 
ATOM      6  C   UNL     1       2.219   4.597  19.358  0.00  0.00    +0.000 A 
ENDROOT
BRANCH   5   7
ATOM      7  N   UNL     1       1.193   6.125  20.958  0.00  0.00    +0.000 N 
ATOM      8  C   UNL     1       1.663   7.338  20.469  0.00  0.00    +0.000 C 
ATOM      9  O   UNL     1       2.619   7.493  19.711  0.00  0.00    +0.000 OA
ATOM     10  H   UNL     1       0.289   6.103  21.406  0.00  0.00    +0.000 HD
BRANCH   8  11
ATOM     11  C   UNL     1       0.915   8.573  20.824  0.00  0.00    +0.000 A 
ATOM     12  C   UNL     1       0.754   9.023  22.128  0.00  0.00    +0.000 A 
ATOM     13  C   UNL     1       0.114  10.237  22.314  0.00  0.00    +0.000 A 
ATOM     14  N   UNL     1      -0.361  11.004  21.308  0.00  0.00    +0.000 NA
ATOM     15  C   UNL     1      -0.191  10.565  20.030  0.00  0.00    +0.000 A 
ATOM     16  C   UNL     1       0.439   9.353  19.762  0.00  0.00    +0.000 A 
BRANCH  15  17
ATOM     17  C   UNL     1      -0.672  11.408  18.852  0.00  0.00    +0.000 C 
ATOM     18  F   UNL     1      -0.996  10.691  17.739  0.00  0.00    +0.000 F 
ATOM     19  F   UNL     1      -1.782  12.142  19.155  0.00  0.00    +0.000 F 
ATOM     20  F   UNL     1       0.265  12.317  18.448  0.00  0.00    +0.000 F 
ENDBRANCH  15  17
ENDBRANCH   8  11
ENDBRANCH   5   7
BRANCH   1  21
ATOM     21  C   UNL     1       3.369   3.121  17.614  0.00  0.00    +0.000 C 
BRANCH  21  22
ATOM     22  N   UNL     1       4.121   1.859  17.613  0.00  0.00    +0.000 NA
ATOM     23  H   UNL     1       4.314   1.585  18.576  0.00  0.00    +0.000 HD
ATOM     24  H   UNL     1       5.048   2.018  17.204  0.00  0.00    +0.000 HD
ENDBRANCH  21  22
BRANCH  21  25
ATOM     25  C   UNL     1       4.147   4.309  16.975  0.00  0.00    +0.000 C 
BRANCH  25  31
ATOM     26  C   UNL     1       6.685   4.522  15.084  0.00  0.00    +0.000 C 
ATOM     27  N   UNL     1       6.667   4.479  16.521  0.00  0.00    +0.000 N 
ATOM     28  C   UNL     1       7.764   4.559  17.325  0.00  0.00    +0.000 A 
ATOM     29  N   UNL     1       7.393   4.522  18.582  0.00  0.00    +0.000 NA
ATOM     30  N   UNL     1       6.027   4.408  18.607  0.00  0.00    +0.000 NA
ATOM     31  C   UNL     1       5.588   4.377  17.362  0.00  0.00    +0.000 A 
ENDBRANCH  25  31
ENDBRANCH  21  25
ENDBRANCH   1  21
TORSDOF 7
ENDMDL
MODEL 9
REMARK VINA RESULT:      -7.7      3.643      5.423
REMARK  Name = 
REMARK  8 active torsions:
REMARK  status: ('A' for Active; 'I' for Inactive)
REMARK    1  A    between atoms: C_1  and  N_2
REMARK    2  A    between atoms: C_6  and  C_7
REMARK    3  A    between atoms: C_7  and  C_8
REMARK    4  A    between atoms: C_8  and  N_9
REMARK    5  A    between atoms: C_8  and  C_10
REMARK    6  A    between atoms: C_14  and  N_15
REMARK    7  A    between atoms: C_16  and  C_18
REMARK    8  A    between atoms: C_22  and  C_23
REMARK                            x       y       z     vdW  Elec       q    Type
REMARK                         _______ _______ _______ _____ _____    ______ ____
ROOT
ATOM      1  C   UNL     1       4.566   5.390  18.388  0.00  0.00    +0.000 A 
ATOM      2  C   UNL     1       5.104   5.683  17.124  0.00  0.00    +0.000 A 
ATOM      3  C   UNL     1       4.647   6.770  16.389  0.00  0.00    +0.000 A 
ATOM      4  C   UNL     1       3.638   7.579  16.896  0.00  0.00    +0.000 A 
ATOM      5  C   UNL     1       3.060   7.316  18.140  0.00  0.00    +0.000 A 
ATOM      6  C   UNL     1       3.561   6.243  18.900  0.00  0.00    +0.000 A 
ENDROOT
BRANCH   5   7
ATOM      7  N   UNL     1       1.980   8.083  18.652  0.00  0.00    +0.000 N 
ATOM      8  C   UNL     1       1.721   9.398  18.286  0.00  0.00    +0.000 C 
ATOM      9  O   UNL     1       2.353  10.062  17.466  0.00  0.00    +0.000 OA
ATOM     10  H   UNL     1       1.280   7.581  19.178  0.00  0.00    +0.000 HD
BRANCH   8  11
ATOM     11  C   UNL     1       0.530  10.067  18.875  0.00  0.00    +0.000 A 
ATOM     12  C   UNL     1       0.549  10.736  20.091  0.00  0.00    +0.000 A 
ATOM     13  C   UNL     1      -0.605  11.394  20.482  0.00  0.00    +0.000 A 
ATOM     14  N   UNL     1      -1.743  11.420  19.754  0.00  0.00    +0.000 NA
ATOM     15  C   UNL     1      -1.755  10.772  18.556  0.00  0.00    +0.000 A 
ATOM     16  C   UNL     1      -0.636  10.085  18.097  0.00  0.00    +0.000 A 
BRANCH  15  17
ATOM     17  C   UNL     1      -3.000  10.801  17.673  0.00  0.00    +0.000 C 
ATOM     18  F   UNL     1      -3.528   9.576  17.400  0.00  0.00    +0.000 F 
ATOM     19  F   UNL     1      -4.016  11.526  18.228  0.00  0.00    +0.000 F 
ATOM     20  F   UNL     1      -2.762  11.382  16.460  0.00  0.00    +0.000 F 
ENDBRANCH  15  17
ENDBRANCH   8  11
ENDBRANCH   5   7
BRANCH   1  21
ATOM     21  C   UNL     1       5.101   4.227  19.227  0.00  0.00    +0.000 C 
BRANCH  21  22
ATOM     22  N   UNL     1       6.507   4.004  18.861  0.00  0.00    +0.000 NA
ATOM     23  H   UNL     1       6.585   3.968  17.845  0.00  0.00    +0.000 HD
ATOM     24  H   UNL     1       6.792   3.070  19.171  0.00  0.00    +0.000 HD
ENDBRANCH  21  22
BRANCH  21  25
ATOM     25  C   UNL     1       4.223   2.944  19.131  0.00  0.00    +0.000 C 
BRANCH  25  31
ATOM     26  C   UNL     1       1.119   3.405  18.670  0.00  0.00    +0.000 C 
ATOM     27  N   UNL     1       1.780   3.076  19.904  0.00  0.00    +0.000 N 
ATOM     28  C   UNL     1       1.159   2.870  21.100  0.00  0.00    +0.000 A 
ATOM     29  N   UNL     1       2.049   2.556  22.010  0.00  0.00    +0.000 NA
ATOM     30  N   UNL     1       3.279   2.563  21.405  0.00  0.00    +0.000 NA
ATOM     31  C   UNL     1       3.118   2.881  20.134  0.00  0.00    +0.000 A 
ENDBRANCH  25  31
ENDBRANCH  21  25
ENDBRANCH   1  21
TORSDOF 7
ENDMDL
