MODEL 1
REMARK VINA RESULT:      -9.1      0.000      0.000
REMARK  Name = 
REMARK  6 active torsions:
REMARK  status: ('A' for Active; 'I' for Inactive)
REMARK    1  A    between atoms: C_1  and  C_2
REMARK    2  A    between atoms: C_8  and  C_9
REMARK    3  A    between atoms: C_12  and  C_13
REMARK    4  A    between atoms: C_13  and  C_14
REMARK    5  A    between atoms: C_13  and  O_15
REMARK    6  A    between atoms: O_15  and  C_16
REMARK                            x       y       z     vdW  Elec       q    Type
REMARK                         _______ _______ _______ _____ _____    ______ ____
ROOT
ATOM      1  C   UNL     1       4.460   4.084  17.331  0.00  0.00    +0.000 A 
ATOM      2  N   UNL     1       4.129   2.932  17.877  0.00  0.00    +0.000 NA
ATOM      3  N   UNL     1       3.266   3.210  18.904  0.00  0.00    +0.000 NA
ATOM      4  C   UNL     1       3.104   4.517  18.919  0.00  0.00    +0.000 A 
ATOM      5  O   UNL     1       3.845   5.152  17.940  0.00  0.00    +0.000 OA
ENDROOT
BRANCH   1  13
ATOM      6  C   UNL     1       5.772   2.780  11.719  0.00  0.00    +0.000 C 
ATOM      7  C   UNL     1       6.452   3.755  12.601  0.00  0.00    +0.000 A 
ATOM      8  N   UNL     1       7.452   4.499  12.113  0.00  0.00    +0.000 NA
ATOM      9  O   UNL     1       7.859   5.311  13.158  0.00  0.00    +0.000 OA
ATOM     10  C   UNL     1       7.105   5.053  14.261  0.00  0.00    +0.000 A 
ATOM     11  N   UNL     1       7.252   5.695  15.433  0.00  0.00    +0.000 NA
ATOM     12  C   UNL     1       6.356   5.292  16.366  0.00  0.00    +0.000 A 
ATOM     13  C   UNL     1       5.367   4.312  16.214  0.00  0.00    +0.000 A 
ATOM     14  C   UNL     1       5.290   3.650  14.978  0.00  0.00    +0.000 A 
ATOM     15  C   UNL     1       6.184   4.056  13.964  0.00  0.00    +0.000 A 
ENDBRANCH   1  13
BRANCH   4  16
ATOM     16  C   UNL     1       2.180   5.336  19.774  0.00  0.00    +0.000 C 
ATOM     17  C   UNL     1       2.022   4.662  21.140  0.00  0.00    +0.000 C 
BRANCH  16  18
ATOM     18  O   UNL     1       2.792   6.626  19.923  0.00  0.00    +0.000 OA
BRANCH  18  19
ATOM     19  C   UNL     1       2.057   7.751  19.654  0.00  0.00    +0.000 A 
ATOM     20  C   UNL     1       2.114   8.168  18.318  0.00  0.00    +0.000 A 
ATOM     21  C   UNL     1       1.401   9.292  17.884  0.00  0.00    +0.000 A 
ATOM     22  C   UNL     1       0.626  10.017  18.785  0.00  0.00    +0.000 A 
ATOM     23  C   UNL     1       0.575   9.624  20.119  0.00  0.00    +0.000 A 
ATOM     24  C   UNL     1       1.287   8.502  20.545  0.00  0.00    +0.000 A 
ATOM     25  F   UNL     1       1.196   8.181  21.843  0.00  0.00    +0.000 F 
ENDBRANCH  18  19
ENDBRANCH  16  18
ENDBRANCH   4  16
TORSDOF 4
ENDMDL
MODEL 2
REMARK VINA RESULT:      -8.9      1.053      1.419
REMARK  Name = 
REMARK  6 active torsions:
REMARK  status: ('A' for Active; 'I' for Inactive)
REMARK    1  A    between atoms: C_1  and  C_2
REMARK    2  A    between atoms: C_8  and  C_9
REMARK    3  A    between atoms: C_12  and  C_13
REMARK    4  A    between atoms: C_13  and  C_14
REMARK    5  A    between atoms: C_13  and  O_15
REMARK    6  A    between atoms: O_15  and  C_16
REMARK                            x       y       z     vdW  Elec       q    Type
REMARK                         _______ _______ _______ _____ _____    ______ ____
ROOT
ATOM      1  C   UNL     1       4.809   4.415  17.466  0.00  0.00    +0.000 A 
ATOM      2  N   UNL     1       4.891   3.502  18.412  0.00  0.00    +0.000 NA
ATOM      3  N   UNL     1       3.945   3.817  19.353  0.00  0.00    +0.000 NA
ATOM      4  C   UNL     1       3.326   4.897  18.921  0.00  0.00    +0.000 A 
ATOM      5  O   UNL     1       3.828   5.346  17.714  0.00  0.00    +0.000 OA
ENDROOT
BRANCH   1  13
ATOM      6  C   UNL     1       5.448   2.788  11.821  0.00  0.00    +0.000 C 
ATOM      7  C   UNL     1       6.291   3.733  12.588  0.00  0.00    +0.000 A 
ATOM      8  N   UNL     1       7.295   4.368  11.973  0.00  0.00    +0.000 NA
ATOM      9  O   UNL     1       7.870   5.181  12.936  0.00  0.00    +0.000 OA
ATOM     10  C   UNL     1       7.209   5.031  14.116  0.00  0.00    +0.000 A 
ATOM     11  N   UNL     1       7.525   5.703  15.238  0.00  0.00    +0.000 NA
ATOM     12  C   UNL     1       6.694   5.415  16.269  0.00  0.00    +0.000 A 
ATOM     13  C   UNL     1       5.617   4.520  16.258  0.00  0.00    +0.000 A 
ATOM     14  C   UNL     1       5.364   3.821  15.067  0.00  0.00    +0.000 A 
ATOM     15  C   UNL     1       6.184   4.108  13.954  0.00  0.00    +0.000 A 
ENDBRANCH   1  13
BRANCH   4  16
ATOM     16  C   UNL     1       2.137   5.594  19.516  0.00  0.00    +0.000 C 
ATOM     17  C   UNL     1       1.610   4.777  20.700  0.00  0.00    +0.000 C 
BRANCH  16  18
ATOM     18  O   UNL     1       2.595   6.879  19.962  0.00  0.00    +0.000 OA
BRANCH  18  19
ATOM     19  C   UNL     1       1.874   7.998  19.634  0.00  0.00    +0.000 A 
ATOM     20  C   UNL     1       1.101   8.511  20.684  0.00  0.00    +0.000 A 
ATOM     21  C   UNL     1       0.324   9.662  20.508  0.00  0.00    +0.000 A 
ATOM     22  C   UNL     1       0.304  10.310  19.276  0.00  0.00    +0.000 A 
ATOM     23  C   UNL     1       1.054   9.800  18.220  0.00  0.00    +0.000 A 
ATOM     24  C   UNL     1       1.828   8.653  18.401  0.00  0.00    +0.000 A 
ATOM     25  F   UNL     1       2.522   8.215  17.343  0.00  0.00    +0.000 F 
ENDBRANCH  18  19
ENDBRANCH  16  18
ENDBRANCH   4  16
TORSDOF 4
ENDMDL
MODEL 3
REMARK VINA RESULT:      -8.3      2.058      3.683
REMARK  Name = 
REMARK  6 active torsions:
REMARK  status: ('A' for Active; 'I' for Inactive)
REMARK    1  A    between atoms: C_1  and  C_2
REMARK    2  A    between atoms: C_8  and  C_9
REMARK    3  A    between atoms: C_12  and  C_13
REMARK    4  A    between atoms: C_13  and  C_14
REMARK    5  A    between atoms: C_13  and  O_15
REMARK    6  A    between atoms: O_15  and  C_16
REMARK                            x       y       z     vdW  Elec       q    Type
REMARK                         _______ _______ _______ _____ _____    ______ ____
ROOT
ATOM      1  C   UNL     1       5.260   5.280  17.191  0.00  0.00    +0.000 A 
ATOM      2  N   UNL     1       5.655   4.887  18.385  0.00  0.00    +0.000 NA
ATOM      3  N   UNL     1       4.757   5.393  19.289  0.00  0.00    +0.000 NA
ATOM      4  C   UNL     1       3.854   6.055  18.595  0.00  0.00    +0.000 A 
ATOM      5  O   UNL     1       4.111   6.034  17.237  0.00  0.00    +0.000 OA
ENDROOT
BRANCH   1  13
ATOM      6  C   UNL     1       4.685   2.851  11.835  0.00  0.00    +0.000 C 
ATOM      7  C   UNL     1       5.839   3.617  12.359  0.00  0.00    +0.000 A 
ATOM      8  N   UNL     1       6.879   3.871  11.557  0.00  0.00    +0.000 NA
ATOM      9  O   UNL     1       7.768   4.609  12.320  0.00  0.00    +0.000 OA
ATOM     10  C   UNL     1       7.259   4.795  13.568  0.00  0.00    +0.000 A 
ATOM     11  N   UNL     1       7.886   5.489  14.534  0.00  0.00    +0.000 NA
ATOM     12  C   UNL     1       7.158   5.570  15.674  0.00  0.00    +0.000 A 
ATOM     13  C   UNL     1       5.896   5.010  15.909  0.00  0.00    +0.000 A 
ATOM     14  C   UNL     1       5.312   4.263  14.872  0.00  0.00    +0.000 A 
ATOM     15  C   UNL     1       6.019   4.174  13.654  0.00  0.00    +0.000 A 
ENDBRANCH   1  13
BRANCH   4  16
ATOM     16  C   UNL     1       2.594   6.709  19.084  0.00  0.00    +0.000 C 
ATOM     17  C   UNL     1       2.430   8.069  18.397  0.00  0.00    +0.000 C 
BRANCH  16  18
ATOM     18  O   UNL     1       1.512   5.837  18.726  0.00  0.00    +0.000 OA
BRANCH  18  19
ATOM     19  C   UNL     1       1.557   4.522  19.110  0.00  0.00    +0.000 A 
ATOM     20  C   UNL     1       1.266   4.309  20.463  0.00  0.00    +0.000 A 
ATOM     21  C   UNL     1       1.254   3.017  21.002  0.00  0.00    +0.000 A 
ATOM     22  C   UNL     1       1.541   1.921  20.193  0.00  0.00    +0.000 A 
ATOM     23  C   UNL     1       1.849   2.120  18.850  0.00  0.00    +0.000 A 
ATOM     24  C   UNL     1       1.858   3.411  18.319  0.00  0.00    +0.000 A 
ATOM     25  F   UNL     1       2.166   3.531  17.020  0.00  0.00    +0.000 F 
ENDBRANCH  18  19
ENDBRANCH  16  18
ENDBRANCH   4  16
TORSDOF 4
ENDMDL
MODEL 4
REMARK VINA RESULT:      -8.2      4.014      8.949
REMARK  Name = 
REMARK  6 active torsions:
REMARK  status: ('A' for Active; 'I' for Inactive)
REMARK    1  A    between atoms: C_1  and  C_2
REMARK    2  A    between atoms: C_8  and  C_9
REMARK    3  A    between atoms: C_12  and  C_13
REMARK    4  A    between atoms: C_13  and  C_14
REMARK    5  A    between atoms: C_13  and  O_15
REMARK    6  A    between atoms: O_15  and  C_16
REMARK                            x       y       z     vdW  Elec       q    Type
REMARK                         _______ _______ _______ _____ _____    ______ ____
ROOT
ATOM      1  C   UNL     1       1.553   8.984  19.144  0.00  0.00    +0.000 A 
ATOM      2  N   UNL     1       1.598   9.424  17.903  0.00  0.00    +0.000 NA
ATOM      3  N   UNL     1       2.388   8.554  17.199  0.00  0.00    +0.000 NA
ATOM      4  C   UNL     1       2.770   7.619  18.045  0.00  0.00    +0.000 A 
ATOM      5  O   UNL     1       2.278   7.828  19.320  0.00  0.00    +0.000 OA
ENDROOT
BRANCH   1  13
ATOM      6  C   UNL     1      -2.400  13.001  20.920  0.00  0.00    +0.000 C 
ATOM      7  C   UNL     1      -1.692  12.002  21.753  0.00  0.00    +0.000 A 
ATOM      8  N   UNL     1      -1.978  11.912  23.057  0.00  0.00    +0.000 NA
ATOM      9  O   UNL     1      -1.179  10.891  23.545  0.00  0.00    +0.000 OA
ATOM     10  C   UNL     1      -0.424  10.377  22.537  0.00  0.00    +0.000 A 
ATOM     11  N   UNL     1       0.442   9.360  22.696  0.00  0.00    +0.000 NA
ATOM     12  C   UNL     1       1.042   8.998  21.536  0.00  0.00    +0.000 A 
ATOM     13  C   UNL     1       0.853   9.577  20.275  0.00  0.00    +0.000 A 
ATOM     14  C   UNL     1      -0.035  10.661  20.183  0.00  0.00    +0.000 A 
ATOM     15  C   UNL     1      -0.708  11.056  21.359  0.00  0.00    +0.000 A 
ENDBRANCH   1  13
BRANCH   4  16
ATOM     16  C   UNL     1       3.556   6.370  17.768  0.00  0.00    +0.000 C 
ATOM     17  C   UNL     1       5.005   6.746  17.442  0.00  0.00    +0.000 C 
BRANCH  16  18
ATOM     18  O   UNL     1       3.503   5.577  18.963  0.00  0.00    +0.000 OA
BRANCH  18  19
ATOM     19  C   UNL     1       2.646   4.509  19.021  0.00  0.00    +0.000 A 
ATOM     20  C   UNL     1       2.915   3.507  18.081  0.00  0.00    +0.000 A 
ATOM     21  C   UNL     1       2.137   2.344  18.028  0.00  0.00    +0.000 A 
ATOM     22  C   UNL     1       1.075   2.173  18.911  0.00  0.00    +0.000 A 
ATOM     23  C   UNL     1       0.787   3.170  19.839  0.00  0.00    +0.000 A 
ATOM     24  C   UNL     1       1.566   4.326  19.888  0.00  0.00    +0.000 A 
ATOM     25  F   UNL     1       1.232   5.247  20.803  0.00  0.00    +0.000 F 
ENDBRANCH  18  19
ENDBRANCH  16  18
ENDBRANCH   4  16
TORSDOF 4
ENDMDL
MODEL 5
REMARK VINA RESULT:      -8.2      1.622      2.008
REMARK  Name = 
REMARK  6 active torsions:
REMARK  status: ('A' for Active; 'I' for Inactive)
REMARK    1  A    between atoms: C_1  and  C_2
REMARK    2  A    between atoms: C_8  and  C_9
REMARK    3  A    between atoms: C_12  and  C_13
REMARK    4  A    between atoms: C_13  and  C_14
REMARK    5  A    between atoms: C_13  and  O_15
REMARK    6  A    between atoms: O_15  and  C_16
REMARK                            x       y       z     vdW  Elec       q    Type
REMARK                         _______ _______ _______ _____ _____    ______ ____
ROOT
ATOM      1  C   UNL     1       5.450   3.901  17.653  0.00  0.00    +0.000 A 
ATOM      2  N   UNL     1       5.961   4.084  18.853  0.00  0.00    +0.000 NA
ATOM      3  N   UNL     1       5.009   3.688  19.757  0.00  0.00    +0.000 NA
ATOM      4  C   UNL     1       3.974   3.270  19.058  0.00  0.00    +0.000 A 
ATOM      5  O   UNL     1       4.178   3.380  17.695  0.00  0.00    +0.000 OA
ENDROOT
BRANCH   1  13
ATOM      6  C   UNL     1       5.598   2.656  11.878  0.00  0.00    +0.000 C 
ATOM      7  C   UNL     1       6.379   3.686  12.599  0.00  0.00    +0.000 A 
ATOM      8  N   UNL     1       7.189   4.499  11.911  0.00  0.00    +0.000 NA
ATOM      9  O   UNL     1       7.753   5.347  12.849  0.00  0.00    +0.000 OA
ATOM     10  C   UNL     1       7.280   5.042  14.088  0.00  0.00    +0.000 A 
ATOM     11  N   UNL     1       7.631   5.703  15.205  0.00  0.00    +0.000 NA
ATOM     12  C   UNL     1       6.993   5.241  16.307  0.00  0.00    +0.000 A 
ATOM     13  C   UNL     1       6.071   4.189  16.367  0.00  0.00    +0.000 A 
ATOM     14  C   UNL     1       5.776   3.513  15.172  0.00  0.00    +0.000 A 
ATOM     15  C   UNL     1       6.393   3.977  13.990  0.00  0.00    +0.000 A 
ENDBRANCH   1  13
BRANCH   4  16
ATOM     16  C   UNL     1       2.708   2.632  19.552  0.00  0.00    +0.000 C 
ATOM     17  C   UNL     1       2.794   2.445  21.070  0.00  0.00    +0.000 C 
BRANCH  16  18
ATOM     18  O   UNL     1       1.638   3.530  19.221  0.00  0.00    +0.000 OA
BRANCH  18  19
ATOM     19  C   UNL     1       1.878   4.880  19.206  0.00  0.00    +0.000 A 
ATOM     20  C   UNL     1       2.030   5.421  17.923  0.00  0.00    +0.000 A 
ATOM     21  C   UNL     1       2.262   6.790  17.744  0.00  0.00    +0.000 A 
ATOM     22  C   UNL     1       2.352   7.634  18.847  0.00  0.00    +0.000 A 
ATOM     23  C   UNL     1       2.221   7.105  20.128  0.00  0.00    +0.000 A 
ATOM     24  C   UNL     1       1.989   5.740  20.301  0.00  0.00    +0.000 A 
ATOM     25  F   UNL     1       1.876   5.297  21.561  0.00  0.00    +0.000 F 
ENDBRANCH  18  19
ENDBRANCH  16  18
ENDBRANCH   4  16
TORSDOF 4
ENDMDL
MODEL 6
REMARK VINA RESULT:      -8.1      4.269      9.173
REMARK  Name = 
REMARK  6 active torsions:
REMARK  status: ('A' for Active; 'I' for Inactive)
REMARK    1  A    between atoms: C_1  and  C_2
REMARK    2  A    between atoms: C_8  and  C_9
REMARK    3  A    between atoms: C_12  and  C_13
REMARK    4  A    between atoms: C_13  and  C_14
REMARK    5  A    between atoms: C_13  and  O_15
REMARK    6  A    between atoms: O_15  and  C_16
REMARK                            x       y       z     vdW  Elec       q    Type
REMARK                         _______ _______ _______ _____ _____    ______ ____
ROOT
ATOM      1  C   UNL     1       1.478   9.154  19.217  0.00  0.00    +0.000 A 
ATOM      2  N   UNL     1       1.601   9.592  17.981  0.00  0.00    +0.000 NA
ATOM      3  N   UNL     1       2.371   8.680  17.308  0.00  0.00    +0.000 NA
ATOM      4  C   UNL     1       2.664   7.725  18.167  0.00  0.00    +0.000 A 
ATOM      5  O   UNL     1       2.130   7.960  19.420  0.00  0.00    +0.000 OA
ENDROOT
BRANCH   1  13
ATOM      6  C   UNL     1      -2.751  12.969  20.790  0.00  0.00    +0.000 C 
ATOM      7  C   UNL     1      -1.935  12.110  21.678  0.00  0.00    +0.000 A 
ATOM      8  N   UNL     1      -2.174  12.111  22.995  0.00  0.00    +0.000 NA
ATOM      9  O   UNL     1      -1.276  11.206  23.538  0.00  0.00    +0.000 OA
ATOM     10  C   UNL     1      -0.510  10.670  22.550  0.00  0.00    +0.000 A 
ATOM     11  N   UNL     1       0.444   9.746  22.763  0.00  0.00    +0.000 NA
ATOM     12  C   UNL     1       1.038   9.335  21.616  0.00  0.00    +0.000 A 
ATOM     13  C   UNL     1       0.763   9.784  20.319  0.00  0.00    +0.000 A 
ATOM     14  C   UNL     1      -0.217  10.778  20.167  0.00  0.00    +0.000 A 
ATOM     15  C   UNL     1      -0.886  11.217  21.329  0.00  0.00    +0.000 A 
ENDBRANCH   1  13
BRANCH   4  16
ATOM     16  C   UNL     1       3.391   6.435  17.920  0.00  0.00    +0.000 C 
ATOM     17  C   UNL     1       4.743   6.733  17.262  0.00  0.00    +0.000 C 
BRANCH  16  18
ATOM     18  O   UNL     1       3.587   5.821  19.202  0.00  0.00    +0.000 OA
BRANCH  18  19
ATOM     19  C   UNL     1       2.947   4.642  19.485  0.00  0.00    +0.000 A 
ATOM     20  C   UNL     1       2.030   4.726  20.541  0.00  0.00    +0.000 A 
ATOM     21  C   UNL     1       1.285   3.609  20.936  0.00  0.00    +0.000 A 
ATOM     22  C   UNL     1       1.452   2.391  20.283  0.00  0.00    +0.000 A 
ATOM     23  C   UNL     1       2.373   2.290  19.244  0.00  0.00    +0.000 A 
ATOM     24  C   UNL     1       3.113   3.407  18.854  0.00  0.00    +0.000 A 
ATOM     25  F   UNL     1       3.983   3.239  17.849  0.00  0.00    +0.000 F 
ENDBRANCH  18  19
ENDBRANCH  16  18
ENDBRANCH   4  16
TORSDOF 4
ENDMDL
MODEL 7
REMARK VINA RESULT:      -8.1      4.187      9.012
REMARK  Name = 
REMARK  6 active torsions:
REMARK  status: ('A' for Active; 'I' for Inactive)
REMARK    1  A    between atoms: C_1  and  C_2
REMARK    2  A    between atoms: C_8  and  C_9
REMARK    3  A    between atoms: C_12  and  C_13
REMARK    4  A    between atoms: C_13  and  C_14
REMARK    5  A    between atoms: C_13  and  O_15
REMARK    6  A    between atoms: O_15  and  C_16
REMARK                            x       y       z     vdW  Elec       q    Type
REMARK                         _______ _______ _______ _____ _____    ______ ____
ROOT
ATOM      1  C   UNL     1       1.604   8.403  19.763  0.00  0.00    +0.000 A 
ATOM      2  N   UNL     1       1.885   8.606  18.493  0.00  0.00    +0.000 NA
ATOM      3  N   UNL     1       2.563   7.500  18.052  0.00  0.00    +0.000 NA
ATOM      4  C   UNL     1       2.646   6.674  19.074  0.00  0.00    +0.000 A 
ATOM      5  O   UNL     1       2.056   7.185  20.215  0.00  0.00    +0.000 OA
ENDROOT
BRANCH   1  13
ATOM      6  C   UNL     1      -2.329  12.780  20.306  0.00  0.00    +0.000 C 
ATOM      7  C   UNL     1      -1.627  12.058  21.392  0.00  0.00    +0.000 A 
ATOM      8  N   UNL     1      -1.915  12.346  22.667  0.00  0.00    +0.000 NA
ATOM      9  O   UNL     1      -1.122  11.503  23.428  0.00  0.00    +0.000 OA
ATOM     10  C   UNL     1      -0.369  10.718  22.611  0.00  0.00    +0.000 A 
ATOM     11  N   UNL     1       0.492   9.785  23.057  0.00  0.00    +0.000 NA
ATOM     12  C   UNL     1       1.091   9.104  22.050  0.00  0.00    +0.000 A 
ATOM     13  C   UNL     1       0.906   9.299  20.676  0.00  0.00    +0.000 A 
ATOM     14  C   UNL     1       0.024  10.315  20.275  0.00  0.00    +0.000 A 
ATOM     15  C   UNL     1      -0.648  11.033  21.287  0.00  0.00    +0.000 A 
ENDBRANCH   1  13
BRANCH   4  16
ATOM     16  C   UNL     1       3.193   5.276  19.106  0.00  0.00    +0.000 C 
ATOM     17  C   UNL     1       2.039   4.277  18.965  0.00  0.00    +0.000 C 
BRANCH  16  18
ATOM     18  O   UNL     1       4.090   5.161  17.991  0.00  0.00    +0.000 OA
BRANCH  18  19
ATOM     19  C   UNL     1       5.350   5.690  18.087  0.00  0.00    +0.000 A 
ATOM     20  C   UNL     1       6.062   5.273  19.219  0.00  0.00    +0.000 A 
ATOM     21  C   UNL     1       7.371   5.715  19.448  0.00  0.00    +0.000 A 
ATOM     22  C   UNL     1       7.981   6.586  18.550  0.00  0.00    +0.000 A 
ATOM     23  C   UNL     1       7.278   7.022  17.431  0.00  0.00    +0.000 A 
ATOM     24  C   UNL     1       5.974   6.577  17.207  0.00  0.00    +0.000 A 
ATOM     25  F   UNL     1       5.353   7.039  16.112  0.00  0.00    +0.000 F 
ENDBRANCH  18  19
ENDBRANCH  16  18
ENDBRANCH   4  16
TORSDOF 4
ENDMDL
MODEL 8
REMARK VINA RESULT:      -8.1      1.837      2.387
REMARK  Name = 
REMARK  6 active torsions:
REMARK  status: ('A' for Active; 'I' for Inactive)
REMARK    1  A    between atoms: C_1  and  C_2
REMARK    2  A    between atoms: C_8  and  C_9
REMARK    3  A    between atoms: C_12  and  C_13
REMARK    4  A    between atoms: C_13  and  C_14
REMARK    5  A    between atoms: C_13  and  O_15
REMARK    6  A    between atoms: O_15  and  C_16
REMARK                            x       y       z     vdW  Elec       q    Type
REMARK                         _______ _______ _______ _____ _____    ______ ____
ROOT
ATOM      1  C   UNL     1       5.491   3.961  17.690  0.00  0.00    +0.000 A 
ATOM      2  N   UNL     1       6.008   4.176  18.882  0.00  0.00    +0.000 NA
ATOM      3  N   UNL     1       5.065   3.795  19.801  0.00  0.00    +0.000 NA
ATOM      4  C   UNL     1       4.029   3.352  19.119  0.00  0.00    +0.000 A 
ATOM      5  O   UNL     1       4.223   3.432  17.752  0.00  0.00    +0.000 OA
ENDROOT
BRANCH   1  13
ATOM      6  C   UNL     1       5.546   2.651  11.928  0.00  0.00    +0.000 C 
ATOM      7  C   UNL     1       6.356   3.674  12.628  0.00  0.00    +0.000 A 
ATOM      8  N   UNL     1       7.172   4.464  11.922  0.00  0.00    +0.000 NA
ATOM      9  O   UNL     1       7.763   5.312  12.844  0.00  0.00    +0.000 OA
ATOM     10  C   UNL     1       7.298   5.029  14.091  0.00  0.00    +0.000 A 
ATOM     11  N   UNL     1       7.675   5.695  15.197  0.00  0.00    +0.000 NA
ATOM     12  C   UNL     1       7.042   5.258  16.312  0.00  0.00    +0.000 A 
ATOM     13  C   UNL     1       6.102   4.223  16.394  0.00  0.00    +0.000 A 
ATOM     14  C   UNL     1       5.780   3.540  15.210  0.00  0.00    +0.000 A 
ATOM     15  C   UNL     1       6.392   3.979  14.016  0.00  0.00    +0.000 A 
ENDBRANCH   1  13
BRANCH   4  16
ATOM     16  C   UNL     1       2.771   2.716  19.636  0.00  0.00    +0.000 C 
ATOM     17  C   UNL     1       2.845   2.615  21.163  0.00  0.00    +0.000 C 
BRANCH  16  18
ATOM     18  O   UNL     1       1.687   3.572  19.245  0.00  0.00    +0.000 OA
BRANCH  18  19
ATOM     19  C   UNL     1       1.802   4.925  19.432  0.00  0.00    +0.000 A 
ATOM     20  C   UNL     1       1.433   5.361  20.712  0.00  0.00    +0.000 A 
ATOM     21  C   UNL     1       1.513   6.714  21.061  0.00  0.00    +0.000 A 
ATOM     22  C   UNL     1       1.957   7.650  20.131  0.00  0.00    +0.000 A 
ATOM     23  C   UNL     1       2.309   7.232  18.851  0.00  0.00    +0.000 A 
ATOM     24  C   UNL     1       2.229   5.882  18.509  0.00  0.00    +0.000 A 
ATOM     25  F   UNL     1       2.580   5.549  17.259  0.00  0.00    +0.000 F 
ENDBRANCH  18  19
ENDBRANCH  16  18
ENDBRANCH   4  16
TORSDOF 4
ENDMDL
MODEL 9
REMARK VINA RESULT:      -8.1      3.862      6.228
REMARK  Name = 
REMARK  6 active torsions:
REMARK  status: ('A' for Active; 'I' for Inactive)
REMARK    1  A    between atoms: C_1  and  C_2
REMARK    2  A    between atoms: C_8  and  C_9
REMARK    3  A    between atoms: C_12  and  C_13
REMARK    4  A    between atoms: C_13  and  C_14
REMARK    5  A    between atoms: C_13  and  O_15
REMARK    6  A    between atoms: O_15  and  C_16
REMARK                            x       y       z     vdW  Elec       q    Type
REMARK                         _______ _______ _______ _____ _____    ______ ____
ROOT
ATOM      1  C   UNL     1       2.348   7.938  18.547  0.00  0.00    +0.000 A 
ATOM      2  N   UNL     1       2.509   8.658  17.455  0.00  0.00    +0.000 NA
ATOM      3  N   UNL     1       1.755   9.792  17.610  0.00  0.00    +0.000 NA
ATOM      4  C   UNL     1       1.188   9.711  18.797  0.00  0.00    +0.000 A 
ATOM      5  O   UNL     1       1.517   8.543  19.460  0.00  0.00    +0.000 OA
ENDROOT
BRANCH   1  13
ATOM      6  C   UNL     1       1.807   2.894  21.576  0.00  0.00    +0.000 C 
ATOM      7  C   UNL     1       2.859   3.249  20.596  0.00  0.00    +0.000 A 
ATOM      8  N   UNL     1       3.792   2.346  20.276  0.00  0.00    +0.000 NA
ATOM      9  O   UNL     1       4.604   2.963  19.338  0.00  0.00    +0.000 OA
ATOM     10  C   UNL     1       4.155   4.225  19.103  0.00  0.00    +0.000 A 
ATOM     11  N   UNL     1       4.728   5.070  18.227  0.00  0.00    +0.000 NA
ATOM     12  C   UNL     1       4.073   6.253  18.137  0.00  0.00    +0.000 A 
ATOM     13  C   UNL     1       2.933   6.639  18.851  0.00  0.00    +0.000 A 
ATOM     14  C   UNL     1       2.405   5.727  19.779  0.00  0.00    +0.000 A 
ATOM     15  C   UNL     1       3.035   4.468  19.888  0.00  0.00    +0.000 A 
ENDBRANCH   1  13
BRANCH   4  16
ATOM     16  C   UNL     1       0.351  10.736  19.506  0.00  0.00    +0.000 C 
ATOM     17  C   UNL     1       1.265  11.678  20.296  0.00  0.00    +0.000 C 
BRANCH  16  18
ATOM     18  O   UNL     1      -0.355  11.464  18.490  0.00  0.00    +0.000 OA
BRANCH  18  19
ATOM     19  C   UNL     1      -1.680  11.190  18.269  0.00  0.00    +0.000 A 
ATOM     20  C   UNL     1      -2.562  12.017  18.976  0.00  0.00    +0.000 A 
ATOM     21  C   UNL     1      -3.948  11.871  18.840  0.00  0.00    +0.000 A 
ATOM     22  C   UNL     1      -4.469  10.891  18.000  0.00  0.00    +0.000 A 
ATOM     23  C   UNL     1      -3.602  10.052  17.306  0.00  0.00    +0.000 A 
ATOM     24  C   UNL     1      -2.222  10.202  17.444  0.00  0.00    +0.000 A 
ATOM     25  F   UNL     1      -1.446   9.358  16.749  0.00  0.00    +0.000 F 
ENDBRANCH  18  19
ENDBRANCH  16  18
ENDBRANCH   4  16
TORSDOF 4
ENDMDL
