MODEL 1
REMARK VINA RESULT:      -9.5      0.000      0.000
REMARK  Name = 
REMARK  3 active torsions:
REMARK  status: ('A' for Active; 'I' for Inactive)
REMARK    1  A    between atoms: C_2  and  C_3
REMARK    2  A    between atoms: C_16  and  C_17
REMARK    3  A    between atoms: C_17  and  C_18
REMARK                            x       y       z     vdW  Elec       q    Type
REMARK                         _______ _______ _______ _____ _____    ______ ____
ROOT
ATOM      1  O   UNL     1       4.926   2.161  19.823  0.00  0.00    +0.000 OA
ATOM      2  C   UNL     1       4.421   3.258  19.562  0.00  0.00    +0.000 C 
ATOM      3  N   UNL     1       3.198   3.631  20.121  0.00  0.00    +0.000 N 
ATOM      4  C   UNL     1       2.549   2.704  21.039  0.00  0.00    +0.000 C 
ATOM      5  C   UNL     1       1.071   2.911  20.779  0.00  0.00    +0.000 C 
ATOM      6  C   UNL     1       0.985   4.414  20.577  0.00  0.00    +0.000 C 
ATOM      7  C   UNL     1       2.302   4.776  19.857  0.00  0.00    +0.000 C 
ENDROOT
BRANCH   2   8
ATOM      8  C   UNL     1       5.237   4.169  18.697  0.00  0.00    +0.000 A 
ATOM      9  C   UNL     1       6.148   5.120  19.170  0.00  0.00    +0.000 A 
ATOM     10  C   UNL     1       7.026   5.809  18.319  0.00  0.00    +0.000 A 
ATOM     11  C   UNL     1       6.861   5.584  16.958  0.00  0.00    +0.000 A 
ATOM     12  N   UNL     1       7.501   6.049  15.845  0.00  0.00    +0.000 N 
ATOM     13  N   UNL     1       6.946   5.581  14.717  0.00  0.00    +0.000 NA
ATOM     14  N   UNL     1       5.951   4.775  15.067  0.00  0.00    +0.000 NA
ATOM     15  C   UNL     1       5.889   4.744  16.434  0.00  0.00    +0.000 A 
ATOM     16  C   UNL     1       5.062   4.023  17.305  0.00  0.00    +0.000 A 
ATOM     17  H   UNL     1       8.298   6.671  15.777  0.00  0.00    +0.000 HD
ENDBRANCH   2   8
BRANCH   7  18
ATOM     18  C   UNL     1       2.835   6.136  20.353  0.00  0.00    +0.000 C 
BRANCH  18  19
ATOM     19  C   UNL     1       2.287   7.324  19.590  0.00  0.00    +0.000 A 
ATOM     20  C   UNL     1       2.582   7.535  18.231  0.00  0.00    +0.000 A 
ATOM     21  C   UNL     1       2.072   8.647  17.549  0.00  0.00    +0.000 A 
ATOM     22  C   UNL     1       1.271   9.565  18.218  0.00  0.00    +0.000 A 
ATOM     23  C   UNL     1       0.990   9.364  19.559  0.00  0.00    +0.000 A 
ATOM     24  F   UNL     1       0.224  10.250  20.213  0.00  0.00    +0.000 F 
ATOM     25  C   UNL     1       1.485   8.263  20.248  0.00  0.00    +0.000 A 
ENDBRANCH  18  19
ENDBRANCH   7  18
TORSDOF 3
ENDMDL
MODEL 2
REMARK VINA RESULT:      -9.2      0.982      1.623
REMARK  Name = 
REMARK  3 active torsions:
REMARK  status: ('A' for Active; 'I' for Inactive)
REMARK    1  A    between atoms: C_2  and  C_3
REMARK    2  A    between atoms: C_16  and  C_17
REMARK    3  A    between atoms: C_17  and  C_18
REMARK                            x       y       z     vdW  Elec       q    Type
REMARK                         _______ _______ _______ _____ _____    ______ ____
ROOT
ATOM      1  O   UNL     1       4.936   2.189  19.575  0.00  0.00    +0.000 OA
ATOM      2  C   UNL     1       4.383   3.278  19.398  0.00  0.00    +0.000 C 
ATOM      3  N   UNL     1       3.194   3.591  20.058  0.00  0.00    +0.000 N 
ATOM      4  C   UNL     1       2.639   2.607  20.978  0.00  0.00    +0.000 C 
ATOM      5  C   UNL     1       1.141   2.780  20.833  0.00  0.00    +0.000 C 
ATOM      6  C   UNL     1       0.998   4.286  20.703  0.00  0.00    +0.000 C 
ATOM      7  C   UNL     1       2.250   4.718  19.907  0.00  0.00    +0.000 C 
ENDROOT
BRANCH   2   8
ATOM      8  C   UNL     1       5.108   4.249  18.516  0.00  0.00    +0.000 A 
ATOM      9  C   UNL     1       4.789   4.510  17.178  0.00  0.00    +0.000 A 
ATOM     10  C   UNL     1       5.371   5.564  16.458  0.00  0.00    +0.000 A 
ATOM     11  C   UNL     1       6.376   6.269  17.110  0.00  0.00    +0.000 A 
ATOM     12  N   UNL     1       7.158   7.331  16.757  0.00  0.00    +0.000 N 
ATOM     13  N   UNL     1       8.044   7.639  17.716  0.00  0.00    +0.000 NA
ATOM     14  N   UNL     1       7.841   6.806  18.729  0.00  0.00    +0.000 NA
ATOM     15  C   UNL     1       6.813   5.969  18.392  0.00  0.00    +0.000 A 
ATOM     16  C   UNL     1       6.178   4.949  19.113  0.00  0.00    +0.000 A 
ATOM     17  H   UNL     1       7.148   7.880  15.906  0.00  0.00    +0.000 HD
ENDBRANCH   2   8
BRANCH   7  18
ATOM     18  C   UNL     1       2.779   6.072  20.421  0.00  0.00    +0.000 C 
BRANCH  18  19
ATOM     19  C   UNL     1       2.290   7.264  19.623  0.00  0.00    +0.000 A 
ATOM     20  C   UNL     1       2.621   7.436  18.268  0.00  0.00    +0.000 A 
ATOM     21  C   UNL     1       2.167   8.552  17.554  0.00  0.00    +0.000 A 
ATOM     22  C   UNL     1       1.387   9.512  18.187  0.00  0.00    +0.000 A 
ATOM     23  C   UNL     1       1.070   9.348  19.525  0.00  0.00    +0.000 A 
ATOM     24  F   UNL     1       0.324  10.275  20.146  0.00  0.00    +0.000 F 
ATOM     25  C   UNL     1       1.510   8.244  20.246  0.00  0.00    +0.000 A 
ENDBRANCH  18  19
ENDBRANCH   7  18
TORSDOF 3
ENDMDL
MODEL 3
REMARK VINA RESULT:      -8.9      0.812      1.296
REMARK  Name = 
REMARK  3 active torsions:
REMARK  status: ('A' for Active; 'I' for Inactive)
REMARK    1  A    between atoms: C_2  and  C_3
REMARK    2  A    between atoms: C_16  and  C_17
REMARK    3  A    between atoms: C_17  and  C_18
REMARK                            x       y       z     vdW  Elec       q    Type
REMARK                         _______ _______ _______ _____ _____    ______ ____
ROOT
ATOM      1  O   UNL     1       4.718   2.015  19.510  0.00  0.00    +0.000 OA
ATOM      2  C   UNL     1       4.303   3.158  19.294  0.00  0.00    +0.000 C 
ATOM      3  N   UNL     1       3.136   3.621  19.905  0.00  0.00    +0.000 N 
ATOM      4  C   UNL     1       2.439   2.729  20.821  0.00  0.00    +0.000 C 
ATOM      5  C   UNL     1       0.977   3.072  20.619  0.00  0.00    +0.000 C 
ATOM      6  C   UNL     1       1.017   4.581  20.457  0.00  0.00    +0.000 C 
ATOM      7  C   UNL     1       2.337   4.847  19.700  0.00  0.00    +0.000 C 
ENDROOT
BRANCH   2   8
ATOM      8  C   UNL     1       5.166   4.018  18.422  0.00  0.00    +0.000 A 
ATOM      9  C   UNL     1       6.135   4.914  18.889  0.00  0.00    +0.000 A 
ATOM     10  C   UNL     1       7.048   5.549  18.033  0.00  0.00    +0.000 A 
ATOM     11  C   UNL     1       6.863   5.331  16.673  0.00  0.00    +0.000 A 
ATOM     12  N   UNL     1       7.524   5.756  15.556  0.00  0.00    +0.000 N 
ATOM     13  N   UNL     1       6.937   5.319  14.432  0.00  0.00    +0.000 NA
ATOM     14  N   UNL     1       5.898   4.573  14.788  0.00  0.00    +0.000 NA
ATOM     15  C   UNL     1       5.841   4.549  16.155  0.00  0.00    +0.000 A 
ATOM     16  C   UNL     1       4.977   3.880  17.032  0.00  0.00    +0.000 A 
ATOM     17  H   UNL     1       8.356   6.329  15.483  0.00  0.00    +0.000 HD
ENDBRANCH   2   8
BRANCH   7  18
ATOM     18  C   UNL     1       3.003   6.141  20.209  0.00  0.00    +0.000 C 
BRANCH  18  19
ATOM     19  C   UNL     1       2.184   7.391  19.962  0.00  0.00    +0.000 A 
ATOM     20  C   UNL     1       1.362   7.949  20.957  0.00  0.00    +0.000 A 
ATOM     21  C   UNL     1       0.604   9.099  20.702  0.00  0.00    +0.000 A 
ATOM     22  C   UNL     1       0.652   9.698  19.450  0.00  0.00    +0.000 A 
ATOM     23  C   UNL     1       1.452   9.141  18.465  0.00  0.00    +0.000 A 
ATOM     24  F   UNL     1       1.496   9.710  17.250  0.00  0.00    +0.000 F 
ATOM     25  C   UNL     1       2.213   8.003  18.705  0.00  0.00    +0.000 A 
ENDBRANCH  18  19
ENDBRANCH   7  18
TORSDOF 3
ENDMDL
MODEL 4
REMARK VINA RESULT:      -8.9      1.637      2.258
REMARK  Name = 
REMARK  3 active torsions:
REMARK  status: ('A' for Active; 'I' for Inactive)
REMARK    1  A    between atoms: C_2  and  C_3
REMARK    2  A    between atoms: C_16  and  C_17
REMARK    3  A    between atoms: C_17  and  C_18
REMARK                            x       y       z     vdW  Elec       q    Type
REMARK                         _______ _______ _______ _____ _____    ______ ____
ROOT
ATOM      1  O   UNL     1       4.459   2.087  17.931  0.00  0.00    +0.000 OA
ATOM      2  C   UNL     1       4.000   3.209  18.164  0.00  0.00    +0.000 C 
ATOM      3  N   UNL     1       2.833   3.362  18.914  0.00  0.00    +0.000 N 
ATOM      4  C   UNL     1       2.187   2.163  19.432  0.00  0.00    +0.000 C 
ATOM      5  C   UNL     1       0.710   2.498  19.385  0.00  0.00    +0.000 C 
ATOM      6  C   UNL     1       0.694   3.958  19.804  0.00  0.00    +0.000 C 
ATOM      7  C   UNL     1       1.987   4.541  19.193  0.00  0.00    +0.000 C 
ENDROOT
BRANCH   2   8
ATOM      8  C   UNL     1       4.814   4.368  17.675  0.00  0.00    +0.000 A 
ATOM      9  C   UNL     1       4.527   5.124  16.532  0.00  0.00    +0.000 A 
ATOM     10  C   UNL     1       5.205   6.314  16.227  0.00  0.00    +0.000 A 
ATOM     11  C   UNL     1       6.266   6.644  17.062  0.00  0.00    +0.000 A 
ATOM     12  N   UNL     1       7.142   7.691  17.096  0.00  0.00    +0.000 N 
ATOM     13  N   UNL     1       8.048   7.552  18.077  0.00  0.00    +0.000 NA
ATOM     14  N   UNL     1       7.765   6.428  18.724  0.00  0.00    +0.000 NA
ATOM     15  C   UNL     1       6.667   5.863  18.135  0.00  0.00    +0.000 A 
ATOM     16  C   UNL     1       5.940   4.709  18.454  0.00  0.00    +0.000 A 
ATOM     17  H   UNL     1       7.186   8.510  16.503  0.00  0.00    +0.000 HD
ENDBRANCH   2   8
BRANCH   7  18
ATOM     18  C   UNL     1       2.620   5.574  20.147  0.00  0.00    +0.000 C 
BRANCH  18  19
ATOM     19  C   UNL     1       2.111   6.987  19.946  0.00  0.00    +0.000 A 
ATOM     20  C   UNL     1       1.415   7.675  20.955  0.00  0.00    +0.000 A 
ATOM     21  C   UNL     1       0.943   8.977  20.743  0.00  0.00    +0.000 A 
ATOM     22  C   UNL     1       1.153   9.601  19.519  0.00  0.00    +0.000 A 
ATOM     23  C   UNL     1       1.829   8.918  18.521  0.00  0.00    +0.000 A 
ATOM     24  F   UNL     1       2.028   9.511  17.334  0.00  0.00    +0.000 F 
ATOM     25  C   UNL     1       2.307   7.628  18.718  0.00  0.00    +0.000 A 
ENDBRANCH  18  19
ENDBRANCH   7  18
TORSDOF 3
ENDMDL
MODEL 5
REMARK VINA RESULT:      -8.7      0.834      1.004
REMARK  Name = 
REMARK  3 active torsions:
REMARK  status: ('A' for Active; 'I' for Inactive)
REMARK    1  A    between atoms: C_2  and  C_3
REMARK    2  A    between atoms: C_16  and  C_17
REMARK    3  A    between atoms: C_17  and  C_18
REMARK                            x       y       z     vdW  Elec       q    Type
REMARK                         _______ _______ _______ _____ _____    ______ ____
ROOT
ATOM      1  O   UNL     1       4.857   2.415  19.898  0.00  0.00    +0.000 OA
ATOM      2  C   UNL     1       4.411   3.485  19.473  0.00  0.00    +0.000 C 
ATOM      3  N   UNL     1       3.215   4.008  19.968  0.00  0.00    +0.000 N 
ATOM      4  C   UNL     1       2.524   3.268  21.015  0.00  0.00    +0.000 C 
ATOM      5  C   UNL     1       1.057   3.516  20.726  0.00  0.00    +0.000 C 
ATOM      6  C   UNL     1       1.052   4.974  20.299  0.00  0.00    +0.000 C 
ATOM      7  C   UNL     1       2.382   5.148  19.532  0.00  0.00    +0.000 C 
ENDROOT
BRANCH   2   8
ATOM      8  C   UNL     1       5.269   4.208  18.479  0.00  0.00    +0.000 A 
ATOM      9  C   UNL     1       6.334   5.055  18.806  0.00  0.00    +0.000 A 
ATOM     10  C   UNL     1       7.225   5.550  17.841  0.00  0.00    +0.000 A 
ATOM     11  C   UNL     1       6.923   5.249  16.519  0.00  0.00    +0.000 A 
ATOM     12  N   UNL     1       7.528   5.538  15.329  0.00  0.00    +0.000 N 
ATOM     13  N   UNL     1       6.827   5.069  14.285  0.00  0.00    +0.000 NA
ATOM     14  N   UNL     1       5.765   4.437  14.771  0.00  0.00    +0.000 NA
ATOM     15  C   UNL     1       5.809   4.517  16.136  0.00  0.00    +0.000 A 
ATOM     16  C   UNL     1       4.966   3.985  17.120  0.00  0.00    +0.000 A 
ATOM     17  H   UNL     1       8.392   6.035  15.153  0.00  0.00    +0.000 HD
ENDBRANCH   2   8
BRANCH   7  18
ATOM     18  C   UNL     1       2.994   6.535  19.815  0.00  0.00    +0.000 C 
BRANCH  18  19
ATOM     19  C   UNL     1       1.977   7.657  19.853  0.00  0.00    +0.000 A 
ATOM     20  C   UNL     1       1.745   8.488  18.743  0.00  0.00    +0.000 A 
ATOM     21  C   UNL     1       0.808   9.526  18.805  0.00  0.00    +0.000 A 
ATOM     22  C   UNL     1       0.099   9.753  19.978  0.00  0.00    +0.000 A 
ATOM     23  C   UNL     1       0.335   8.942  21.076  0.00  0.00    +0.000 A 
ATOM     24  F   UNL     1      -0.340   9.160  22.215  0.00  0.00    +0.000 F 
ATOM     25  C   UNL     1       1.259   7.904  21.028  0.00  0.00    +0.000 A 
ENDBRANCH  18  19
ENDBRANCH   7  18
TORSDOF 3
ENDMDL
MODEL 6
REMARK VINA RESULT:      -8.6      1.230      1.573
REMARK  Name = 
REMARK  3 active torsions:
REMARK  status: ('A' for Active; 'I' for Inactive)
REMARK    1  A    between atoms: C_2  and  C_3
REMARK    2  A    between atoms: C_16  and  C_17
REMARK    3  A    between atoms: C_17  and  C_18
REMARK                            x       y       z     vdW  Elec       q    Type
REMARK                         _______ _______ _______ _____ _____    ______ ____
ROOT
ATOM      1  O   UNL     1       4.957   2.010  19.908  0.00  0.00    +0.000 OA
ATOM      2  C   UNL     1       4.399   3.087  19.677  0.00  0.00    +0.000 C 
ATOM      3  N   UNL     1       3.164   3.389  20.253  0.00  0.00    +0.000 N 
ATOM      4  C   UNL     1       2.565   2.410  21.150  0.00  0.00    +0.000 C 
ATOM      5  C   UNL     1       1.077   2.554  20.903  0.00  0.00    +0.000 C 
ATOM      6  C   UNL     1       0.920   4.056  20.741  0.00  0.00    +0.000 C 
ATOM      7  C   UNL     1       2.214   4.498  20.023  0.00  0.00    +0.000 C 
ENDROOT
BRANCH   2   8
ATOM      8  C   UNL     1       5.166   4.057  18.831  0.00  0.00    +0.000 A 
ATOM      9  C   UNL     1       6.049   5.026  19.322  0.00  0.00    +0.000 A 
ATOM     10  C   UNL     1       6.886   5.776  18.482  0.00  0.00    +0.000 A 
ATOM     11  C   UNL     1       6.707   5.590  17.116  0.00  0.00    +0.000 A 
ATOM     12  N   UNL     1       7.311   6.116  16.010  0.00  0.00    +0.000 N 
ATOM     13  N   UNL     1       6.755   5.665  14.875  0.00  0.00    +0.000 NA
ATOM     14  N   UNL     1       5.797   4.810  15.213  0.00  0.00    +0.000 NA
ATOM     15  C   UNL     1       5.759   4.732  16.579  0.00  0.00    +0.000 A 
ATOM     16  C   UNL     1       4.974   3.951  17.438  0.00  0.00    +0.000 A 
ATOM     17  H   UNL     1       8.082   6.769  15.950  0.00  0.00    +0.000 HD
ENDBRANCH   2   8
BRANCH   7  18
ATOM     18  C   UNL     1       2.686   5.868  20.549  0.00  0.00    +0.000 C 
BRANCH  18  19
ATOM     19  C   UNL     1       2.482   7.005  19.569  0.00  0.00    +0.000 A 
ATOM     20  C   UNL     1       1.646   8.097  19.862  0.00  0.00    +0.000 A 
ATOM     21  C   UNL     1       1.464   9.131  18.936  0.00  0.00    +0.000 A 
ATOM     22  C   UNL     1       2.105   9.082  17.704  0.00  0.00    +0.000 A 
ATOM     23  C   UNL     1       2.919   8.000  17.410  0.00  0.00    +0.000 A 
ATOM     24  F   UNL     1       3.535   7.941  16.220  0.00  0.00    +0.000 F 
ATOM     25  C   UNL     1       3.114   6.968  18.322  0.00  0.00    +0.000 A 
ENDBRANCH  18  19
ENDBRANCH   7  18
TORSDOF 3
ENDMDL
MODEL 7
REMARK VINA RESULT:      -8.4      1.659      5.116
REMARK  Name = 
REMARK  3 active torsions:
REMARK  status: ('A' for Active; 'I' for Inactive)
REMARK    1  A    between atoms: C_2  and  C_3
REMARK    2  A    between atoms: C_16  and  C_17
REMARK    3  A    between atoms: C_17  and  C_18
REMARK                            x       y       z     vdW  Elec       q    Type
REMARK                         _______ _______ _______ _____ _____    ______ ____
ROOT
ATOM      1  O   UNL     1       5.234   2.898  16.955  0.00  0.00    +0.000 OA
ATOM      2  C   UNL     1       4.714   3.918  17.418  0.00  0.00    +0.000 C 
ATOM      3  N   UNL     1       5.204   5.182  17.088  0.00  0.00    +0.000 N 
ATOM      4  C   UNL     1       6.327   5.264  16.163  0.00  0.00    +0.000 C 
ATOM      5  C   UNL     1       7.113   6.464  16.653  0.00  0.00    +0.000 C 
ATOM      6  C   UNL     1       6.012   7.433  17.049  0.00  0.00    +0.000 C 
ATOM      7  C   UNL     1       4.896   6.528  17.615  0.00  0.00    +0.000 C 
ENDROOT
BRANCH   2   8
ATOM      8  C   UNL     1       3.497   3.709  18.267  0.00  0.00    +0.000 A 
ATOM      9  C   UNL     1       2.182   3.679  17.788  0.00  0.00    +0.000 A 
ATOM     10  C   UNL     1       1.098   3.288  18.589  0.00  0.00    +0.000 A 
ATOM     11  C   UNL     1       1.384   3.043  19.926  0.00  0.00    +0.000 A 
ATOM     12  N   UNL     1       0.625   2.651  20.992  0.00  0.00    +0.000 N 
ATOM     13  N   UNL     1       1.343   2.595  22.123  0.00  0.00    +0.000 NA
ATOM     14  N   UNL     1       2.594   2.918  21.818  0.00  0.00    +0.000 NA
ATOM     15  C   UNL     1       2.650   3.179  20.476  0.00  0.00    +0.000 A 
ATOM     16  C   UNL     1       3.727   3.516  19.645  0.00  0.00    +0.000 A 
ATOM     17  H   UNL     1      -0.359   2.413  21.025  0.00  0.00    +0.000 HD
ENDBRANCH   2   8
BRANCH   7  18
ATOM     18  C   UNL     1       3.506   7.069  17.223  0.00  0.00    +0.000 C 
BRANCH  18  19
ATOM     19  C   UNL     1       2.698   7.590  18.393  0.00  0.00    +0.000 A 
ATOM     20  C   UNL     1       2.568   6.862  19.588  0.00  0.00    +0.000 A 
ATOM     21  C   UNL     1       1.805   7.359  20.653  0.00  0.00    +0.000 A 
ATOM     22  C   UNL     1       1.158   8.582  20.533  0.00  0.00    +0.000 A 
ATOM     23  C   UNL     1       1.277   9.294  19.350  0.00  0.00    +0.000 A 
ATOM     24  F   UNL     1       0.648  10.473  19.223  0.00  0.00    +0.000 F 
ATOM     25  C   UNL     1       2.033   8.817  18.286  0.00  0.00    +0.000 A 
ENDBRANCH  18  19
ENDBRANCH   7  18
TORSDOF 3
ENDMDL
MODEL 8
REMARK VINA RESULT:      -8.2      1.002      1.941
REMARK  Name = 
REMARK  3 active torsions:
REMARK  status: ('A' for Active; 'I' for Inactive)
REMARK    1  A    between atoms: C_2  and  C_3
REMARK    2  A    between atoms: C_16  and  C_17
REMARK    3  A    between atoms: C_17  and  C_18
REMARK                            x       y       z     vdW  Elec       q    Type
REMARK                         _______ _______ _______ _____ _____    ______ ____
ROOT
ATOM      1  O   UNL     1       4.833   2.201  19.971  0.00  0.00    +0.000 OA
ATOM      2  C   UNL     1       4.382   3.275  19.560  0.00  0.00    +0.000 C 
ATOM      3  N   UNL     1       3.225   3.823  20.115  0.00  0.00    +0.000 N 
ATOM      4  C   UNL     1       2.580   3.105  21.207  0.00  0.00    +0.000 C 
ATOM      5  C   UNL     1       1.104   3.376  20.997  0.00  0.00    +0.000 C 
ATOM      6  C   UNL     1       1.100   4.829  20.554  0.00  0.00    +0.000 C 
ATOM      7  C   UNL     1       2.388   4.973  19.714  0.00  0.00    +0.000 C 
ENDROOT
BRANCH   2   8
ATOM      8  C   UNL     1       5.196   3.973  18.512  0.00  0.00    +0.000 A 
ATOM      9  C   UNL     1       5.109   3.729  17.136  0.00  0.00    +0.000 A 
ATOM     10  C   UNL     1       5.748   4.542  16.187  0.00  0.00    +0.000 A 
ATOM     11  C   UNL     1       6.573   5.539  16.692  0.00  0.00    +0.000 A 
ATOM     12  N   UNL     1       7.341   6.507  16.110  0.00  0.00    +0.000 N 
ATOM     13  N   UNL     1       8.019   7.222  17.020  0.00  0.00    +0.000 NA
ATOM     14  N   UNL     1       7.685   6.760  18.219  0.00  0.00    +0.000 NA
ATOM     15  C   UNL     1       6.788   5.741  18.048  0.00  0.00    +0.000 A 
ATOM     16  C   UNL     1       6.095   4.954  18.977  0.00  0.00    +0.000 A 
ATOM     17  H   UNL     1       7.453   6.732  15.129  0.00  0.00    +0.000 HD
ENDBRANCH   2   8
BRANCH   7  18
ATOM     18  C   UNL     1       3.037   6.352  19.947  0.00  0.00    +0.000 C 
BRANCH  18  19
ATOM     19  C   UNL     1       2.053   7.503  19.934  0.00  0.00    +0.000 A 
ATOM     20  C   UNL     1       1.211   7.773  21.028  0.00  0.00    +0.000 A 
ATOM     21  C   UNL     1       0.300   8.837  20.988  0.00  0.00    +0.000 A 
ATOM     22  C   UNL     1       0.213   9.635  19.854  0.00  0.00    +0.000 A 
ATOM     23  C   UNL     1       1.033   9.361  18.772  0.00  0.00    +0.000 A 
ATOM     24  F   UNL     1       0.949  10.122  17.670  0.00  0.00    +0.000 F 
ATOM     25  C   UNL     1       1.945   8.312  18.798  0.00  0.00    +0.000 A 
ENDBRANCH  18  19
ENDBRANCH   7  18
TORSDOF 3
ENDMDL
MODEL 9
REMARK VINA RESULT:      -8.1      1.839      5.107
REMARK  Name = 
REMARK  3 active torsions:
REMARK  status: ('A' for Active; 'I' for Inactive)
REMARK    1  A    between atoms: C_2  and  C_3
REMARK    2  A    between atoms: C_16  and  C_17
REMARK    3  A    between atoms: C_17  and  C_18
REMARK                            x       y       z     vdW  Elec       q    Type
REMARK                         _______ _______ _______ _____ _____    ______ ____
ROOT
ATOM      1  O   UNL     1       5.599   3.149  17.038  0.00  0.00    +0.000 OA
ATOM      2  C   UNL     1       4.994   4.156  17.417  0.00  0.00    +0.000 C 
ATOM      3  N   UNL     1       5.478   5.432  17.127  0.00  0.00    +0.000 N 
ATOM      4  C   UNL     1       6.702   5.541  16.344  0.00  0.00    +0.000 C 
ATOM      5  C   UNL     1       7.383   6.774  16.905  0.00  0.00    +0.000 C 
ATOM      6  C   UNL     1       6.211   7.709  17.148  0.00  0.00    +0.000 C 
ATOM      7  C   UNL     1       5.064   6.773  17.590  0.00  0.00    +0.000 C 
ENDROOT
BRANCH   2   8
ATOM      8  C   UNL     1       3.689   3.916  18.115  0.00  0.00    +0.000 A 
ATOM      9  C   UNL     1       2.444   3.839  17.481  0.00  0.00    +0.000 A 
ATOM     10  C   UNL     1       1.283   3.421  18.150  0.00  0.00    +0.000 A 
ATOM     11  C   UNL     1       1.412   3.198  19.516  0.00  0.00    +0.000 A 
ATOM     12  N   UNL     1       0.542   2.792  20.487  0.00  0.00    +0.000 N 
ATOM     13  N   UNL     1       1.119   2.770  21.698  0.00  0.00    +0.000 NA
ATOM     14  N   UNL     1       2.388   3.130  21.541  0.00  0.00    +0.000 NA
ATOM     15  C   UNL     1       2.598   3.380  20.212  0.00  0.00    +0.000 A 
ATOM     16  C   UNL     1       3.756   3.743  19.513  0.00  0.00    +0.000 A 
ATOM     17  H   UNL     1      -0.431   2.523  20.404  0.00  0.00    +0.000 HD
ENDBRANCH   2   8
BRANCH   7  18
ATOM     18  C   UNL     1       3.716   7.261  17.022  0.00  0.00    +0.000 C 
BRANCH  18  19
ATOM     19  C   UNL     1       2.791   7.855  18.064  0.00  0.00    +0.000 A 
ATOM     20  C   UNL     1       2.160   9.097  17.874  0.00  0.00    +0.000 A 
ATOM     21  C   UNL     1       1.317   9.632  18.857  0.00  0.00    +0.000 A 
ATOM     22  C   UNL     1       1.104   8.939  20.042  0.00  0.00    +0.000 A 
ATOM     23  C   UNL     1       1.736   7.721  20.234  0.00  0.00    +0.000 A 
ATOM     24  F   UNL     1       1.541   7.050  21.380  0.00  0.00    +0.000 F 
ATOM     25  C   UNL     1       2.571   7.175  19.266  0.00  0.00    +0.000 A 
ENDBRANCH  18  19
ENDBRANCH   7  18
TORSDOF 3
ENDMDL
