MODEL 1
REMARK VINA RESULT:      -9.0      0.000      0.000
REMARK  Name = 
REMARK  6 active torsions:
REMARK  status: ('A' for Active; 'I' for Inactive)
REMARK    1  A    between atoms: C_1  and  C_2
REMARK    2  A    between atoms: C_6  and  C_7
REMARK    3  A    between atoms: C_10  and  C_11
REMARK    4  A    between atoms: C_11  and  C_12
REMARK    5  A    between atoms: C_11  and  N_13
REMARK    6  A    between atoms: N_13  and  C_14
REMARK                            x       y       z     vdW  Elec       q    Type
REMARK                         _______ _______ _______ _____ _____    ______ ____
ROOT
ATOM      1  C   UNL     1       1.540   7.926  19.672  0.00  0.00    +0.000 C 
ATOM      2  C   UNL     1       1.956   8.736  18.437  0.00  0.00    +0.000 C 
ENDROOT
BRANCH   1   6
ATOM      3  C   UNL     1       0.254  10.381  21.956  0.00  0.00    +0.000 A 
ATOM      4  N   UNL     1       0.979   9.654  22.832  0.00  0.00    +0.000 NA
ATOM      5  N   UNL     1       1.509   8.709  22.039  0.00  0.00    +0.000 N 
ATOM      6  C   UNL     1       1.102   8.854  20.753  0.00  0.00    +0.000 A 
ATOM      7  N   UNL     1       0.328   9.914  20.666  0.00  0.00    +0.000 NA
ATOM      8  H   UNL     1       2.147   8.018  22.421  0.00  0.00    +0.000 HD
BRANCH   3  14
ATOM      9  C   UNL     1      -3.757  12.426  24.064  0.00  0.00    +0.000 C 
ATOM     10  C   UNL     1      -2.453  12.580  23.344  0.00  0.00    +0.000 A 
ATOM     11  C   UNL     1      -1.899  13.829  23.071  0.00  0.00    +0.000 A 
ATOM     12  C   UNL     1      -0.673  13.883  22.425  0.00  0.00    +0.000 A 
ATOM     13  N   UNL     1       0.027  12.791  22.052  0.00  0.00    +0.000 NA
ATOM     14  C   UNL     1      -0.518  11.578  22.321  0.00  0.00    +0.000 A 
ATOM     15  C   UNL     1      -1.754  11.439  22.952  0.00  0.00    +0.000 A 
ENDBRANCH   3  14
ENDBRANCH   1   6
BRANCH   1  16
ATOM     16  N   UNL     1       2.648   7.048  20.068  0.00  0.00    +0.000 N 
ATOM     17  H   UNL     1       3.075   7.312  20.949  0.00  0.00    +0.000 HD
BRANCH  16  18
ATOM     18  C   UNL     1       2.455   5.672  19.946  0.00  0.00    +0.000 A 
ATOM     19  N   UNL     1       1.589   5.062  20.800  0.00  0.00    +0.000 NA
ATOM     20  C   UNL     1       1.273   3.777  20.610  0.00  0.00    +0.000 A 
ATOM     21  N   UNL     1       1.709   2.971  19.650  0.00  0.00    +0.000 NA
ATOM     22  C   UNL     1       2.584   3.576  18.833  0.00  0.00    +0.000 A 
ATOM     23  S   UNL     1       3.199   2.726  17.493  0.00  0.00    +0.000 S 
ATOM     24  C   UNL     1       4.134   4.052  17.009  0.00  0.00    +0.000 A 
ATOM     25  C   UNL     1       4.047   5.120  17.892  0.00  0.00    +0.000 A 
ATOM     26  C   UNL     1       3.053   4.885  18.925  0.00  0.00    +0.000 A 
ATOM     27  C   UNL     1       4.929   6.319  17.698  0.00  0.00    +0.000 C 
ATOM     28  C   UNL     1       5.324   6.489  16.224  0.00  0.00    +0.000 C 
ATOM     29  C   UNL     1       5.910   5.191  15.654  0.00  0.00    +0.000 C 
ATOM     30  C   UNL     1       4.915   4.026  15.729  0.00  0.00    +0.000 C 
ENDBRANCH  16  18
ENDBRANCH   1  16
TORSDOF 4
ENDMDL
MODEL 2
REMARK VINA RESULT:      -8.6      0.856      1.309
REMARK  Name = 
REMARK  6 active torsions:
REMARK  status: ('A' for Active; 'I' for Inactive)
REMARK    1  A    between atoms: C_1  and  C_2
REMARK    2  A    between atoms: C_6  and  C_7
REMARK    3  A    between atoms: C_10  and  C_11
REMARK    4  A    between atoms: C_11  and  C_12
REMARK    5  A    between atoms: C_11  and  N_13
REMARK    6  A    between atoms: N_13  and  C_14
REMARK                            x       y       z     vdW  Elec       q    Type
REMARK                         _______ _______ _______ _____ _____    ______ ____
ROOT
ATOM      1  C   UNL     1       1.713   7.557  19.737  0.00  0.00    +0.000 C 
ATOM      2  C   UNL     1       2.160   8.304  18.474  0.00  0.00    +0.000 C 
ENDROOT
BRANCH   1   6
ATOM      3  C   UNL     1       0.182  10.046  21.824  0.00  0.00    +0.000 A 
ATOM      4  N   UNL     1       1.075   9.563  22.713  0.00  0.00    +0.000 NA
ATOM      5  N   UNL     1       1.705   8.622  21.992  0.00  0.00    +0.000 N 
ATOM      6  C   UNL     1       1.196   8.533  20.737  0.00  0.00    +0.000 A 
ATOM      7  N   UNL     1       0.249   9.435  20.595  0.00  0.00    +0.000 NA
ATOM      8  H   UNL     1       2.474   8.096  22.395  0.00  0.00    +0.000 HD
BRANCH   3  14
ATOM      9  C   UNL     1      -1.799  14.439  20.605  0.00  0.00    +0.000 C 
ATOM     10  C   UNL     1      -1.729  13.264  21.530  0.00  0.00    +0.000 A 
ATOM     11  C   UNL     1      -2.580  13.128  22.625  0.00  0.00    +0.000 A 
ATOM     12  C   UNL     1      -2.467  11.994  23.415  0.00  0.00    +0.000 A 
ATOM     13  N   UNL     1      -1.583  11.001  23.181  0.00  0.00    +0.000 NA
ATOM     14  C   UNL     1      -0.757  11.140  22.113  0.00  0.00    +0.000 A 
ATOM     15  C   UNL     1      -0.796  12.257  21.280  0.00  0.00    +0.000 A 
ENDBRANCH   3  14
ENDBRANCH   1   6
BRANCH   1  16
ATOM     16  N   UNL     1       2.829   6.744  20.236  0.00  0.00    +0.000 N 
ATOM     17  H   UNL     1       3.166   7.039  21.147  0.00  0.00    +0.000 HD
BRANCH  16  18
ATOM     18  C   UNL     1       2.722   5.358  20.118  0.00  0.00    +0.000 A 
ATOM     19  N   UNL     1       1.956   4.690  21.022  0.00  0.00    +0.000 NA
ATOM     20  C   UNL     1       1.714   3.387  20.845  0.00  0.00    +0.000 A 
ATOM     21  N   UNL     1       2.140   2.614  19.852  0.00  0.00    +0.000 NA
ATOM     22  C   UNL     1       2.918   3.279  18.985  0.00  0.00    +0.000 A 
ATOM     23  S   UNL     1       3.499   2.475  17.602  0.00  0.00    +0.000 S 
ATOM     24  C   UNL     1       4.310   3.862  17.068  0.00  0.00    +0.000 A 
ATOM     25  C   UNL     1       4.210   4.920  17.961  0.00  0.00    +0.000 A 
ATOM     26  C   UNL     1       3.303   4.616  19.055  0.00  0.00    +0.000 A 
ATOM     27  C   UNL     1       4.995   6.176  17.719  0.00  0.00    +0.000 C 
ATOM     28  C   UNL     1       5.281   6.376  16.223  0.00  0.00    +0.000 C 
ATOM     29  C   UNL     1       5.914   5.121  15.608  0.00  0.00    +0.000 C 
ATOM     30  C   UNL     1       5.006   3.892  15.739  0.00  0.00    +0.000 C 
ENDBRANCH  16  18
ENDBRANCH   1  16
TORSDOF 4
ENDMDL
MODEL 3
REMARK VINA RESULT:      -8.4      7.309     11.224
REMARK  Name = 
REMARK  6 active torsions:
REMARK  status: ('A' for Active; 'I' for Inactive)
REMARK    1  A    between atoms: C_1  and  C_2
REMARK    2  A    between atoms: C_6  and  C_7
REMARK    3  A    between atoms: C_10  and  C_11
REMARK    4  A    between atoms: C_11  and  C_12
REMARK    5  A    between atoms: C_11  and  N_13
REMARK    6  A    between atoms: N_13  and  C_14
REMARK                            x       y       z     vdW  Elec       q    Type
REMARK                         _______ _______ _______ _____ _____    ______ ____
ROOT
ATOM      1  C   UNL     1       8.987  10.064  18.254  0.00  0.00    +0.000 C 
ATOM      2  C   UNL     1       7.885  11.075  17.912  0.00  0.00    +0.000 C 
ENDROOT
BRANCH   1   6
ATOM      3  C   UNL     1       7.535   6.853  17.562  0.00  0.00    +0.000 A 
ATOM      4  N   UNL     1       8.043   6.584  18.783  0.00  0.00    +0.000 NA
ATOM      5  N   UNL     1       8.600   7.758  19.119  0.00  0.00    +0.000 N 
ATOM      6  C   UNL     1       8.449   8.680  18.135  0.00  0.00    +0.000 A 
ATOM      7  N   UNL     1       7.761   8.145  17.150  0.00  0.00    +0.000 NA
ATOM      8  H   UNL     1       9.042   7.875  20.026  0.00  0.00    +0.000 HD
BRANCH   3  14
ATOM      9  C   UNL     1       3.637   3.816  17.024  0.00  0.00    +0.000 C 
ATOM     10  C   UNL     1       4.895   4.416  16.477  0.00  0.00    +0.000 A 
ATOM     11  C   UNL     1       5.344   4.148  15.185  0.00  0.00    +0.000 A 
ATOM     12  C   UNL     1       6.505   4.768  14.746  0.00  0.00    +0.000 A 
ATOM     13  N   UNL     1       7.225   5.629  15.495  0.00  0.00    +0.000 NA
ATOM     14  C   UNL     1       6.781   5.885  16.752  0.00  0.00    +0.000 A 
ATOM     15  C   UNL     1       5.634   5.290  17.274  0.00  0.00    +0.000 A 
ENDBRANCH   3  14
ENDBRANCH   1   6
BRANCH   1  16
ATOM     16  N   UNL     1       9.524  10.370  19.586  0.00  0.00    +0.000 N 
ATOM     17  H   UNL     1       9.919   9.562  20.056  0.00  0.00    +0.000 HD
BRANCH  16  18
ATOM     18  C   UNL     1      10.311  11.515  19.717  0.00  0.00    +0.000 A 
ATOM     19  N   UNL     1      11.324  11.708  18.830  0.00  0.00    +0.000 NA
ATOM     20  C   UNL     1      11.996  12.864  18.839  0.00  0.00    +0.000 A 
ATOM     21  N   UNL     1      11.797  13.907  19.635  0.00  0.00    +0.000 NA
ATOM     22  C   UNL     1      10.815  13.693  20.523  0.00  0.00    +0.000 A 
ATOM     23  S   UNL     1      10.361  14.945  21.582  0.00  0.00    +0.000 S 
ATOM     24  C   UNL     1       9.170  13.980  22.304  0.00  0.00    +0.000 A 
ATOM     25  C   UNL     1       9.154  12.685  21.803  0.00  0.00    +0.000 A 
ATOM     26  C   UNL     1      10.059  12.532  20.676  0.00  0.00    +0.000 A 
ATOM     27  C   UNL     1       8.266  11.654  22.435  0.00  0.00    +0.000 C 
ATOM     28  C   UNL     1       7.044  12.302  23.102  0.00  0.00    +0.000 C 
ATOM     29  C   UNL     1       7.465  13.427  24.057  0.00  0.00    +0.000 C 
ATOM     30  C   UNL     1       8.237  14.539  23.336  0.00  0.00    +0.000 C 
ENDBRANCH  16  18
ENDBRANCH   1  16
TORSDOF 4
ENDMDL
MODEL 4
REMARK VINA RESULT:      -8.3      0.878      1.056
REMARK  Name = 
REMARK  6 active torsions:
REMARK  status: ('A' for Active; 'I' for Inactive)
REMARK    1  A    between atoms: C_1  and  C_2
REMARK    2  A    between atoms: C_6  and  C_7
REMARK    3  A    between atoms: C_10  and  C_11
REMARK    4  A    between atoms: C_11  and  C_12
REMARK    5  A    between atoms: C_11  and  N_13
REMARK    6  A    between atoms: N_13  and  C_14
REMARK                            x       y       z     vdW  Elec       q    Type
REMARK                         _______ _______ _______ _____ _____    ______ ____
ROOT
ATOM      1  C   UNL     1       1.539   7.985  19.451  0.00  0.00    +0.000 C 
ATOM      2  C   UNL     1       2.099   8.694  18.212  0.00  0.00    +0.000 C 
ENDROOT
BRANCH   1   6
ATOM      3  C   UNL     1      -0.057  10.573  21.362  0.00  0.00    +0.000 A 
ATOM      4  N   UNL     1       0.684  10.025  22.348  0.00  0.00    +0.000 NA
ATOM      5  N   UNL     1       1.329   9.043  21.699  0.00  0.00    +0.000 N 
ATOM      6  C   UNL     1       0.973   8.994  20.390  0.00  0.00    +0.000 A 
ATOM      7  N   UNL     1       0.117   9.961  20.143  0.00  0.00    +0.000 NA
ATOM      8  H   UNL     1       2.004   8.463  22.188  0.00  0.00    +0.000 HD
BRANCH   3  14
ATOM      9  C   UNL     1      -1.534  14.462  24.082  0.00  0.00    +0.000 C 
ATOM     10  C   UNL     1      -1.664  13.621  22.851  0.00  0.00    +0.000 A 
ATOM     11  C   UNL     1      -2.551  13.940  21.824  0.00  0.00    +0.000 A 
ATOM     12  C   UNL     1      -2.588  13.123  20.704  0.00  0.00    +0.000 A 
ATOM     13  N   UNL     1      -1.805  12.035  20.541  0.00  0.00    +0.000 NA
ATOM     14  C   UNL     1      -0.944  11.731  21.545  0.00  0.00    +0.000 A 
ATOM     15  C   UNL     1      -0.858  12.492  22.711  0.00  0.00    +0.000 A 
ENDBRANCH   3  14
ENDBRANCH   1   6
BRANCH   1  16
ATOM     16  N   UNL     1       2.592   7.155  20.048  0.00  0.00    +0.000 N 
ATOM     17  H   UNL     1       2.881   7.472  20.968  0.00  0.00    +0.000 HD
BRANCH  16  18
ATOM     18  C   UNL     1       2.444   5.769  19.971  0.00  0.00    +0.000 A 
ATOM     19  N   UNL     1       1.603   5.159  20.850  0.00  0.00    +0.000 NA
ATOM     20  C   UNL     1       1.328   3.859  20.703  0.00  0.00    +0.000 A 
ATOM     21  N   UNL     1       1.784   3.038  19.765  0.00  0.00    +0.000 NA
ATOM     22  C   UNL     1       2.634   3.645  18.923  0.00  0.00    +0.000 A 
ATOM     23  S   UNL     1       3.268   2.774  17.606  0.00  0.00    +0.000 S 
ATOM     24  C   UNL     1       4.156   4.114  17.074  0.00  0.00    +0.000 A 
ATOM     25  C   UNL     1       4.040   5.205  17.924  0.00  0.00    +0.000 A 
ATOM     26  C   UNL     1       3.060   4.971  18.971  0.00  0.00    +0.000 A 
ATOM     27  C   UNL     1       4.881   6.426  17.686  0.00  0.00    +0.000 C 
ATOM     28  C   UNL     1       5.261   6.563  16.205  0.00  0.00    +0.000 C 
ATOM     29  C   UNL     1       5.885   5.267  15.671  0.00  0.00    +0.000 C 
ATOM     30  C   UNL     1       4.930   4.073  15.789  0.00  0.00    +0.000 C 
ENDBRANCH  16  18
ENDBRANCH   1  16
TORSDOF 4
ENDMDL
MODEL 5
REMARK VINA RESULT:      -8.1      7.255     11.305
REMARK  Name = 
REMARK  6 active torsions:
REMARK  status: ('A' for Active; 'I' for Inactive)
REMARK    1  A    between atoms: C_1  and  C_2
REMARK    2  A    between atoms: C_6  and  C_7
REMARK    3  A    between atoms: C_10  and  C_11
REMARK    4  A    between atoms: C_11  and  C_12
REMARK    5  A    between atoms: C_11  and  N_13
REMARK    6  A    between atoms: N_13  and  C_14
REMARK                            x       y       z     vdW  Elec       q    Type
REMARK                         _______ _______ _______ _____ _____    ______ ____
ROOT
ATOM      1  C   UNL     1       8.990   9.975  18.191  0.00  0.00    +0.000 C 
ATOM      2  C   UNL     1       7.932  11.019  17.811  0.00  0.00    +0.000 C 
ENDROOT
BRANCH   1   6
ATOM      3  C   UNL     1       7.334   6.829  17.685  0.00  0.00    +0.000 A 
ATOM      4  N   UNL     1       7.993   6.527  18.823  0.00  0.00    +0.000 NA
ATOM      5  N   UNL     1       8.635   7.676  19.087  0.00  0.00    +0.000 N 
ATOM      6  C   UNL     1       8.388   8.613  18.138  0.00  0.00    +0.000 A 
ATOM      7  N   UNL     1       7.552   8.115  17.252  0.00  0.00    +0.000 NA
ATOM      8  H   UNL     1       9.200   7.766  19.926  0.00  0.00    +0.000 HD
BRANCH   3  14
ATOM      9  C   UNL     1       6.358   3.979  13.730  0.00  0.00    +0.000 C 
ATOM     10  C   UNL     1       5.960   4.510  15.072  0.00  0.00    +0.000 A 
ATOM     11  C   UNL     1       4.799   4.093  15.721  0.00  0.00    +0.000 A 
ATOM     12  C   UNL     1       4.519   4.613  16.975  0.00  0.00    +0.000 A 
ATOM     13  N   UNL     1       5.312   5.497  17.617  0.00  0.00    +0.000 NA
ATOM     14  C   UNL     1       6.441   5.898  16.979  0.00  0.00    +0.000 A 
ATOM     15  C   UNL     1       6.786   5.436  15.710  0.00  0.00    +0.000 A 
ENDBRANCH   3  14
ENDBRANCH   1   6
BRANCH   1  16
ATOM     16  N   UNL     1       9.553  10.315  19.503  0.00  0.00    +0.000 N 
ATOM     17  H   UNL     1       9.944   9.516  19.993  0.00  0.00    +0.000 HD
BRANCH  16  18
ATOM     18  C   UNL     1      10.358  11.452  19.585  0.00  0.00    +0.000 A 
ATOM     19  N   UNL     1      11.344  11.613  18.661  0.00  0.00    +0.000 NA
ATOM     20  C   UNL     1      12.030  12.761  18.625  0.00  0.00    +0.000 A 
ATOM     21  N   UNL     1      11.871  13.822  19.406  0.00  0.00    +0.000 NA
ATOM     22  C   UNL     1      10.917  13.637  20.331  0.00  0.00    +0.000 A 
ATOM     23  S   UNL     1      10.515  14.916  21.380  0.00  0.00    +0.000 S 
ATOM     24  C   UNL     1       9.337  13.980  22.160  0.00  0.00    +0.000 A 
ATOM     25  C   UNL     1       9.288  12.677  21.685  0.00  0.00    +0.000 A 
ATOM     26  C   UNL     1      10.152  12.490  20.532  0.00  0.00    +0.000 A 
ATOM     27  C   UNL     1       8.408  11.670  22.368  0.00  0.00    +0.000 C 
ATOM     28  C   UNL     1       7.218  12.347  23.062  0.00  0.00    +0.000 C 
ATOM     29  C   UNL     1       7.686  13.484  23.980  0.00  0.00    +0.000 C 
ATOM     30  C   UNL     1       8.446  14.572  23.212  0.00  0.00    +0.000 C 
ENDBRANCH  16  18
ENDBRANCH   1  16
TORSDOF 4
ENDMDL
MODEL 6
REMARK VINA RESULT:      -8.1      3.923      9.953
REMARK  Name = 
REMARK  6 active torsions:
REMARK  status: ('A' for Active; 'I' for Inactive)
REMARK    1  A    between atoms: C_1  and  C_2
REMARK    2  A    between atoms: C_6  and  C_7
REMARK    3  A    between atoms: C_10  and  C_11
REMARK    4  A    between atoms: C_11  and  C_12
REMARK    5  A    between atoms: C_11  and  N_13
REMARK    6  A    between atoms: N_13  and  C_14
REMARK                            x       y       z     vdW  Elec       q    Type
REMARK                         _______ _______ _______ _____ _____    ______ ____
ROOT
ATOM      1  C   UNL     1       5.701   6.204  17.273  0.00  0.00    +0.000 C 
ATOM      2  C   UNL     1       6.529   7.461  17.566  0.00  0.00    +0.000 C 
ENDROOT
BRANCH   1   6
ATOM      3  C   UNL     1       6.382   4.553  14.158  0.00  0.00    +0.000 A 
ATOM      4  N   UNL     1       7.577   5.153  14.331  0.00  0.00    +0.000 NA
ATOM      5  N   UNL     1       7.404   5.790  15.500  0.00  0.00    +0.000 N 
ATOM      6  C   UNL     1       6.154   5.595  15.991  0.00  0.00    +0.000 A 
ATOM      7  N   UNL     1       5.493   4.800  15.177  0.00  0.00    +0.000 NA
ATOM      8  H   UNL     1       8.167   6.315  15.916  0.00  0.00    +0.000 HD
BRANCH   3  14
ATOM      9  C   UNL     1       3.169   3.109  10.650  0.00  0.00    +0.000 C 
ATOM     10  C   UNL     1       4.508   2.985  11.307  0.00  0.00    +0.000 A 
ATOM     11  C   UNL     1       5.495   2.126  10.827  0.00  0.00    +0.000 A 
ATOM     12  C   UNL     1       6.718   2.093  11.479  0.00  0.00    +0.000 A 
ATOM     13  N   UNL     1       7.019   2.854  12.552  0.00  0.00    +0.000 NA
ATOM     14  C   UNL     1       6.053   3.688  13.015  0.00  0.00    +0.000 A 
ATOM     15  C   UNL     1       4.791   3.768  12.426  0.00  0.00    +0.000 A 
ENDBRANCH   3  14
ENDBRANCH   1   6
BRANCH   1  16
ATOM     16  N   UNL     1       4.275   6.552  17.284  0.00  0.00    +0.000 N 
ATOM     17  H   UNL     1       3.819   6.412  16.388  0.00  0.00    +0.000 HD
BRANCH  16  18
ATOM     18  C   UNL     1       3.509   6.105  18.361  0.00  0.00    +0.000 A 
ATOM     19  N   UNL     1       3.715   4.841  18.820  0.00  0.00    +0.000 NA
ATOM     20  C   UNL     1       3.105   4.439  19.940  0.00  0.00    +0.000 A 
ATOM     21  N   UNL     1       2.285   5.144  20.710  0.00  0.00    +0.000 NA
ATOM     22  C   UNL     1       2.067   6.378  20.230  0.00  0.00    +0.000 A 
ATOM     23  S   UNL     1       1.100   7.459  21.120  0.00  0.00    +0.000 S 
ATOM     24  C   UNL     1       1.303   8.680  19.964  0.00  0.00    +0.000 A 
ATOM     25  C   UNL     1       2.040   8.261  18.865  0.00  0.00    +0.000 A 
ATOM     26  C   UNL     1       2.583   6.927  19.058  0.00  0.00    +0.000 A 
ATOM     27  C   UNL     1       2.187   9.167  17.678  0.00  0.00    +0.000 C 
ATOM     28  C   UNL     1       2.067  10.643  18.084  0.00  0.00    +0.000 C 
ATOM     29  C   UNL     1       0.791  10.891  18.899  0.00  0.00    +0.000 C 
ATOM     30  C   UNL     1       0.756  10.059  20.187  0.00  0.00    +0.000 C 
ENDBRANCH  16  18
ENDBRANCH   1  16
TORSDOF 4
ENDMDL
MODEL 7
REMARK VINA RESULT:      -8.1      4.711      7.824
REMARK  Name = 
REMARK  6 active torsions:
REMARK  status: ('A' for Active; 'I' for Inactive)
REMARK    1  A    between atoms: C_1  and  C_2
REMARK    2  A    between atoms: C_6  and  C_7
REMARK    3  A    between atoms: C_10  and  C_11
REMARK    4  A    between atoms: C_11  and  C_12
REMARK    5  A    between atoms: C_11  and  N_13
REMARK    6  A    between atoms: N_13  and  C_14
REMARK                            x       y       z     vdW  Elec       q    Type
REMARK                         _______ _______ _______ _____ _____    ______ ____
ROOT
ATOM      1  C   UNL     1       6.207   6.033  16.396  0.00  0.00    +0.000 C 
ATOM      2  C   UNL     1       7.094   4.965  15.744  0.00  0.00    +0.000 C 
ENDROOT
BRANCH   1   6
ATOM      3  C   UNL     1       8.090   8.577  18.093  0.00  0.00    +0.000 A 
ATOM      4  N   UNL     1       8.467   7.518  18.839  0.00  0.00    +0.000 NA
ATOM      5  N   UNL     1       7.804   6.510  18.250  0.00  0.00    +0.000 N 
ATOM      6  C   UNL     1       7.049   6.952  17.212  0.00  0.00    +0.000 A 
ATOM      7  N   UNL     1       7.228   8.248  17.074  0.00  0.00    +0.000 NA
ATOM      8  H   UNL     1       7.920   5.557  18.580  0.00  0.00    +0.000 HD
BRANCH   3  14
ATOM      9  C   UNL     1      10.998  11.770  20.553  0.00  0.00    +0.000 C 
ATOM     10  C   UNL     1       9.978  11.505  19.490  0.00  0.00    +0.000 A 
ATOM     11  C   UNL     1       9.516  12.506  18.637  0.00  0.00    +0.000 A 
ATOM     12  C   UNL     1       8.592  12.169  17.660  0.00  0.00    +0.000 A 
ATOM     13  N   UNL     1       8.116  10.919  17.476  0.00  0.00    +0.000 NA
ATOM     14  C   UNL     1       8.570   9.950  18.310  0.00  0.00    +0.000 A 
ATOM     15  C   UNL     1       9.486  10.210  19.328  0.00  0.00    +0.000 A 
ENDBRANCH   3  14
ENDBRANCH   1   6
BRANCH   1  16
ATOM     16  N   UNL     1       5.145   5.374  17.166  0.00  0.00    +0.000 N 
ATOM     17  H   UNL     1       5.484   4.617  17.751  0.00  0.00    +0.000 HD
BRANCH  16  18
ATOM     18  C   UNL     1       4.215   6.188  17.811  0.00  0.00    +0.000 A 
ATOM     19  N   UNL     1       3.992   7.435  17.313  0.00  0.00    +0.000 NA
ATOM     20  C   UNL     1       3.002   8.178  17.818  0.00  0.00    +0.000 A 
ATOM     21  N   UNL     1       2.159   7.848  18.789  0.00  0.00    +0.000 NA
ATOM     22  C   UNL     1       2.408   6.629  19.291  0.00  0.00    +0.000 A 
ATOM     23  S   UNL     1       1.384   5.998  20.494  0.00  0.00    +0.000 S 
ATOM     24  C   UNL     1       2.277   4.561  20.579  0.00  0.00    +0.000 A 
ATOM     25  C   UNL     1       3.393   4.574  19.755  0.00  0.00    +0.000 A 
ATOM     26  C   UNL     1       3.426   5.756  18.911  0.00  0.00    +0.000 A 
ATOM     27  C   UNL     1       4.379   3.444  19.820  0.00  0.00    +0.000 C 
ATOM     28  C   UNL     1       3.710   2.145  20.291  0.00  0.00    +0.000 C 
ATOM     29  C   UNL     1       2.932   2.365  21.595  0.00  0.00    +0.000 C 
ATOM     30  C   UNL     1       1.828   3.417  21.441  0.00  0.00    +0.000 C 
ENDBRANCH  16  18
ENDBRANCH   1  16
TORSDOF 4
ENDMDL
MODEL 8
REMARK VINA RESULT:      -8.1      3.275      4.832
REMARK  Name = 
REMARK  6 active torsions:
REMARK  status: ('A' for Active; 'I' for Inactive)
REMARK    1  A    between atoms: C_1  and  C_2
REMARK    2  A    between atoms: C_6  and  C_7
REMARK    3  A    between atoms: C_10  and  C_11
REMARK    4  A    between atoms: C_11  and  C_12
REMARK    5  A    between atoms: C_11  and  N_13
REMARK    6  A    between atoms: N_13  and  C_14
REMARK                            x       y       z     vdW  Elec       q    Type
REMARK                         _______ _______ _______ _____ _____    ______ ____
ROOT
ATOM      1  C   UNL     1       1.394   9.124  20.741  0.00  0.00    +0.000 C 
ATOM      2  C   UNL     1       1.418   9.141  22.275  0.00  0.00    +0.000 C 
ENDROOT
BRANCH   1   6
ATOM      3  C   UNL     1      -1.383  10.828  19.230  0.00  0.00    +0.000 A 
ATOM      4  N   UNL     1      -1.160  11.678  20.254  0.00  0.00    +0.000 NA
ATOM      5  N   UNL     1      -0.111  11.108  20.867  0.00  0.00    +0.000 N 
ATOM      6  C   UNL     1       0.260   9.958  20.250  0.00  0.00    +0.000 A 
ATOM      7  N   UNL     1      -0.510   9.767  19.201  0.00  0.00    +0.000 NA
ATOM      8  H   UNL     1       0.314  11.552  21.675  0.00  0.00    +0.000 HD
BRANCH   3  14
ATOM      9  C   UNL     1      -3.065  10.114  14.607  0.00  0.00    +0.000 C 
ATOM     10  C   UNL     1      -3.260  10.672  15.983  0.00  0.00    +0.000 A 
ATOM     11  C   UNL     1      -4.441  11.304  16.368  0.00  0.00    +0.000 A 
ATOM     12  C   UNL     1      -4.550  11.767  17.670  0.00  0.00    +0.000 A 
ATOM     13  N   UNL     1      -3.579  11.633  18.599  0.00  0.00    +0.000 NA
ATOM     14  C   UNL     1      -2.432  11.017  18.217  0.00  0.00    +0.000 A 
ATOM     15  C   UNL     1      -2.237  10.538  16.922  0.00  0.00    +0.000 A 
ENDBRANCH   3  14
ENDBRANCH   1   6
BRANCH   1  16
ATOM     16  N   UNL     1       1.341   7.733  20.275  0.00  0.00    +0.000 N 
ATOM     17  H   UNL     1       0.396   7.390  20.137  0.00  0.00    +0.000 HD
BRANCH  16  18
ATOM     18  C   UNL     1       2.211   7.362  19.249  0.00  0.00    +0.000 A 
ATOM     19  N   UNL     1       2.574   8.305  18.338  0.00  0.00    +0.000 NA
ATOM     20  C   UNL     1       3.519   8.020  17.436  0.00  0.00    +0.000 A 
ATOM     21  N   UNL     1       4.190   6.882  17.302  0.00  0.00    +0.000 NA
ATOM     22  C   UNL     1       3.800   5.952  18.187  0.00  0.00    +0.000 A 
ATOM     23  S   UNL     1       4.598   4.449  18.220  0.00  0.00    +0.000 S 
ATOM     24  C   UNL     1       3.623   3.896  19.491  0.00  0.00    +0.000 A 
ATOM     25  C   UNL     1       2.643   4.811  19.851  0.00  0.00    +0.000 A 
ATOM     26  C   UNL     1       2.802   6.074  19.151  0.00  0.00    +0.000 A 
ATOM     27  C   UNL     1       1.596   4.423  20.855  0.00  0.00    +0.000 C 
ATOM     28  C   UNL     1       2.115   3.341  21.812  0.00  0.00    +0.000 C 
ATOM     29  C   UNL     1       2.702   2.153  21.039  0.00  0.00    +0.000 C 
ATOM     30  C   UNL     1       3.875   2.569  20.142  0.00  0.00    +0.000 C 
ENDBRANCH  16  18
ENDBRANCH   1  16
TORSDOF 4
ENDMDL
MODEL 9
REMARK VINA RESULT:      -8.1      3.622      8.995
REMARK  Name = 
REMARK  6 active torsions:
REMARK  status: ('A' for Active; 'I' for Inactive)
REMARK    1  A    between atoms: C_1  and  C_2
REMARK    2  A    between atoms: C_6  and  C_7
REMARK    3  A    between atoms: C_10  and  C_11
REMARK    4  A    between atoms: C_11  and  C_12
REMARK    5  A    between atoms: C_11  and  N_13
REMARK    6  A    between atoms: N_13  and  C_14
REMARK                            x       y       z     vdW  Elec       q    Type
REMARK                         _______ _______ _______ _____ _____    ______ ____
ROOT
ATOM      1  C   UNL     1       0.800   9.390  20.482  0.00  0.00    +0.000 C 
ATOM      2  C   UNL     1       1.363   8.977  21.848  0.00  0.00    +0.000 C 
ENDROOT
BRANCH   1   6
ATOM      3  C   UNL     1       2.686   7.420  18.146  0.00  0.00    +0.000 A 
ATOM      4  N   UNL     1       2.587   8.552  17.418  0.00  0.00    +0.000 NA
ATOM      5  N   UNL     1       1.895   9.354  18.242  0.00  0.00    +0.000 N 
ATOM      6  C   UNL     1       1.577   8.722  19.400  0.00  0.00    +0.000 A 
ATOM      7  N   UNL     1       2.083   7.508  19.377  0.00  0.00    +0.000 NA
ATOM      8  H   UNL     1       1.692  10.312  17.974  0.00  0.00    +0.000 HD
BRANCH   3  14
ATOM      9  C   UNL     1       2.856   2.476  17.651  0.00  0.00    +0.000 C 
ATOM     10  C   UNL     1       3.485   3.819  17.445  0.00  0.00    +0.000 A 
ATOM     11  C   UNL     1       4.693   3.978  16.769  0.00  0.00    +0.000 A 
ATOM     12  C   UNL     1       5.192   5.260  16.597  0.00  0.00    +0.000 A 
ATOM     13  N   UNL     1       4.570   6.374  17.038  0.00  0.00    +0.000 NA
ATOM     14  C   UNL     1       3.394   6.212  17.696  0.00  0.00    +0.000 A 
ATOM     15  C   UNL     1       2.834   4.956  17.925  0.00  0.00    +0.000 A 
ENDBRANCH   3  14
ENDBRANCH   1   6
BRANCH   1  16
ATOM     16  N   UNL     1       0.799  10.854  20.383  0.00  0.00    +0.000 N 
ATOM     17  H   UNL     1       1.038  11.196  19.458  0.00  0.00    +0.000 HD
BRANCH  16  18
ATOM     18  C   UNL     1      -0.271  11.540  20.958  0.00  0.00    +0.000 A 
ATOM     19  N   UNL     1      -0.078  12.149  22.159  0.00  0.00    +0.000 NA
ATOM     20  C   UNL     1      -1.037  12.936  22.659  0.00  0.00    +0.000 A 
ATOM     21  N   UNL     1      -2.213  13.222  22.115  0.00  0.00    +0.000 NA
ATOM     22  C   UNL     1      -2.402  12.591  20.946  0.00  0.00    +0.000 A 
ATOM     23  S   UNL     1      -3.823  12.890  20.058  0.00  0.00    +0.000 S 
ATOM     24  C   UNL     1      -3.344  11.829  18.828  0.00  0.00    +0.000 A 
ATOM     25  C   UNL     1      -2.147  11.187  19.110  0.00  0.00    +0.000 A 
ATOM     26  C   UNL     1      -1.529  11.705  20.318  0.00  0.00    +0.000 A 
ATOM     27  C   UNL     1      -1.653  10.100  18.200  0.00  0.00    +0.000 C 
ATOM     28  C   UNL     1      -2.178  10.288  16.769  0.00  0.00    +0.000 C 
ATOM     29  C   UNL     1      -3.703  10.462  16.757  0.00  0.00    +0.000 C 
ATOM     30  C   UNL     1      -4.153  11.680  17.573  0.00  0.00    +0.000 C 
ENDBRANCH  16  18
ENDBRANCH   1  16
TORSDOF 4
ENDMDL
