MODEL 1
REMARK VINA RESULT:      -8.7      0.000      0.000
REMARK  Name = 
REMARK  4 active torsions:
REMARK  status: ('A' for Active; 'I' for Inactive)
REMARK    1  A    between atoms: C_2  and  C_10
REMARK    2  A    between atoms: C_14  and  S_15
REMARK    3  A    between atoms: S_15  and  N_18
REMARK    4  A    between atoms: N_18  and  C_19
REMARK                            x       y       z     vdW  Elec       q    Type
REMARK                         _______ _______ _______ _____ _____    ______ ____
ROOT
ATOM      1  C   UNL     1       4.270   3.813  17.309  0.00  0.00    +0.000 A 
ATOM      2  C   UNL     1       3.864   2.482  17.124  0.00  0.00    +0.000 A 
ATOM      3  C   UNL     1       2.874   1.918  17.931  0.00  0.00    +0.000 A 
ATOM      4  C   UNL     1       2.300   2.672  18.949  0.00  0.00    +0.000 A 
ATOM      5  C   UNL     1       2.734   3.985  19.165  0.00  0.00    +0.000 A 
ATOM      6  C   UNL     1       3.700   4.571  18.336  0.00  0.00    +0.000 A 
ENDROOT
BRANCH   1   8
ATOM      7  O   UNL     1       6.117   5.183  16.853  0.00  0.00    +0.000 OA
ATOM      8  C   UNL     1       5.339   4.333  16.418  0.00  0.00    +0.000 C 
ATOM      9  N   UNL     1       5.421   3.814  15.139  0.00  0.00    +0.000 N 
ATOM     10  C   UNL     1       6.304   4.228  14.209  0.00  0.00    +0.000 A 
ATOM     11  N   UNL     1       6.347   3.739  13.006  0.00  0.00    +0.000 NA
ATOM     12  N   UNL     1       7.378   4.436  12.423  0.00  0.00    +0.000 N 
ATOM     13  C   UNL     1       7.946   5.318  13.337  0.00  0.00    +0.000 A 
ATOM     14  O   UNL     1       8.914   6.035  13.170  0.00  0.00    +0.000 OA
ATOM     15  N   UNL     1       7.202   5.180  14.465  0.00  0.00    +0.000 N 
ATOM     16  H   UNL     1       4.820   3.060  14.837  0.00  0.00    +0.000 HD
ATOM     17  H   UNL     1       7.712   4.257  11.486  0.00  0.00    +0.000 HD
ATOM     18  H   UNL     1       7.358   5.628  15.358  0.00  0.00    +0.000 HD
ENDBRANCH   1   8
BRANCH   5  19
ATOM     19  S   UNL     1       2.007   4.951  20.474  0.00  0.00    +0.000 S 
ATOM     20  O   UNL     1       0.611   5.146  20.141  0.00  0.00    +0.000 OA
ATOM     21  O   UNL     1       2.404   4.341  21.725  0.00  0.00    +0.000 OA
BRANCH  19  22
ATOM     22  N   UNL     1       2.813   6.431  20.387  0.00  0.00    +0.000 N 
ATOM     23  H   UNL     1       3.789   6.300  20.114  0.00  0.00    +0.000 HD
BRANCH  22  24
ATOM     24  C   UNL     1       2.160   7.551  19.785  0.00  0.00    +0.000 A 
ATOM     25  C   UNL     1       2.295   7.790  18.418  0.00  0.00    +0.000 A 
ATOM     26  C   UNL     1       1.605   8.856  17.830  0.00  0.00    +0.000 A 
ATOM     27  C   UNL     1       0.810   9.699  18.611  0.00  0.00    +0.000 A 
ATOM     28  C   UNL     1       0.708   9.484  19.985  0.00  0.00    +0.000 A 
ATOM     29  C   UNL     1       1.379   8.411  20.560  0.00  0.00    +0.000 A 
ATOM     30  F   UNL     1       1.265   8.197  21.879  0.00  0.00    +0.000 F 
ENDBRANCH  22  24
ENDBRANCH  19  22
ENDBRANCH   5  19
TORSDOF 4
ENDMDL
MODEL 2
REMARK VINA RESULT:      -8.6      0.935      1.324
REMARK  Name = 
REMARK  4 active torsions:
REMARK  status: ('A' for Active; 'I' for Inactive)
REMARK    1  A    between atoms: C_2  and  C_10
REMARK    2  A    between atoms: C_14  and  S_15
REMARK    3  A    between atoms: S_15  and  N_18
REMARK    4  A    between atoms: N_18  and  C_19
REMARK                            x       y       z     vdW  Elec       q    Type
REMARK                         _______ _______ _______ _____ _____    ______ ____
ROOT
ATOM      1  C   UNL     1       4.472   3.704  17.384  0.00  0.00    +0.000 A 
ATOM      2  C   UNL     1       4.182   2.334  17.294  0.00  0.00    +0.000 A 
ATOM      3  C   UNL     1       3.233   1.748  18.135  0.00  0.00    +0.000 A 
ATOM      4  C   UNL     1       2.586   2.523  19.092  0.00  0.00    +0.000 A 
ATOM      5  C   UNL     1       2.906   3.880  19.214  0.00  0.00    +0.000 A 
ATOM      6  C   UNL     1       3.829   4.484  18.349  0.00  0.00    +0.000 A 
ENDROOT
BRANCH   1   8
ATOM      7  O   UNL     1       6.309   5.076  16.890  0.00  0.00    +0.000 OA
ATOM      8  C   UNL     1       5.504   4.247  16.463  0.00  0.00    +0.000 C 
ATOM      9  N   UNL     1       5.524   3.771  15.164  0.00  0.00    +0.000 N 
ATOM     10  C   UNL     1       6.367   4.210  14.209  0.00  0.00    +0.000 A 
ATOM     11  N   UNL     1       6.351   3.762  12.990  0.00  0.00    +0.000 NA
ATOM     12  N   UNL     1       7.360   4.472  12.384  0.00  0.00    +0.000 N 
ATOM     13  C   UNL     1       7.976   5.317  13.301  0.00  0.00    +0.000 A 
ATOM     14  O   UNL     1       8.942   6.033  13.113  0.00  0.00    +0.000 OA
ATOM     15  N   UNL     1       7.283   5.147  14.456  0.00  0.00    +0.000 N 
ATOM     16  H   UNL     1       4.902   3.033  14.865  0.00  0.00    +0.000 HD
ATOM     17  H   UNL     1       7.649   4.323  11.427  0.00  0.00    +0.000 HD
ATOM     18  H   UNL     1       7.484   5.562  15.355  0.00  0.00    +0.000 HD
ENDBRANCH   1   8
BRANCH   5  19
ATOM     19  S   UNL     1       2.086   4.873  20.445  0.00  0.00    +0.000 S 
ATOM     20  O   UNL     1       0.700   4.997  20.044  0.00  0.00    +0.000 OA
ATOM     21  O   UNL     1       2.450   4.336  21.738  0.00  0.00    +0.000 OA
BRANCH  19  22
ATOM     22  N   UNL     1       2.838   6.379  20.324  0.00  0.00    +0.000 N 
ATOM     23  H   UNL     1       3.739   6.300  19.848  0.00  0.00    +0.000 HD
BRANCH  22  24
ATOM     24  C   UNL     1       2.061   7.524  19.966  0.00  0.00    +0.000 A 
ATOM     25  C   UNL     1       1.265   8.157  20.921  0.00  0.00    +0.000 A 
ATOM     26  C   UNL     1       0.553   9.311  20.574  0.00  0.00    +0.000 A 
ATOM     27  C   UNL     1       0.610   9.811  19.270  0.00  0.00    +0.000 A 
ATOM     28  C   UNL     1       1.375   9.154  18.306  0.00  0.00    +0.000 A 
ATOM     29  C   UNL     1       2.096   8.020  18.662  0.00  0.00    +0.000 A 
ATOM     30  F   UNL     1       2.842   7.400  17.736  0.00  0.00    +0.000 F 
ENDBRANCH  22  24
ENDBRANCH  19  22
ENDBRANCH   5  19
TORSDOF 4
ENDMDL
MODEL 3
REMARK VINA RESULT:      -8.5      4.023      4.904
REMARK  Name = 
REMARK  4 active torsions:
REMARK  status: ('A' for Active; 'I' for Inactive)
REMARK    1  A    between atoms: C_2  and  C_10
REMARK    2  A    between atoms: C_14  and  S_15
REMARK    3  A    between atoms: S_15  and  N_18
REMARK    4  A    between atoms: N_18  and  C_19
REMARK                            x       y       z     vdW  Elec       q    Type
REMARK                         _______ _______ _______ _____ _____    ______ ____
ROOT
ATOM      1  C   UNL     1       6.762   5.872  17.410  0.00  0.00    +0.000 A 
ATOM      2  C   UNL     1       6.996   5.587  16.056  0.00  0.00    +0.000 A 
ATOM      3  C   UNL     1       6.268   4.592  15.399  0.00  0.00    +0.000 A 
ATOM      4  C   UNL     1       5.319   3.854  16.100  0.00  0.00    +0.000 A 
ATOM      5  C   UNL     1       5.116   4.106  17.462  0.00  0.00    +0.000 A 
ATOM      6  C   UNL     1       5.814   5.128  18.119  0.00  0.00    +0.000 A 
ENDROOT
BRANCH   1   8
ATOM      7  O   UNL     1       8.297   6.648  19.004  0.00  0.00    +0.000 OA
ATOM      8  C   UNL     1       7.588   6.935  18.039  0.00  0.00    +0.000 C 
ATOM      9  N   UNL     1       7.536   8.203  17.486  0.00  0.00    +0.000 N 
ATOM     10  C   UNL     1       8.189   9.272  17.982  0.00  0.00    +0.000 A 
ATOM     11  N   UNL     1       8.107  10.457  17.457  0.00  0.00    +0.000 NA
ATOM     12  N   UNL     1       8.920  11.214  18.267  0.00  0.00    +0.000 N 
ATOM     13  C   UNL     1       9.496  10.420  19.253  0.00  0.00    +0.000 A 
ATOM     14  O   UNL     1      10.312  10.756  20.090  0.00  0.00    +0.000 OA
ATOM     15  N   UNL     1       8.971   9.182  19.058  0.00  0.00    +0.000 N 
ATOM     16  H   UNL     1       7.007   8.389  16.646  0.00  0.00    +0.000 HD
ATOM     17  H   UNL     1       9.120  12.190  18.100  0.00  0.00    +0.000 HD
ATOM     18  H   UNL     1       9.205   8.335  19.557  0.00  0.00    +0.000 HD
ENDBRANCH   1   8
BRANCH   5  19
ATOM     19  S   UNL     1       3.908   3.157  18.364  0.00  0.00    +0.000 S 
ATOM     20  O   UNL     1       3.799   1.868  17.713  0.00  0.00    +0.000 OA
ATOM     21  O   UNL     1       4.242   3.264  19.767  0.00  0.00    +0.000 OA
BRANCH  19  22
ATOM     22  N   UNL     1       2.470   4.013  18.149  0.00  0.00    +0.000 N 
ATOM     23  H   UNL     1       1.662   3.390  18.202  0.00  0.00    +0.000 HD
BRANCH  22  24
ATOM     24  C   UNL     1       2.304   5.278  18.793  0.00  0.00    +0.000 A 
ATOM     25  C   UNL     1       2.609   6.457  18.113  0.00  0.00    +0.000 A 
ATOM     26  C   UNL     1       2.389   7.692  18.734  0.00  0.00    +0.000 A 
ATOM     27  C   UNL     1       1.896   7.747  20.041  0.00  0.00    +0.000 A 
ATOM     28  C   UNL     1       1.629   6.567  20.735  0.00  0.00    +0.000 A 
ATOM     29  C   UNL     1       1.831   5.344  20.105  0.00  0.00    +0.000 A 
ATOM     30  F   UNL     1       1.558   4.211  20.770  0.00  0.00    +0.000 F 
ENDBRANCH  22  24
ENDBRANCH  19  22
ENDBRANCH   5  19
TORSDOF 4
ENDMDL
MODEL 4
REMARK VINA RESULT:      -8.5      3.434      8.194
REMARK  Name = 
REMARK  4 active torsions:
REMARK  status: ('A' for Active; 'I' for Inactive)
REMARK    1  A    between atoms: C_2  and  C_10
REMARK    2  A    between atoms: C_14  and  S_15
REMARK    3  A    between atoms: S_15  and  N_18
REMARK    4  A    between atoms: N_18  and  C_19
REMARK                            x       y       z     vdW  Elec       q    Type
REMARK                         _______ _______ _______ _____ _____    ______ ____
ROOT
ATOM      1  C   UNL     1       3.446   6.114  18.344  0.00  0.00    +0.000 A 
ATOM      2  C   UNL     1       2.929   4.816  18.471  0.00  0.00    +0.000 A 
ATOM      3  C   UNL     1       3.698   3.703  18.126  0.00  0.00    +0.000 A 
ATOM      4  C   UNL     1       4.983   3.881  17.623  0.00  0.00    +0.000 A 
ATOM      5  C   UNL     1       5.485   5.176  17.453  0.00  0.00    +0.000 A 
ATOM      6  C   UNL     1       4.734   6.297  17.834  0.00  0.00    +0.000 A 
ENDROOT
BRANCH   1   8
ATOM      7  O   UNL     1       2.136   7.991  17.837  0.00  0.00    +0.000 OA
ATOM      8  C   UNL     1       2.558   7.245  18.720  0.00  0.00    +0.000 C 
ATOM      9  N   UNL     1       2.229   7.389  20.056  0.00  0.00    +0.000 N 
ATOM     10  C   UNL     1       1.478   8.395  20.547  0.00  0.00    +0.000 A 
ATOM     11  N   UNL     1       1.201   8.520  21.809  0.00  0.00    +0.000 NA
ATOM     12  N   UNL     1       0.427   9.656  21.847  0.00  0.00    +0.000 N 
ATOM     13  C   UNL     1       0.243  10.160  20.564  0.00  0.00    +0.000 A 
ATOM     14  O   UNL     1      -0.440  11.111  20.234  0.00  0.00    +0.000 OA
ATOM     15  N   UNL     1       0.967   9.340  19.758  0.00  0.00    +0.000 N 
ATOM     16  H   UNL     1       2.525   6.714  20.747  0.00  0.00    +0.000 HD
ATOM     17  H   UNL     1      -0.005  10.008  22.691  0.00  0.00    +0.000 HD
ATOM     18  H   UNL     1       1.023   9.371  18.750  0.00  0.00    +0.000 HD
ENDBRANCH   1   8
BRANCH   5  19
ATOM     19  S   UNL     1       7.127   5.408  16.801  0.00  0.00    +0.000 S 
ATOM     20  O   UNL     1       7.764   6.439  17.595  0.00  0.00    +0.000 OA
ATOM     21  O   UNL     1       7.719   4.096  16.660  0.00  0.00    +0.000 OA
BRANCH  19  22
ATOM     22  N   UNL     1       6.869   5.988  15.238  0.00  0.00    +0.000 N 
ATOM     23  H   UNL     1       7.513   6.750  15.020  0.00  0.00    +0.000 HD
BRANCH  22  24
ATOM     24  C   UNL     1       6.645   5.060  14.174  0.00  0.00    +0.000 A 
ATOM     25  C   UNL     1       5.510   4.251  14.176  0.00  0.00    +0.000 A 
ATOM     26  C   UNL     1       5.272   3.386  13.101  0.00  0.00    +0.000 A 
ATOM     27  C   UNL     1       6.183   3.308  12.044  0.00  0.00    +0.000 A 
ATOM     28  C   UNL     1       7.339   4.088  12.062  0.00  0.00    +0.000 A 
ATOM     29  C   UNL     1       7.559   4.960  13.123  0.00  0.00    +0.000 A 
ATOM     30  F   UNL     1       8.664   5.720  13.128  0.00  0.00    +0.000 F 
ENDBRANCH  22  24
ENDBRANCH  19  22
ENDBRANCH   5  19
TORSDOF 4
ENDMDL
MODEL 5
REMARK VINA RESULT:      -8.4      3.628      6.849
REMARK  Name = 
REMARK  4 active torsions:
REMARK  status: ('A' for Active; 'I' for Inactive)
REMARK    1  A    between atoms: C_2  and  C_10
REMARK    2  A    between atoms: C_14  and  S_15
REMARK    3  A    between atoms: S_15  and  N_18
REMARK    4  A    between atoms: N_18  and  C_19
REMARK                            x       y       z     vdW  Elec       q    Type
REMARK                         _______ _______ _______ _____ _____    ______ ____
ROOT
ATOM      1  C   UNL     1       1.909   5.563  20.163  0.00  0.00    +0.000 A 
ATOM      2  C   UNL     1       0.833   4.790  20.623  0.00  0.00    +0.000 A 
ATOM      3  C   UNL     1       0.930   3.398  20.692  0.00  0.00    +0.000 A 
ATOM      4  C   UNL     1       2.096   2.766  20.274  0.00  0.00    +0.000 A 
ATOM      5  C   UNL     1       3.155   3.531  19.771  0.00  0.00    +0.000 A 
ATOM      6  C   UNL     1       3.080   4.930  19.735  0.00  0.00    +0.000 A 
ENDROOT
BRANCH   1   8
ATOM      7  O   UNL     1       1.347   7.628  21.120  0.00  0.00    +0.000 OA
ATOM      8  C   UNL     1       1.721   7.036  20.107  0.00  0.00    +0.000 C 
ATOM      9  N   UNL     1       2.000   7.677  18.914  0.00  0.00    +0.000 N 
ATOM     10  C   UNL     1       1.825   8.996  18.704  0.00  0.00    +0.000 A 
ATOM     11  N   UNL     1       2.075   9.571  17.566  0.00  0.00    +0.000 NA
ATOM     12  N   UNL     1       1.765  10.889  17.808  0.00  0.00    +0.000 N 
ATOM     13  C   UNL     1       1.360  11.057  19.128  0.00  0.00    +0.000 A 
ATOM     14  O   UNL     1       1.078  12.099  19.688  0.00  0.00    +0.000 OA
ATOM     15  N   UNL     1       1.377   9.808  19.662  0.00  0.00    +0.000 N 
ATOM     16  H   UNL     1       2.382   7.176  18.124  0.00  0.00    +0.000 HD
ATOM     17  H   UNL     1       1.899  11.626  17.130  0.00  0.00    +0.000 HD
ATOM     18  H   UNL     1       1.192   9.552  20.622  0.00  0.00    +0.000 HD
ENDBRANCH   1   8
BRANCH   5  19
ATOM     19  S   UNL     1       4.647   2.724  19.226  0.00  0.00    +0.000 S 
ATOM     20  O   UNL     1       5.192   2.013  20.364  0.00  0.00    +0.000 OA
ATOM     21  O   UNL     1       4.333   2.038  17.992  0.00  0.00    +0.000 OA
BRANCH  19  22
ATOM     22  N   UNL     1       5.676   3.997  18.818  0.00  0.00    +0.000 N 
ATOM     23  H   UNL     1       6.523   3.980  19.390  0.00  0.00    +0.000 HD
BRANCH  22  24
ATOM     24  C   UNL     1       5.880   4.319  17.440  0.00  0.00    +0.000 A 
ATOM     25  C   UNL     1       4.788   4.521  16.598  0.00  0.00    +0.000 A 
ATOM     26  C   UNL     1       5.000   4.892  15.264  0.00  0.00    +0.000 A 
ATOM     27  C   UNL     1       6.299   5.028  14.768  0.00  0.00    +0.000 A 
ATOM     28  C   UNL     1       7.392   4.787  15.601  0.00  0.00    +0.000 A 
ATOM     29  C   UNL     1       7.174   4.438  16.929  0.00  0.00    +0.000 A 
ATOM     30  F   UNL     1       8.227   4.223  17.731  0.00  0.00    +0.000 F 
ENDBRANCH  22  24
ENDBRANCH  19  22
ENDBRANCH   5  19
TORSDOF 4
ENDMDL
MODEL 6
REMARK VINA RESULT:      -8.4      3.575      7.905
REMARK  Name = 
REMARK  4 active torsions:
REMARK  status: ('A' for Active; 'I' for Inactive)
REMARK    1  A    between atoms: C_2  and  C_10
REMARK    2  A    between atoms: C_14  and  S_15
REMARK    3  A    between atoms: S_15  and  N_18
REMARK    4  A    between atoms: N_18  and  C_19
REMARK                            x       y       z     vdW  Elec       q    Type
REMARK                         _______ _______ _______ _____ _____    ______ ____
ROOT
ATOM      1  C   UNL     1       3.501   5.976  18.380  0.00  0.00    +0.000 A 
ATOM      2  C   UNL     1       2.961   4.681  18.403  0.00  0.00    +0.000 A 
ATOM      3  C   UNL     1       3.710   3.586  17.968  0.00  0.00    +0.000 A 
ATOM      4  C   UNL     1       4.997   3.781  17.478  0.00  0.00    +0.000 A 
ATOM      5  C   UNL     1       5.523   5.077  17.411  0.00  0.00    +0.000 A 
ATOM      6  C   UNL     1       4.792   6.176  17.882  0.00  0.00    +0.000 A 
ENDROOT
BRANCH   1   8
ATOM      7  O   UNL     1       2.007   6.956  19.899  0.00  0.00    +0.000 OA
ATOM      8  C   UNL     1       2.634   7.089  18.847  0.00  0.00    +0.000 C 
ATOM      9  N   UNL     1       2.592   8.239  18.080  0.00  0.00    +0.000 N 
ATOM     10  C   UNL     1       1.812   9.304  18.353  0.00  0.00    +0.000 A 
ATOM     11  N   UNL     1       1.775  10.364  17.605  0.00  0.00    +0.000 NA
ATOM     12  N   UNL     1       0.871  11.172  18.254  0.00  0.00    +0.000 N 
ATOM     13  C   UNL     1       0.415  10.554  19.414  0.00  0.00    +0.000 A 
ATOM     14  O   UNL     1      -0.339  11.016  20.250  0.00  0.00    +0.000 OA
ATOM     15  N   UNL     1       1.017   9.337  19.423  0.00  0.00    +0.000 N 
ATOM     16  H   UNL     1       3.178   8.350  17.265  0.00  0.00    +0.000 HD
ATOM     17  H   UNL     1       0.647  12.111  17.955  0.00  0.00    +0.000 HD
ATOM     18  H   UNL     1       0.961   8.634  20.148  0.00  0.00    +0.000 HD
ENDBRANCH   1   8
BRANCH   5  19
ATOM     19  S   UNL     1       7.167   5.331  16.776  0.00  0.00    +0.000 S 
ATOM     20  O   UNL     1       7.793   6.348  17.596  0.00  0.00    +0.000 OA
ATOM     21  O   UNL     1       7.767   4.025  16.611  0.00  0.00    +0.000 OA
BRANCH  19  22
ATOM     22  N   UNL     1       6.917   5.942  15.224  0.00  0.00    +0.000 N 
ATOM     23  H   UNL     1       7.566   6.706  15.023  0.00  0.00    +0.000 HD
BRANCH  22  24
ATOM     24  C   UNL     1       6.693   5.036  14.141  0.00  0.00    +0.000 A 
ATOM     25  C   UNL     1       5.564   4.218  14.133  0.00  0.00    +0.000 A 
ATOM     26  C   UNL     1       5.326   3.376  13.041  0.00  0.00    +0.000 A 
ATOM     27  C   UNL     1       6.229   3.329  11.976  0.00  0.00    +0.000 A 
ATOM     28  C   UNL     1       7.379   4.118  12.003  0.00  0.00    +0.000 A 
ATOM     29  C   UNL     1       7.600   4.967  13.082  0.00  0.00    +0.000 A 
ATOM     30  F   UNL     1       8.699   5.736  13.096  0.00  0.00    +0.000 F 
ENDBRANCH  22  24
ENDBRANCH  19  22
ENDBRANCH   5  19
TORSDOF 4
ENDMDL
MODEL 7
REMARK VINA RESULT:      -8.4      4.094      5.060
REMARK  Name = 
REMARK  4 active torsions:
REMARK  status: ('A' for Active; 'I' for Inactive)
REMARK    1  A    between atoms: C_2  and  C_10
REMARK    2  A    between atoms: C_14  and  S_15
REMARK    3  A    between atoms: S_15  and  N_18
REMARK    4  A    between atoms: N_18  and  C_19
REMARK                            x       y       z     vdW  Elec       q    Type
REMARK                         _______ _______ _______ _____ _____    ______ ____
ROOT
ATOM      1  C   UNL     1       6.825   5.857  17.428  0.00  0.00    +0.000 A 
ATOM      2  C   UNL     1       7.107   5.549  16.088  0.00  0.00    +0.000 A 
ATOM      3  C   UNL     1       6.402   4.544  15.422  0.00  0.00    +0.000 A 
ATOM      4  C   UNL     1       5.427   3.819  16.100  0.00  0.00    +0.000 A 
ATOM      5  C   UNL     1       5.175   4.094  17.449  0.00  0.00    +0.000 A 
ATOM      6  C   UNL     1       5.850   5.126  18.114  0.00  0.00    +0.000 A 
ENDROOT
BRANCH   1   8
ATOM      7  O   UNL     1       8.307   6.658  19.059  0.00  0.00    +0.000 OA
ATOM      8  C   UNL     1       7.629   6.930  18.067  0.00  0.00    +0.000 C 
ATOM      9  N   UNL     1       7.594   8.190  17.496  0.00  0.00    +0.000 N 
ATOM     10  C   UNL     1       8.230   9.267  17.997  0.00  0.00    +0.000 A 
ATOM     11  N   UNL     1       8.163  10.444  17.454  0.00  0.00    +0.000 NA
ATOM     12  N   UNL     1       8.949  11.213  18.279  0.00  0.00    +0.000 N 
ATOM     13  C   UNL     1       9.494  10.434  19.294  0.00  0.00    +0.000 A 
ATOM     14  O   UNL     1      10.282  10.783  20.153  0.00  0.00    +0.000 OA
ATOM     15  N   UNL     1       8.976   9.193  19.100  0.00  0.00    +0.000 N 
ATOM     16  H   UNL     1       7.092   8.364  16.636  0.00  0.00    +0.000 HD
ATOM     17  H   UNL     1       9.154  12.188  18.105  0.00  0.00    +0.000 HD
ATOM     18  H   UNL     1       9.195   8.353  19.618  0.00  0.00    +0.000 HD
ENDBRANCH   1   8
BRANCH   5  19
ATOM     19  S   UNL     1       3.933   3.161  18.323  0.00  0.00    +0.000 S 
ATOM     20  O   UNL     1       3.826   1.872  17.672  0.00  0.00    +0.000 OA
ATOM     21  O   UNL     1       4.234   3.268  19.734  0.00  0.00    +0.000 OA
BRANCH  19  22
ATOM     22  N   UNL     1       2.512   4.034  18.070  0.00  0.00    +0.000 N 
ATOM     23  H   UNL     1       1.722   3.407  17.906  0.00  0.00    +0.000 HD
BRANCH  22  24
ATOM     24  C   UNL     1       2.227   5.165  18.897  0.00  0.00    +0.000 A 
ATOM     25  C   UNL     1       1.615   4.990  20.137  0.00  0.00    +0.000 A 
ATOM     26  C   UNL     1       1.392   6.099  20.963  0.00  0.00    +0.000 A 
ATOM     27  C   UNL     1       1.750   7.380  20.535  0.00  0.00    +0.000 A 
ATOM     28  C   UNL     1       2.325   7.559  19.276  0.00  0.00    +0.000 A 
ATOM     29  C   UNL     1       2.562   6.451  18.470  0.00  0.00    +0.000 A 
ATOM     30  F   UNL     1       3.130   6.626  17.268  0.00  0.00    +0.000 F 
ENDBRANCH  22  24
ENDBRANCH  19  22
ENDBRANCH   5  19
TORSDOF 4
ENDMDL
MODEL 8
REMARK VINA RESULT:      -8.3      5.236      6.591
REMARK  Name = 
REMARK  4 active torsions:
REMARK  status: ('A' for Active; 'I' for Inactive)
REMARK    1  A    between atoms: C_2  and  C_10
REMARK    2  A    between atoms: C_14  and  S_15
REMARK    3  A    between atoms: S_15  and  N_18
REMARK    4  A    between atoms: N_18  and  C_19
REMARK                            x       y       z     vdW  Elec       q    Type
REMARK                         _______ _______ _______ _____ _____    ______ ____
ROOT
ATOM      1  C   UNL     1       7.779   7.602  18.143  0.00  0.00    +0.000 A 
ATOM      2  C   UNL     1       8.404   6.766  19.082  0.00  0.00    +0.000 A 
ATOM      3  C   UNL     1       8.026   5.428  19.212  0.00  0.00    +0.000 A 
ATOM      4  C   UNL     1       6.998   4.922  18.422  0.00  0.00    +0.000 A 
ATOM      5  C   UNL     1       6.343   5.764  17.516  0.00  0.00    +0.000 A 
ATOM      6  C   UNL     1       6.742   7.098  17.353  0.00  0.00    +0.000 A 
ENDROOT
BRANCH   1   8
ATOM      7  O   UNL     1       7.866   9.716  17.133  0.00  0.00    +0.000 OA
ATOM      8  C   UNL     1       8.231   9.016  18.078  0.00  0.00    +0.000 C 
ATOM      9  N   UNL     1       9.027   9.486  19.106  0.00  0.00    +0.000 N 
ATOM     10  C   UNL     1       9.551  10.727  19.152  0.00  0.00    +0.000 A 
ATOM     11  N   UNL     1      10.314  11.138  20.119  0.00  0.00    +0.000 NA
ATOM     12  N   UNL     1      10.603  12.433  19.759  0.00  0.00    +0.000 N 
ATOM     13  C   UNL     1       9.955  12.762  18.573  0.00  0.00    +0.000 A 
ATOM     14  O   UNL     1       9.943  13.842  18.012  0.00  0.00    +0.000 OA
ATOM     15  N   UNL     1       9.318  11.624  18.194  0.00  0.00    +0.000 N 
ATOM     16  H   UNL     1       9.244   8.913  19.909  0.00  0.00    +0.000 HD
ATOM     17  H   UNL     1      11.144  13.064  20.334  0.00  0.00    +0.000 HD
ATOM     18  H   UNL     1       8.701  11.506  17.402  0.00  0.00    +0.000 HD
ENDBRANCH   1   8
BRANCH   5  19
ATOM     19  S   UNL     1       5.021   5.121  16.510  0.00  0.00    +0.000 S 
ATOM     20  O   UNL     1       5.177   5.682  15.184  0.00  0.00    +0.000 OA
ATOM     21  O   UNL     1       4.982   3.690  16.720  0.00  0.00    +0.000 OA
BRANCH  19  22
ATOM     22  N   UNL     1       3.624   5.746  17.220  0.00  0.00    +0.000 N 
ATOM     23  H   UNL     1       3.061   6.254  16.534  0.00  0.00    +0.000 HD
BRANCH  22  24
ATOM     24  C   UNL     1       2.881   4.939  18.136  0.00  0.00    +0.000 A 
ATOM     25  C   UNL     1       1.830   4.146  17.679  0.00  0.00    +0.000 A 
ATOM     26  C   UNL     1       1.146   3.317  18.576  0.00  0.00    +0.000 A 
ATOM     27  C   UNL     1       1.491   3.306  19.930  0.00  0.00    +0.000 A 
ATOM     28  C   UNL     1       2.517   4.130  20.394  0.00  0.00    +0.000 A 
ATOM     29  C   UNL     1       3.205   4.936  19.494  0.00  0.00    +0.000 A 
ATOM     30  F   UNL     1       4.202   5.715  19.941  0.00  0.00    +0.000 F 
ENDBRANCH  22  24
ENDBRANCH  19  22
ENDBRANCH   5  19
TORSDOF 4
ENDMDL
MODEL 9
REMARK VINA RESULT:      -8.2      5.399      6.767
REMARK  Name = 
REMARK  4 active torsions:
REMARK  status: ('A' for Active; 'I' for Inactive)
REMARK    1  A    between atoms: C_2  and  C_10
REMARK    2  A    between atoms: C_14  and  S_15
REMARK    3  A    between atoms: S_15  and  N_18
REMARK    4  A    between atoms: N_18  and  C_19
REMARK                            x       y       z     vdW  Elec       q    Type
REMARK                         _______ _______ _______ _____ _____    ______ ____
ROOT
ATOM      1  C   UNL     1       7.913   7.630  18.092  0.00  0.00    +0.000 A 
ATOM      2  C   UNL     1       8.350   6.793  19.130  0.00  0.00    +0.000 A 
ATOM      3  C   UNL     1       8.052   5.428  19.123  0.00  0.00    +0.000 A 
ATOM      4  C   UNL     1       7.289   4.894  18.089  0.00  0.00    +0.000 A 
ATOM      5  C   UNL     1       6.813   5.735  17.075  0.00  0.00    +0.000 A 
ATOM      6  C   UNL     1       7.140   7.097  17.056  0.00  0.00    +0.000 A 
ENDROOT
BRANCH   1   8
ATOM      7  O   UNL     1       7.791   9.851  17.353  0.00  0.00    +0.000 OA
ATOM      8  C   UNL     1       8.260   9.072  18.182  0.00  0.00    +0.000 C 
ATOM      9  N   UNL     1       9.082   9.473  19.220  0.00  0.00    +0.000 N 
ATOM     10  C   UNL     1       9.520  10.735  19.394  0.00  0.00    +0.000 A 
ATOM     11  N   UNL     1      10.310  11.082  20.365  0.00  0.00    +0.000 NA
ATOM     12  N   UNL     1      10.486  12.430  20.157  0.00  0.00    +0.000 N 
ATOM     13  C   UNL     1       9.747  12.850  19.056  0.00  0.00    +0.000 A 
ATOM     14  O   UNL     1       9.625  13.986  18.638  0.00  0.00    +0.000 OA
ATOM     15  N   UNL     1       9.168  11.722  18.570  0.00  0.00    +0.000 N 
ATOM     16  H   UNL     1       9.387   8.823  19.932  0.00  0.00    +0.000 HD
ATOM     17  H   UNL     1      11.016  13.025  20.779  0.00  0.00    +0.000 HD
ATOM     18  H   UNL     1       8.514  11.654  17.803  0.00  0.00    +0.000 HD
ENDBRANCH   1   8
BRANCH   5  19
ATOM     19  S   UNL     1       5.829   5.055  15.755  0.00  0.00    +0.000 S 
ATOM     20  O   UNL     1       5.395   6.162  14.928  0.00  0.00    +0.000 OA
ATOM     21  O   UNL     1       6.571   3.946  15.197  0.00  0.00    +0.000 OA
BRANCH  19  22
ATOM     22  N   UNL     1       4.492   4.390  16.542  0.00  0.00    +0.000 N 
ATOM     23  H   UNL     1       4.624   3.390  16.703  0.00  0.00    +0.000 HD
BRANCH  22  24
ATOM     24  C   UNL     1       3.886   5.105  17.621  0.00  0.00    +0.000 A 
ATOM     25  C   UNL     1       3.432   6.409  17.431  0.00  0.00    +0.000 A 
ATOM     26  C   UNL     1       2.789   7.079  18.479  0.00  0.00    +0.000 A 
ATOM     27  C   UNL     1       2.630   6.458  19.721  0.00  0.00    +0.000 A 
ATOM     28  C   UNL     1       3.120   5.168  19.922  0.00  0.00    +0.000 A 
ATOM     29  C   UNL     1       3.740   4.501  18.871  0.00  0.00    +0.000 A 
ATOM     30  F   UNL     1       4.195   3.254  19.064  0.00  0.00    +0.000 F 
ENDBRANCH  22  24
ENDBRANCH  19  22
ENDBRANCH   5  19
TORSDOF 4
ENDMDL
