MODEL 1
REMARK VINA RESULT:      -8.0      0.000      0.000
REMARK  Name = 
REMARK  4 active torsions:
REMARK  status: ('A' for Active; 'I' for Inactive)
REMARK    1  A    between atoms: C_1  and  C_2
REMARK    2  A    between atoms: C_3  and  C_4
REMARK    3  A    between atoms: N_6  and  C_7
REMARK    4  A    between atoms: N_18  and  C_19
REMARK                            x       y       z     vdW  Elec       q    Type
REMARK                         _______ _______ _______ _____ _____    ______ ____
ROOT
ATOM      1  C   UNL     1       2.233   7.635  19.263  0.00  0.00    +0.000 C 
ATOM      2  O   UNL     1       2.198   6.800  20.157  0.00  0.00    +0.000 OA
ATOM      3  N   UNL     1       2.970   7.541  18.087  0.00  0.00    +0.000 N 
ATOM      4  H   UNL     1       2.905   8.361  17.489  0.00  0.00    +0.000 HD
ENDROOT
BRANCH   3   5
ATOM      5  C   UNL     1       3.803   6.496  17.625  0.00  0.00    +0.000 A 
ATOM      6  C   UNL     1       3.426   5.147  17.595  0.00  0.00    +0.000 A 
ATOM      7  C   UNL     1       4.287   4.142  17.112  0.00  0.00    +0.000 A 
ATOM      8  C   UNL     1       5.563   4.547  16.716  0.00  0.00    +0.000 A 
ATOM      9  N   UNL     1       6.668   3.882  16.263  0.00  0.00    +0.000 N 
ATOM     10  N   UNL     1       7.689   4.718  16.013  0.00  0.00    +0.000 NA
ATOM     11  N   UNL     1       7.268   5.949  16.282  0.00  0.00    +0.000 NA
ATOM     12  C   UNL     1       5.976   5.870  16.730  0.00  0.00    +0.000 A 
ATOM     13  C   UNL     1       5.083   6.864  17.166  0.00  0.00    +0.000 A 
ATOM     14  H   UNL     1       6.808   2.889  16.123  0.00  0.00    +0.000 HD
ENDBRANCH   3   5
BRANCH   1  17
ATOM     15  C   UNL     1      -0.101   8.657  21.412  0.00  0.00    +0.000 C 
ATOM     16  C   UNL     1       0.541   9.342  20.262  0.00  0.00    +0.000 A 
ATOM     17  C   UNL     1       1.483   8.900  19.338  0.00  0.00    +0.000 A 
ATOM     18  N   UNL     1       1.632   9.866  18.373  0.00  0.00    +0.000 NA
ATOM     19  N   UNL     1       0.821  10.870  18.651  0.00  0.00    +0.000 NA
ATOM     20  N   UNL     1       0.190  10.618  19.821  0.00  0.00    +0.000 N 
BRANCH  20  21
ATOM     21  C   UNL     1      -0.583  11.625  20.463  0.00  0.00    +0.000 A 
ATOM     22  C   UNL     1      -0.077  12.245  21.622  0.00  0.00    +0.000 A 
ATOM     23  C   UNL     1      -0.776  13.290  22.236  0.00  0.00    +0.000 A 
ATOM     24  C   UNL     1      -1.987  13.726  21.711  0.00  0.00    +0.000 A 
ATOM     25  C   UNL     1      -2.502  13.116  20.568  0.00  0.00    +0.000 A 
ATOM     26  C   UNL     1      -1.807  12.071  19.937  0.00  0.00    +0.000 A 
ATOM     27 CL   UNL     1      -2.621  11.321  18.607  0.00  0.00    +0.000 Cl
ENDBRANCH  20  21
ENDBRANCH   1  17
TORSDOF 3
ENDMDL
MODEL 2
REMARK VINA RESULT:      -8.0      3.253      3.640
REMARK  Name = 
REMARK  4 active torsions:
REMARK  status: ('A' for Active; 'I' for Inactive)
REMARK    1  A    between atoms: C_1  and  C_2
REMARK    2  A    between atoms: C_3  and  C_4
REMARK    3  A    between atoms: N_6  and  C_7
REMARK    4  A    between atoms: N_18  and  C_19
REMARK                            x       y       z     vdW  Elec       q    Type
REMARK                         _______ _______ _______ _____ _____    ______ ____
ROOT
ATOM      1  C   UNL     1       1.658   7.675  20.365  0.00  0.00    +0.000 C 
ATOM      2  O   UNL     1       2.191   7.871  19.282  0.00  0.00    +0.000 OA
ATOM      3  N   UNL     1       1.459   6.437  20.965  0.00  0.00    +0.000 N 
ATOM      4  H   UNL     1       0.954   6.478  21.847  0.00  0.00    +0.000 HD
ENDROOT
BRANCH   3   5
ATOM      5  C   UNL     1       1.831   5.148  20.519  0.00  0.00    +0.000 A 
ATOM      6  C   UNL     1       2.278   4.123  21.363  0.00  0.00    +0.000 A 
ATOM      7  C   UNL     1       2.626   2.850  20.872  0.00  0.00    +0.000 A 
ATOM      8  C   UNL     1       2.558   2.671  19.489  0.00  0.00    +0.000 A 
ATOM      9  N   UNL     1       2.862   1.632  18.654  0.00  0.00    +0.000 N 
ATOM     10  N   UNL     1       2.634   1.941  17.366  0.00  0.00    +0.000 NA
ATOM     11  N   UNL     1       2.162   3.182  17.335  0.00  0.00    +0.000 NA
ATOM     12  C   UNL     1       2.121   3.657  18.619  0.00  0.00    +0.000 A 
ATOM     13  C   UNL     1       1.729   4.905  19.134  0.00  0.00    +0.000 A 
ATOM     14  H   UNL     1       3.238   0.718  18.874  0.00  0.00    +0.000 HD
ENDBRANCH   3   5
BRANCH   1  17
ATOM     15  C   UNL     1      -0.129  10.360  19.520  0.00  0.00    +0.000 C 
ATOM     16  C   UNL     1       0.341   9.870  20.841  0.00  0.00    +0.000 A 
ATOM     17  C   UNL     1       1.124   8.773  21.189  0.00  0.00    +0.000 A 
ATOM     18  N   UNL     1       1.408   8.850  22.531  0.00  0.00    +0.000 NA
ATOM     19  N   UNL     1       0.850   9.942  23.019  0.00  0.00    +0.000 NA
ATOM     20  N   UNL     1       0.143  10.554  22.040  0.00  0.00    +0.000 N 
BRANCH  20  21
ATOM     21  C   UNL     1      -0.728  11.638  22.340  0.00  0.00    +0.000 A 
ATOM     22  C   UNL     1      -1.946  11.378  22.999  0.00  0.00    +0.000 A 
ATOM     23  C   UNL     1      -2.792  12.427  23.375  0.00  0.00    +0.000 A 
ATOM     24  C   UNL     1      -2.443  13.743  23.094  0.00  0.00    +0.000 A 
ATOM     25  C   UNL     1      -1.244  14.013  22.436  0.00  0.00    +0.000 A 
ATOM     26  C   UNL     1      -0.382  12.970  22.060  0.00  0.00    +0.000 A 
ATOM     27 CL   UNL     1       1.006  13.437  21.138  0.00  0.00    +0.000 Cl
ENDBRANCH  20  21
ENDBRANCH   1  17
TORSDOF 3
ENDMDL
MODEL 3
REMARK VINA RESULT:      -7.9      1.360      1.524
REMARK  Name = 
REMARK  4 active torsions:
REMARK  status: ('A' for Active; 'I' for Inactive)
REMARK    1  A    between atoms: C_1  and  C_2
REMARK    2  A    between atoms: C_3  and  C_4
REMARK    3  A    between atoms: N_6  and  C_7
REMARK    4  A    between atoms: N_18  and  C_19
REMARK                            x       y       z     vdW  Elec       q    Type
REMARK                         _______ _______ _______ _____ _____    ______ ____
ROOT
ATOM      1  C   UNL     1       2.235   7.448  19.382  0.00  0.00    +0.000 C 
ATOM      2  O   UNL     1       2.156   6.530  20.188  0.00  0.00    +0.000 OA
ATOM      3  N   UNL     1       2.998   7.449  18.220  0.00  0.00    +0.000 N 
ATOM      4  H   UNL     1       2.968   8.326  17.705  0.00  0.00    +0.000 HD
ENDROOT
BRANCH   3   5
ATOM      5  C   UNL     1       3.814   6.431  17.675  0.00  0.00    +0.000 A 
ATOM      6  C   UNL     1       3.421   5.093  17.548  0.00  0.00    +0.000 A 
ATOM      7  C   UNL     1       4.266   4.116  16.986  0.00  0.00    +0.000 A 
ATOM      8  C   UNL     1       5.543   4.534  16.610  0.00  0.00    +0.000 A 
ATOM      9  N   UNL     1       6.636   3.891  16.100  0.00  0.00    +0.000 N 
ATOM     10  N   UNL     1       7.667   4.731  15.904  0.00  0.00    +0.000 NA
ATOM     11  N   UNL     1       7.262   5.944  16.267  0.00  0.00    +0.000 NA
ATOM     12  C   UNL     1       5.973   5.847  16.718  0.00  0.00    +0.000 A 
ATOM     13  C   UNL     1       5.096   6.818  17.233  0.00  0.00    +0.000 A 
ATOM     14  H   UNL     1       6.764   2.910  15.885  0.00  0.00    +0.000 HD
ENDBRANCH   3   5
BRANCH   1  17
ATOM     15  C   UNL     1       1.245   9.008  22.157  0.00  0.00    +0.000 C 
ATOM     16  C   UNL     1       1.143   9.391  20.726  0.00  0.00    +0.000 A 
ATOM     17  C   UNL     1       1.516   8.720  19.566  0.00  0.00    +0.000 A 
ATOM     18  N   UNL     1       1.062   9.434  18.484  0.00  0.00    +0.000 NA
ATOM     19  N   UNL     1       0.419  10.501  18.923  0.00  0.00    +0.000 NA
ATOM     20  N   UNL     1       0.500  10.543  20.273  0.00  0.00    +0.000 N 
BRANCH  20  21
ATOM     21  C   UNL     1       0.075  11.694  20.992  0.00  0.00    +0.000 A 
ATOM     22  C   UNL     1      -1.100  11.626  21.767  0.00  0.00    +0.000 A 
ATOM     23  C   UNL     1      -1.507  12.716  22.545  0.00  0.00    +0.000 A 
ATOM     24  C   UNL     1      -0.757  13.887  22.555  0.00  0.00    +0.000 A 
ATOM     25  C   UNL     1       0.403  13.970  21.786  0.00  0.00    +0.000 A 
ATOM     26  C   UNL     1       0.827  12.881  21.008  0.00  0.00    +0.000 A 
ATOM     27 CL   UNL     1       2.209  13.165  20.007  0.00  0.00    +0.000 Cl
ENDBRANCH  20  21
ENDBRANCH   1  17
TORSDOF 3
ENDMDL
MODEL 4
REMARK VINA RESULT:      -7.9      2.731      3.447
REMARK  Name = 
REMARK  4 active torsions:
REMARK  status: ('A' for Active; 'I' for Inactive)
REMARK    1  A    between atoms: C_1  and  C_2
REMARK    2  A    between atoms: C_3  and  C_4
REMARK    3  A    between atoms: N_6  and  C_7
REMARK    4  A    between atoms: N_18  and  C_19
REMARK                            x       y       z     vdW  Elec       q    Type
REMARK                         _______ _______ _______ _____ _____    ______ ____
ROOT
ATOM      1  C   UNL     1       1.740   8.146  19.885  0.00  0.00    +0.000 C 
ATOM      2  O   UNL     1       1.805   8.399  18.690  0.00  0.00    +0.000 OA
ATOM      3  N   UNL     1       2.160   6.968  20.494  0.00  0.00    +0.000 N 
ATOM      4  H   UNL     1       1.977   6.929  21.494  0.00  0.00    +0.000 HD
ENDROOT
BRANCH   3   5
ATOM      5  C   UNL     1       2.773   5.828  19.926  0.00  0.00    +0.000 A 
ATOM      6  C   UNL     1       4.078   5.809  19.417  0.00  0.00    +0.000 A 
ATOM      7  C   UNL     1       4.650   4.643  18.872  0.00  0.00    +0.000 A 
ATOM      8  C   UNL     1       3.833   3.513  18.810  0.00  0.00    +0.000 A 
ATOM      9  N   UNL     1       3.999   2.252  18.312  0.00  0.00    +0.000 N 
ATOM     10  N   UNL     1       2.899   1.498  18.477  0.00  0.00    +0.000 NA
ATOM     11  N   UNL     1       1.997   2.246  19.101  0.00  0.00    +0.000 NA
ATOM     12  C   UNL     1       2.537   3.489  19.302  0.00  0.00    +0.000 A 
ATOM     13  C   UNL     1       2.002   4.649  19.890  0.00  0.00    +0.000 A 
ATOM     14  H   UNL     1       4.798   1.847  17.839  0.00  0.00    +0.000 HD
ENDBRANCH   3   5
BRANCH   1  17
ATOM     15  C   UNL     1      -0.135  10.866  19.436  0.00  0.00    +0.000 C 
ATOM     16  C   UNL     1       0.347  10.199  20.672  0.00  0.00    +0.000 A 
ATOM     17  C   UNL     1       1.165   9.089  20.859  0.00  0.00    +0.000 A 
ATOM     18  N   UNL     1       1.441   8.973  22.200  0.00  0.00    +0.000 NA
ATOM     19  N   UNL     1       0.845   9.961  22.841  0.00  0.00    +0.000 NA
ATOM     20  N   UNL     1       0.121  10.689  21.959  0.00  0.00    +0.000 N 
BRANCH  20  21
ATOM     21  C   UNL     1      -0.788  11.686  22.410  0.00  0.00    +0.000 A 
ATOM     22  C   UNL     1      -1.984  11.290  23.042  0.00  0.00    +0.000 A 
ATOM     23  C   UNL     1      -2.865  12.244  23.564  0.00  0.00    +0.000 A 
ATOM     24  C   UNL     1      -2.572  13.599  23.458  0.00  0.00    +0.000 A 
ATOM     25  C   UNL     1      -1.396  14.003  22.828  0.00  0.00    +0.000 A 
ATOM     26  C   UNL     1      -0.499  13.056  22.307  0.00  0.00    +0.000 A 
ATOM     27 CL   UNL     1       0.854  13.699  21.441  0.00  0.00    +0.000 Cl
ENDBRANCH  20  21
ENDBRANCH   1  17
TORSDOF 3
ENDMDL
MODEL 5
REMARK VINA RESULT:      -7.9      2.456      2.857
REMARK  Name = 
REMARK  4 active torsions:
REMARK  status: ('A' for Active; 'I' for Inactive)
REMARK    1  A    between atoms: C_1  and  C_2
REMARK    2  A    between atoms: C_3  and  C_4
REMARK    3  A    between atoms: N_6  and  C_7
REMARK    4  A    between atoms: N_18  and  C_19
REMARK                            x       y       z     vdW  Elec       q    Type
REMARK                         _______ _______ _______ _____ _____    ______ ____
ROOT
ATOM      1  C   UNL     1       3.069   6.955  18.266  0.00  0.00    +0.000 C 
ATOM      2  O   UNL     1       4.236   7.027  17.907  0.00  0.00    +0.000 OA
ATOM      3  N   UNL     1       2.371   5.785  18.543  0.00  0.00    +0.000 N 
ATOM      4  H   UNL     1       1.393   5.931  18.781  0.00  0.00    +0.000 HD
ENDROOT
BRANCH   3   5
ATOM      5  C   UNL     1       2.813   4.442  18.515  0.00  0.00    +0.000 A 
ATOM      6  C   UNL     1       2.404   3.500  17.563  0.00  0.00    +0.000 A 
ATOM      7  C   UNL     1       2.883   2.175  17.569  0.00  0.00    +0.000 A 
ATOM      8  C   UNL     1       3.748   1.827  18.608  0.00  0.00    +0.000 A 
ATOM      9  N   UNL     1       4.359   0.661  18.979  0.00  0.00    +0.000 N 
ATOM     10  N   UNL     1       5.110   0.818  20.082  0.00  0.00    +0.000 NA
ATOM     11  N   UNL     1       5.019   2.093  20.445  0.00  0.00    +0.000 NA
ATOM     12  C   UNL     1       4.179   2.727  19.569  0.00  0.00    +0.000 A 
ATOM     13  C   UNL     1       3.729   4.058  19.515  0.00  0.00    +0.000 A 
ATOM     14  H   UNL     1       4.298  -0.258  18.560  0.00  0.00    +0.000 HD
ENDBRANCH   3   5
BRANCH   1  17
ATOM     15  C   UNL     1       1.206   7.956  20.844  0.00  0.00    +0.000 C 
ATOM     16  C   UNL     1       1.481   8.587  19.529  0.00  0.00    +0.000 A 
ATOM     17  C   UNL     1       2.224   8.149  18.436  0.00  0.00    +0.000 A 
ATOM     18  N   UNL     1       2.035   9.032  17.400  0.00  0.00    +0.000 NA
ATOM     19  N   UNL     1       1.207   9.980  17.799  0.00  0.00    +0.000 NA
ATOM     20  N   UNL     1       0.899   9.780  19.102  0.00  0.00    +0.000 N 
BRANCH  20  21
ATOM     21  C   UNL     1       0.193  10.768  19.842  0.00  0.00    +0.000 A 
ATOM     22  C   UNL     1       0.866  11.479  20.856  0.00  0.00    +0.000 A 
ATOM     23  C   UNL     1       0.223  12.508  21.553  0.00  0.00    +0.000 A 
ATOM     24  C   UNL     1      -1.095  12.837  21.258  0.00  0.00    +0.000 A 
ATOM     25  C   UNL     1      -1.774  12.137  20.262  0.00  0.00    +0.000 A 
ATOM     26  C   UNL     1      -1.139  11.107  19.549  0.00  0.00    +0.000 A 
ATOM     27 CL   UNL     1      -2.136  10.239  18.433  0.00  0.00    +0.000 Cl
ENDBRANCH  20  21
ENDBRANCH   1  17
TORSDOF 3
ENDMDL
MODEL 6
REMARK VINA RESULT:      -7.8      3.002      3.452
REMARK  Name = 
REMARK  4 active torsions:
REMARK  status: ('A' for Active; 'I' for Inactive)
REMARK    1  A    between atoms: C_1  and  C_2
REMARK    2  A    between atoms: C_3  and  C_4
REMARK    3  A    between atoms: N_6  and  C_7
REMARK    4  A    between atoms: N_18  and  C_19
REMARK                            x       y       z     vdW  Elec       q    Type
REMARK                         _______ _______ _______ _____ _____    ______ ____
ROOT
ATOM      1  C   UNL     1       1.553   7.785  20.335  0.00  0.00    +0.000 C 
ATOM      2  O   UNL     1       2.026   7.999  19.227  0.00  0.00    +0.000 OA
ATOM      3  N   UNL     1       1.425   6.541  20.942  0.00  0.00    +0.000 N 
ATOM      4  H   UNL     1       0.962   6.565  21.847  0.00  0.00    +0.000 HD
ENDROOT
BRANCH   3   5
ATOM      5  C   UNL     1       1.819   5.265  20.476  0.00  0.00    +0.000 A 
ATOM      6  C   UNL     1       0.933   4.202  20.254  0.00  0.00    +0.000 A 
ATOM      7  C   UNL     1       1.372   2.952  19.777  0.00  0.00    +0.000 A 
ATOM      8  C   UNL     1       2.747   2.801  19.586  0.00  0.00    +0.000 A 
ATOM      9  N   UNL     1       3.539   1.755  19.204  0.00  0.00    +0.000 N 
ATOM     10  N   UNL     1       4.838   2.095  19.174  0.00  0.00    +0.000 NA
ATOM     11  N   UNL     1       4.921   3.375  19.520  0.00  0.00    +0.000 NA
ATOM     12  C   UNL     1       3.657   3.826  19.793  0.00  0.00    +0.000 A 
ATOM     13  C   UNL     1       3.192   5.082  20.220  0.00  0.00    +0.000 A 
ATOM     14  H   UNL     1       3.282   0.802  18.976  0.00  0.00    +0.000 HD
ENDBRANCH   3   5
BRANCH   1  17
ATOM     15  C   UNL     1      -0.236  10.489  19.556  0.00  0.00    +0.000 C 
ATOM     16  C   UNL     1       0.238   9.969  20.863  0.00  0.00    +0.000 A 
ATOM     17  C   UNL     1       1.022   8.865  21.184  0.00  0.00    +0.000 A 
ATOM     18  N   UNL     1       1.310   8.911  22.527  0.00  0.00    +0.000 NA
ATOM     19  N   UNL     1       0.755   9.992  23.041  0.00  0.00    +0.000 NA
ATOM     20  N   UNL     1       0.044  10.626  22.078  0.00  0.00    +0.000 N 
BRANCH  20  21
ATOM     21  C   UNL     1      -0.825  11.703  22.406  0.00  0.00    +0.000 A 
ATOM     22  C   UNL     1      -2.047  11.428  23.051  0.00  0.00    +0.000 A 
ATOM     23  C   UNL     1      -2.892  12.468  23.454  0.00  0.00    +0.000 A 
ATOM     24  C   UNL     1      -2.537  13.791  23.213  0.00  0.00    +0.000 A 
ATOM     25  C   UNL     1      -1.335  14.076  22.568  0.00  0.00    +0.000 A 
ATOM     26  C   UNL     1      -0.473  13.042  22.167  0.00  0.00    +0.000 A 
ATOM     27 CL   UNL     1       0.920  13.531  21.265  0.00  0.00    +0.000 Cl
ENDBRANCH  20  21
ENDBRANCH   1  17
TORSDOF 3
ENDMDL
MODEL 7
REMARK VINA RESULT:      -7.8      2.733      3.014
REMARK  Name = 
REMARK  4 active torsions:
REMARK  status: ('A' for Active; 'I' for Inactive)
REMARK    1  A    between atoms: C_1  and  C_2
REMARK    2  A    between atoms: C_3  and  C_4
REMARK    3  A    between atoms: N_6  and  C_7
REMARK    4  A    between atoms: N_18  and  C_19
REMARK                            x       y       z     vdW  Elec       q    Type
REMARK                         _______ _______ _______ _____ _____    ______ ____
ROOT
ATOM      1  C   UNL     1       2.803   7.259  18.205  0.00  0.00    +0.000 C 
ATOM      2  O   UNL     1       3.858   7.329  17.589  0.00  0.00    +0.000 OA
ATOM      3  N   UNL     1       2.188   6.091  18.642  0.00  0.00    +0.000 N 
ATOM      4  H   UNL     1       1.290   6.238  19.096  0.00  0.00    +0.000 HD
ENDROOT
BRANCH   3   5
ATOM      5  C   UNL     1       2.616   4.748  18.525  0.00  0.00    +0.000 A 
ATOM      6  C   UNL     1       2.140   3.854  17.557  0.00  0.00    +0.000 A 
ATOM      7  C   UNL     1       2.606   2.528  17.471  0.00  0.00    +0.000 A 
ATOM      8  C   UNL     1       3.530   2.125  18.437  0.00  0.00    +0.000 A 
ATOM      9  N   UNL     1       4.151   0.940  18.715  0.00  0.00    +0.000 N 
ATOM     10  N   UNL     1       4.970   1.039  19.776  0.00  0.00    +0.000 NA
ATOM     11  N   UNL     1       4.913   2.296  20.203  0.00  0.00    +0.000 NA
ATOM     12  C   UNL     1       4.027   2.977  19.411  0.00  0.00    +0.000 A 
ATOM     13  C   UNL     1       3.588   4.312  19.447  0.00  0.00    +0.000 A 
ATOM     14  H   UNL     1       4.056   0.041  18.259  0.00  0.00    +0.000 HD
ENDBRANCH   3   5
BRANCH   1  17
ATOM     15  C   UNL     1       1.502   8.237  21.115  0.00  0.00    +0.000 C 
ATOM     16  C   UNL     1       1.511   8.882  19.778  0.00  0.00    +0.000 A 
ATOM     17  C   UNL     1       2.016   8.454  18.554  0.00  0.00    +0.000 A 
ATOM     18  N   UNL     1       1.628   9.349  17.586  0.00  0.00    +0.000 NA
ATOM     19  N   UNL     1       0.903  10.296  18.153  0.00  0.00    +0.000 NA
ATOM     20  N   UNL     1       0.861  10.082  19.489  0.00  0.00    +0.000 N 
BRANCH  20  21
ATOM     21  C   UNL     1       0.324  11.064  20.366  0.00  0.00    +0.000 A 
ATOM     22  C   UNL     1      -0.823  10.755  21.124  0.00  0.00    +0.000 A 
ATOM     23  C   UNL     1      -1.334  11.671  22.051  0.00  0.00    +0.000 A 
ATOM     24  C   UNL     1      -0.718  12.904  22.230  0.00  0.00    +0.000 A 
ATOM     25  C   UNL     1       0.413  13.225  21.480  0.00  0.00    +0.000 A 
ATOM     26  C   UNL     1       0.942  12.312  20.553  0.00  0.00    +0.000 A 
ATOM     27 CL   UNL     1       2.267  12.889  19.602  0.00  0.00    +0.000 Cl
ENDBRANCH  20  21
ENDBRANCH   1  17
TORSDOF 3
ENDMDL
MODEL 8
REMARK VINA RESULT:      -7.8      6.000      8.414
REMARK  Name = 
REMARK  4 active torsions:
REMARK  status: ('A' for Active; 'I' for Inactive)
REMARK    1  A    between atoms: C_1  and  C_2
REMARK    2  A    between atoms: C_3  and  C_4
REMARK    3  A    between atoms: N_6  and  C_7
REMARK    4  A    between atoms: N_18  and  C_19
REMARK                            x       y       z     vdW  Elec       q    Type
REMARK                         _______ _______ _______ _____ _____    ______ ____
ROOT
ATOM      1  C   UNL     1       7.704   7.628  17.663  0.00  0.00    +0.000 C 
ATOM      2  O   UNL     1       8.289   7.570  16.590  0.00  0.00    +0.000 OA
ATOM      3  N   UNL     1       7.805   8.657  18.593  0.00  0.00    +0.000 N 
ATOM      4  H   UNL     1       7.276   8.499  19.447  0.00  0.00    +0.000 HD
ENDROOT
BRANCH   3   5
ATOM      5  C   UNL     1       8.545   9.861  18.530  0.00  0.00    +0.000 A 
ATOM      6  C   UNL     1       8.296  10.888  17.611  0.00  0.00    +0.000 A 
ATOM      7  C   UNL     1       9.053  12.076  17.596  0.00  0.00    +0.000 A 
ATOM      8  C   UNL     1      10.106  12.160  18.508  0.00  0.00    +0.000 A 
ATOM      9  N   UNL     1      11.073  13.095  18.752  0.00  0.00    +0.000 N 
ATOM     10  N   UNL     1      11.892  12.720  19.749  0.00  0.00    +0.000 NA
ATOM     11  N   UNL     1      11.467  11.540  20.188  0.00  0.00    +0.000 NA
ATOM     12  C   UNL     1      10.386  11.168  19.434  0.00  0.00    +0.000 A 
ATOM     13  C   UNL     1       9.586  10.012  19.468  0.00  0.00    +0.000 A 
ATOM     14  H   UNL     1      11.250  13.974  18.284  0.00  0.00    +0.000 HD
ENDBRANCH   3   5
BRANCH   1  17
ATOM     15  C   UNL     1       4.522   6.984  16.905  0.00  0.00    +0.000 C 
ATOM     16  C   UNL     1       5.488   6.267  17.775  0.00  0.00    +0.000 A 
ATOM     17  C   UNL     1       6.803   6.560  18.126  0.00  0.00    +0.000 A 
ATOM     18  N   UNL     1       7.207   5.664  19.087  0.00  0.00    +0.000 NA
ATOM     19  N   UNL     1       6.204   4.847  19.351  0.00  0.00    +0.000 NA
ATOM     20  N   UNL     1       5.166   5.140  18.532  0.00  0.00    +0.000 N 
BRANCH  20  21
ATOM     21  C   UNL     1       4.034   4.282  18.456  0.00  0.00    +0.000 A 
ATOM     22  C   UNL     1       4.141   3.064  17.756  0.00  0.00    +0.000 A 
ATOM     23  C   UNL     1       3.071   2.163  17.725  0.00  0.00    +0.000 A 
ATOM     24  C   UNL     1       1.882   2.464  18.380  0.00  0.00    +0.000 A 
ATOM     25  C   UNL     1       1.762   3.670  19.069  0.00  0.00    +0.000 A 
ATOM     26  C   UNL     1       2.830   4.580  19.116  0.00  0.00    +0.000 A 
ATOM     27 CL   UNL     1       2.500   6.089  19.896  0.00  0.00    +0.000 Cl
ENDBRANCH  20  21
ENDBRANCH   1  17
TORSDOF 3
ENDMDL
MODEL 9
REMARK VINA RESULT:      -7.8      1.207      1.595
REMARK  Name = 
REMARK  4 active torsions:
REMARK  status: ('A' for Active; 'I' for Inactive)
REMARK    1  A    between atoms: C_1  and  C_2
REMARK    2  A    between atoms: C_3  and  C_4
REMARK    3  A    between atoms: N_6  and  C_7
REMARK    4  A    between atoms: N_18  and  C_19
REMARK                            x       y       z     vdW  Elec       q    Type
REMARK                         _______ _______ _______ _____ _____    ______ ____
ROOT
ATOM      1  C   UNL     1       2.307   6.788  19.703  0.00  0.00    +0.000 C 
ATOM      2  O   UNL     1       2.217   5.743  20.333  0.00  0.00    +0.000 OA
ATOM      3  N   UNL     1       3.046   6.979  18.541  0.00  0.00    +0.000 N 
ATOM      4  H   UNL     1       3.032   7.934  18.192  0.00  0.00    +0.000 HD
ENDROOT
BRANCH   3   5
ATOM      5  C   UNL     1       3.822   6.055  17.802  0.00  0.00    +0.000 A 
ATOM      6  C   UNL     1       3.436   4.733  17.548  0.00  0.00    +0.000 A 
ATOM      7  C   UNL     1       4.238   3.853  16.795  0.00  0.00    +0.000 A 
ATOM      8  C   UNL     1       5.469   4.346  16.358  0.00  0.00    +0.000 A 
ATOM      9  N   UNL     1       6.518   3.797  15.674  0.00  0.00    +0.000 N 
ATOM     10  N   UNL     1       7.513   4.681  15.490  0.00  0.00    +0.000 NA
ATOM     11  N   UNL     1       7.128   5.830  16.034  0.00  0.00    +0.000 NA
ATOM     12  C   UNL     1       5.888   5.647  16.586  0.00  0.00    +0.000 A 
ATOM     13  C   UNL     1       5.050   6.525  17.296  0.00  0.00    +0.000 A 
ATOM     14  H   UNL     1       6.638   2.852  15.330  0.00  0.00    +0.000 HD
ENDBRANCH   3   5
BRANCH   1  17
ATOM     15  C   UNL     1       1.850   9.681  18.111  0.00  0.00    +0.000 C 
ATOM     16  C   UNL     1       1.401   9.215  19.447  0.00  0.00    +0.000 A 
ATOM     17  C   UNL     1       1.629   8.023  20.129  0.00  0.00    +0.000 A 
ATOM     18  N   UNL     1       1.127   8.148  21.402  0.00  0.00    +0.000 NA
ATOM     19  N   UNL     1       0.616   9.358  21.538  0.00  0.00    +0.000 NA
ATOM     20  N   UNL     1       0.707  10.012  20.356  0.00  0.00    +0.000 N 
BRANCH  20  21
ATOM     21  C   UNL     1       0.045  11.256  20.161  0.00  0.00    +0.000 A 
ATOM     22  C   UNL     1       0.519  12.399  20.834  0.00  0.00    +0.000 A 
ATOM     23  C   UNL     1      -0.062  13.653  20.609  0.00  0.00    +0.000 A 
ATOM     24  C   UNL     1      -1.123  13.783  19.720  0.00  0.00    +0.000 A 
ATOM     25  C   UNL     1      -1.606  12.658  19.054  0.00  0.00    +0.000 A 
ATOM     26  C   UNL     1      -1.027  11.395  19.264  0.00  0.00    +0.000 A 
ATOM     27 CL   UNL     1      -1.806  10.069  18.472  0.00  0.00    +0.000 Cl
ENDBRANCH  20  21
ENDBRANCH   1  17
TORSDOF 3
ENDMDL
