MODEL 1
REMARK VINA RESULT:      -8.4      0.000      0.000
REMARK  Name = 
REMARK  4 active torsions:
REMARK  status: ('A' for Active; 'I' for Inactive)
REMARK    1  A    between atoms: C_2  and  C_17
REMARK    2  A    between atoms: N_3  and  C_4
REMARK    3  A    between atoms: C_7  and  C_8
REMARK    4  A    between atoms: C_19  and  C_20
REMARK                            x       y       z     vdW  Elec       q    Type
REMARK                         _______ _______ _______ _____ _____    ______ ____
ROOT
ATOM      1  O   UNL     1       1.148   9.278  18.517  0.00  0.00    +0.000 OA
ATOM      2  C   UNL     1       1.492   8.548  19.443  0.00  0.00    +0.000 C 
ATOM      3  N   UNL     1       1.168   8.719  20.781  0.00  0.00    +0.000 N 
ATOM      4  H   UNL     1       1.689   8.127  21.420  0.00  0.00    +0.000 HD
ENDROOT
BRANCH   3   5
ATOM      5  C   UNL     1       0.375   9.764  21.290  0.00  0.00    +0.000 A 
ATOM      6  C   UNL     1       0.263  10.995  20.637  0.00  0.00    +0.000 A 
ATOM      7  C   UNL     1      -0.443  12.050  21.210  0.00  0.00    +0.000 A 
ATOM      8  C   UNL     1      -0.991  11.909  22.483  0.00  0.00    +0.000 A 
ATOM      9  C   UNL     1      -0.987  10.651  23.096  0.00  0.00    +0.000 A 
ATOM     10  C   UNL     1      -0.317   9.574  22.492  0.00  0.00    +0.000 A 
BRANCH   8  11
ATOM     11  C   UNL     1      -1.536  13.086  23.214  0.00  0.00    +0.000 C 
ATOM     12  O   UNL     1      -0.746  13.817  23.808  0.00  0.00    +0.000 OA
ATOM     13  N   UNL     1      -2.898  13.351  23.140  0.00  0.00    +0.000 N 
ATOM     14  C   UNL     1      -3.915  12.661  22.358  0.00  0.00    +0.000 C 
ATOM     15  C   UNL     1      -4.888  13.756  21.974  0.00  0.00    +0.000 C 
ATOM     16  C   UNL     1      -4.867  14.681  23.181  0.00  0.00    +0.000 C 
ATOM     17  C   UNL     1      -3.455  14.547  23.750  0.00  0.00    +0.000 C 
ENDBRANCH   8  11
ENDBRANCH   3   5
BRANCH   2  18
ATOM     18  C   UNL     1       2.378   7.404  19.183  0.00  0.00    +0.000 A 
ATOM     19  C   UNL     1       3.312   7.321  18.116  0.00  0.00    +0.000 A 
ATOM     20  C   UNL     1       3.953   6.110  18.252  0.00  0.00    +0.000 A 
ATOM     21  N   UNL     1       3.350   5.527  19.341  0.00  0.00    +0.000 N 
ATOM     22  N   UNL     1       2.422   6.299  19.948  0.00  0.00    +0.000 NA
ATOM     23  H   UNL     1       3.556   4.620  19.745  0.00  0.00    +0.000 HD
BRANCH  20  24
ATOM     24  C   UNL     1       5.063   5.524  17.505  0.00  0.00    +0.000 A 
ATOM     25  C   UNL     1       6.303   5.334  18.137  0.00  0.00    +0.000 A 
ATOM     26  C   UNL     1       7.368   4.730  17.463  0.00  0.00    +0.000 A 
ATOM     27  C   UNL     1       7.209   4.315  16.144  0.00  0.00    +0.000 A 
ATOM     28  C   UNL     1       5.990   4.522  15.501  0.00  0.00    +0.000 A 
ATOM     29 CL   UNL     1       5.793   4.018  13.868  0.00  0.00    +0.000 Cl
ATOM     30  C   UNL     1       4.921   5.125  16.171  0.00  0.00    +0.000 A 
ENDBRANCH  20  24
ENDBRANCH   2  18
TORSDOF 4
ENDMDL
MODEL 2
REMARK VINA RESULT:      -8.3      4.230     10.926
REMARK  Name = 
REMARK  4 active torsions:
REMARK  status: ('A' for Active; 'I' for Inactive)
REMARK    1  A    between atoms: C_2  and  C_17
REMARK    2  A    between atoms: N_3  and  C_4
REMARK    3  A    between atoms: C_7  and  C_8
REMARK    4  A    between atoms: C_19  and  C_20
REMARK                            x       y       z     vdW  Elec       q    Type
REMARK                         _______ _______ _______ _____ _____    ______ ____
ROOT
ATOM      1  O   UNL     1       1.269  11.892  18.767  0.00  0.00    +0.000 OA
ATOM      2  C   UNL     1       0.380  11.322  19.395  0.00  0.00    +0.000 C 
ATOM      3  N   UNL     1       0.312   9.963  19.662  0.00  0.00    +0.000 N 
ATOM      4  H   UNL     1      -0.581   9.650  20.031  0.00  0.00    +0.000 HD
ENDROOT
BRANCH   3   5
ATOM      5  C   UNL     1       1.270   9.014  19.259  0.00  0.00    +0.000 A 
ATOM      6  C   UNL     1       1.785   8.986  17.960  0.00  0.00    +0.000 A 
ATOM      7  C   UNL     1       2.653   7.977  17.553  0.00  0.00    +0.000 A 
ATOM      8  C   UNL     1       2.966   6.936  18.426  0.00  0.00    +0.000 A 
ATOM      9  C   UNL     1       2.553   7.013  19.761  0.00  0.00    +0.000 A 
ATOM     10  C   UNL     1       1.718   8.060  20.181  0.00  0.00    +0.000 A 
BRANCH   8  11
ATOM     11  C   UNL     1       3.691   5.728  17.944  0.00  0.00    +0.000 C 
ATOM     12  O   UNL     1       4.911   5.795  17.815  0.00  0.00    +0.000 OA
ATOM     13  N   UNL     1       2.974   4.558  17.723  0.00  0.00    +0.000 N 
ATOM     14  C   UNL     1       1.562   4.298  17.977  0.00  0.00    +0.000 C 
ATOM     15  C   UNL     1       1.525   2.840  18.383  0.00  0.00    +0.000 C 
ATOM     16  C   UNL     1       2.627   2.214  17.540  0.00  0.00    +0.000 C 
ATOM     17  C   UNL     1       3.655   3.329  17.354  0.00  0.00    +0.000 C 
ENDBRANCH   8  11
ENDBRANCH   3   5
BRANCH   2  18
ATOM     18  C   UNL     1      -0.776  12.087  19.883  0.00  0.00    +0.000 A 
ATOM     19  C   UNL     1      -1.703  11.633  20.859  0.00  0.00    +0.000 A 
ATOM     20  C   UNL     1      -2.605  12.658  21.047  0.00  0.00    +0.000 A 
ATOM     21  N   UNL     1      -2.204  13.629  20.161  0.00  0.00    +0.000 N 
ATOM     22  N   UNL     1      -1.082  13.330  19.471  0.00  0.00    +0.000 NA
ATOM     23  H   UNL     1      -2.633  14.535  20.008  0.00  0.00    +0.000 HD
BRANCH  20  24
ATOM     24  C   UNL     1      -3.715  12.796  21.985  0.00  0.00    +0.000 A 
ATOM     25  C   UNL     1      -3.498  12.583  23.356  0.00  0.00    +0.000 A 
ATOM     26  C   UNL     1      -4.529  12.758  24.284  0.00  0.00    +0.000 A 
ATOM     27  C   UNL     1      -5.795  13.139  23.849  0.00  0.00    +0.000 A 
ATOM     28  C   UNL     1      -6.026  13.328  22.488  0.00  0.00    +0.000 A 
ATOM     29 CL   UNL     1      -7.593  13.792  21.948  0.00  0.00    +0.000 Cl
ATOM     30  C   UNL     1      -4.998  13.156  21.556  0.00  0.00    +0.000 A 
ENDBRANCH  20  24
ENDBRANCH   2  18
TORSDOF 4
ENDMDL
MODEL 3
REMARK VINA RESULT:      -8.2      1.006      1.729
REMARK  Name = 
REMARK  4 active torsions:
REMARK  status: ('A' for Active; 'I' for Inactive)
REMARK    1  A    between atoms: C_2  and  C_17
REMARK    2  A    between atoms: N_3  and  C_4
REMARK    3  A    between atoms: C_7  and  C_8
REMARK    4  A    between atoms: C_19  and  C_20
REMARK                            x       y       z     vdW  Elec       q    Type
REMARK                         _______ _______ _______ _____ _____    ______ ____
ROOT
ATOM      1  O   UNL     1       0.998   9.306  18.652  0.00  0.00    +0.000 OA
ATOM      2  C   UNL     1       1.357   8.581  19.576  0.00  0.00    +0.000 C 
ATOM      3  N   UNL     1       1.035   8.745  20.916  0.00  0.00    +0.000 N 
ATOM      4  H   UNL     1       1.569   8.161  21.552  0.00  0.00    +0.000 HD
ENDROOT
BRANCH   3   5
ATOM      5  C   UNL     1       0.226   9.775  21.429  0.00  0.00    +0.000 A 
ATOM      6  C   UNL     1      -0.292   9.733  22.727  0.00  0.00    +0.000 A 
ATOM      7  C   UNL     1      -1.174  10.711  23.179  0.00  0.00    +0.000 A 
ATOM      8  C   UNL     1      -1.606  11.713  22.312  0.00  0.00    +0.000 A 
ATOM      9  C   UNL     1      -1.008  11.833  21.052  0.00  0.00    +0.000 A 
ATOM     10  C   UNL     1      -0.081  10.873  20.616  0.00  0.00    +0.000 A 
BRANCH   8  11
ATOM     11  C   UNL     1      -2.723  12.620  22.691  0.00  0.00    +0.000 C 
ATOM     12  O   UNL     1      -3.874  12.239  22.492  0.00  0.00    +0.000 OA
ATOM     13  N   UNL     1      -2.427  13.827  23.314  0.00  0.00    +0.000 N 
ATOM     14  C   UNL     1      -1.128  14.331  23.742  0.00  0.00    +0.000 C 
ATOM     15  C   UNL     1      -1.437  15.121  24.996  0.00  0.00    +0.000 C 
ATOM     16  C   UNL     1      -2.809  15.714  24.707  0.00  0.00    +0.000 C 
ATOM     17  C   UNL     1      -3.489  14.693  23.796  0.00  0.00    +0.000 C 
ENDBRANCH   8  11
ENDBRANCH   3   5
BRANCH   2  18
ATOM     18  C   UNL     1       2.262   7.453  19.311  0.00  0.00    +0.000 A 
ATOM     19  C   UNL     1       3.201   7.393  18.246  0.00  0.00    +0.000 A 
ATOM     20  C   UNL     1       3.861   6.191  18.377  0.00  0.00    +0.000 A 
ATOM     21  N   UNL     1       3.264   5.591  19.460  0.00  0.00    +0.000 N 
ATOM     22  N   UNL     1       2.322   6.344  20.068  0.00  0.00    +0.000 NA
ATOM     23  H   UNL     1       3.483   4.684  19.858  0.00  0.00    +0.000 HD
BRANCH  20  24
ATOM     24  C   UNL     1       4.983   5.629  17.629  0.00  0.00    +0.000 A 
ATOM     25  C   UNL     1       6.229   5.474  18.257  0.00  0.00    +0.000 A 
ATOM     26  C   UNL     1       7.307   4.892  17.584  0.00  0.00    +0.000 A 
ATOM     27  C   UNL     1       7.153   4.465  16.268  0.00  0.00    +0.000 A 
ATOM     28  C   UNL     1       5.927   4.636  15.629  0.00  0.00    +0.000 A 
ATOM     29 CL   UNL     1       5.736   4.116  14.000  0.00  0.00    +0.000 Cl
ATOM     30  C   UNL     1       4.845   5.217  16.298  0.00  0.00    +0.000 A 
ENDBRANCH  20  24
ENDBRANCH   2  18
TORSDOF 4
ENDMDL
MODEL 4
REMARK VINA RESULT:      -8.2      4.320     10.850
REMARK  Name = 
REMARK  4 active torsions:
REMARK  status: ('A' for Active; 'I' for Inactive)
REMARK    1  A    between atoms: C_2  and  C_17
REMARK    2  A    between atoms: N_3  and  C_4
REMARK    3  A    between atoms: C_7  and  C_8
REMARK    4  A    between atoms: C_19  and  C_20
REMARK                            x       y       z     vdW  Elec       q    Type
REMARK                         _______ _______ _______ _____ _____    ______ ____
ROOT
ATOM      1  O   UNL     1       1.823  11.678  18.599  0.00  0.00    +0.000 OA
ATOM      2  C   UNL     1       0.794  11.170  19.038  0.00  0.00    +0.000 C 
ATOM      3  N   UNL     1       0.587   9.820  19.275  0.00  0.00    +0.000 N 
ATOM      4  H   UNL     1      -0.379   9.568  19.461  0.00  0.00    +0.000 HD
ENDROOT
BRANCH   3   5
ATOM      5  C   UNL     1       1.540   8.808  19.059  0.00  0.00    +0.000 A 
ATOM      6  C   UNL     1       2.207   8.667  17.839  0.00  0.00    +0.000 A 
ATOM      7  C   UNL     1       3.069   7.598  17.611  0.00  0.00    +0.000 A 
ATOM      8  C   UNL     1       3.225   6.612  18.584  0.00  0.00    +0.000 A 
ATOM      9  C   UNL     1       2.657   6.800  19.849  0.00  0.00    +0.000 A 
ATOM     10  C   UNL     1       1.827   7.907  20.092  0.00  0.00    +0.000 A 
BRANCH   8  11
ATOM     11  C   UNL     1       3.945   5.345  18.277  0.00  0.00    +0.000 C 
ATOM     12  O   UNL     1       5.170   5.334  18.377  0.00  0.00    +0.000 OA
ATOM     13  N   UNL     1       3.205   4.212  17.958  0.00  0.00    +0.000 N 
ATOM     14  C   UNL     1       1.757   4.047  17.950  0.00  0.00    +0.000 C 
ATOM     15  C   UNL     1       1.550   2.611  18.381  0.00  0.00    +0.000 C 
ATOM     16  C   UNL     1       2.744   1.888  17.775  0.00  0.00    +0.000 C 
ATOM     17  C   UNL     1       3.860   2.931  17.755  0.00  0.00    +0.000 C 
ENDBRANCH   8  11
ENDBRANCH   3   5
BRANCH   2  18
ATOM     18  C   UNL     1      -0.383  12.012  19.297  0.00  0.00    +0.000 A 
ATOM     19  C   UNL     1      -1.648  11.535  19.732  0.00  0.00    +0.000 A 
ATOM     20  C   UNL     1      -2.452  12.644  19.882  0.00  0.00    +0.000 A 
ATOM     21  N   UNL     1      -1.656  13.695  19.494  0.00  0.00    +0.000 N 
ATOM     22  N   UNL     1      -0.390  13.351  19.172  0.00  0.00    +0.000 NA
ATOM     23  H   UNL     1      -1.907  14.678  19.465  0.00  0.00    +0.000 HD
BRANCH  20  24
ATOM     24  C   UNL     1      -3.816  12.776  20.385  0.00  0.00    +0.000 A 
ATOM     25  C   UNL     1      -4.901  12.507  19.535  0.00  0.00    +0.000 A 
ATOM     26  C   UNL     1      -6.216  12.575  20.003  0.00  0.00    +0.000 A 
ATOM     27  C   UNL     1      -6.463  12.923  21.328  0.00  0.00    +0.000 A 
ATOM     28  C   UNL     1      -5.395  13.216  22.173  0.00  0.00    +0.000 A 
ATOM     29 CL   UNL     1      -5.698  13.654  23.809  0.00  0.00    +0.000 Cl
ATOM     30  C   UNL     1      -4.077  13.148  21.710  0.00  0.00    +0.000 A 
ENDBRANCH  20  24
ENDBRANCH   2  18
TORSDOF 4
ENDMDL
MODEL 5
REMARK VINA RESULT:      -8.2      4.045     10.796
REMARK  Name = 
REMARK  4 active torsions:
REMARK  status: ('A' for Active; 'I' for Inactive)
REMARK    1  A    between atoms: C_2  and  C_17
REMARK    2  A    between atoms: N_3  and  C_4
REMARK    3  A    between atoms: C_7  and  C_8
REMARK    4  A    between atoms: C_19  and  C_20
REMARK                            x       y       z     vdW  Elec       q    Type
REMARK                         _______ _______ _______ _____ _____    ______ ____
ROOT
ATOM      1  O   UNL     1       1.762  11.959  19.546  0.00  0.00    +0.000 OA
ATOM      2  C   UNL     1       0.639  11.461  19.536  0.00  0.00    +0.000 C 
ATOM      3  N   UNL     1       0.341  10.125  19.312  0.00  0.00    +0.000 N 
ATOM      4  H   UNL     1      -0.645   9.933  19.158  0.00  0.00    +0.000 HD
ENDROOT
BRANCH   3   5
ATOM      5  C   UNL     1       1.292   9.117  19.070  0.00  0.00    +0.000 A 
ATOM      6  C   UNL     1       1.951   8.999  17.844  0.00  0.00    +0.000 A 
ATOM      7  C   UNL     1       2.811   7.933  17.591  0.00  0.00    +0.000 A 
ATOM      8  C   UNL     1       2.971   6.928  18.543  0.00  0.00    +0.000 A 
ATOM      9  C   UNL     1       2.411   7.094  19.815  0.00  0.00    +0.000 A 
ATOM     10  C   UNL     1       1.584   8.196  20.084  0.00  0.00    +0.000 A 
BRANCH   8  11
ATOM     11  C   UNL     1       3.687   5.667  18.208  0.00  0.00    +0.000 C 
ATOM     12  O   UNL     1       4.915   5.663  18.267  0.00  0.00    +0.000 OA
ATOM     13  N   UNL     1       2.944   4.532  17.909  0.00  0.00    +0.000 N 
ATOM     14  C   UNL     1       1.498   4.358  17.949  0.00  0.00    +0.000 C 
ATOM     15  C   UNL     1       1.313   2.918  18.381  0.00  0.00    +0.000 C 
ATOM     16  C   UNL     1       2.491   2.205  17.732  0.00  0.00    +0.000 C 
ATOM     17  C   UNL     1       3.600   3.255  17.679  0.00  0.00    +0.000 C 
ENDBRANCH   8  11
ENDBRANCH   3   5
BRANCH   2  18
ATOM     18  C   UNL     1      -0.543  12.318  19.710  0.00  0.00    +0.000 A 
ATOM     19  C   UNL     1      -1.832  11.863  20.099  0.00  0.00    +0.000 A 
ATOM     20  C   UNL     1      -2.633  12.981  20.172  0.00  0.00    +0.000 A 
ATOM     21  N   UNL     1      -1.812  14.014  19.789  0.00  0.00    +0.000 N 
ATOM     22  N   UNL     1      -0.534  13.652  19.541  0.00  0.00    +0.000 NA
ATOM     23  H   UNL     1      -2.054  14.997  19.716  0.00  0.00    +0.000 HD
BRANCH  20  24
ATOM     24  C   UNL     1      -4.019  13.138  20.605  0.00  0.00    +0.000 A 
ATOM     25  C   UNL     1      -4.369  14.208  21.445  0.00  0.00    +0.000 A 
ATOM     26  C   UNL     1      -5.695  14.413  21.834  0.00  0.00    +0.000 A 
ATOM     27  C   UNL     1      -6.690  13.544  21.393  0.00  0.00    +0.000 A 
ATOM     28  C   UNL     1      -6.349  12.466  20.580  0.00  0.00    +0.000 A 
ATOM     29 CL   UNL     1      -7.575  11.386  20.040  0.00  0.00    +0.000 Cl
ATOM     30  C   UNL     1      -5.023  12.256  20.187  0.00  0.00    +0.000 A 
ENDBRANCH  20  24
ENDBRANCH   2  18
TORSDOF 4
ENDMDL
MODEL 6
REMARK VINA RESULT:      -8.2      4.265     10.879
REMARK  Name = 
REMARK  4 active torsions:
REMARK  status: ('A' for Active; 'I' for Inactive)
REMARK    1  A    between atoms: C_2  and  C_17
REMARK    2  A    between atoms: N_3  and  C_4
REMARK    3  A    between atoms: C_7  and  C_8
REMARK    4  A    between atoms: C_19  and  C_20
REMARK                            x       y       z     vdW  Elec       q    Type
REMARK                         _______ _______ _______ _____ _____    ______ ____
ROOT
ATOM      1  O   UNL     1      -0.739   9.761  17.543  0.00  0.00    +0.000 OA
ATOM      2  C   UNL     1      -0.335  10.367  18.532  0.00  0.00    +0.000 C 
ATOM      3  N   UNL     1       0.784  10.045  19.286  0.00  0.00    +0.000 N 
ATOM      4  H   UNL     1       0.856  10.545  20.167  0.00  0.00    +0.000 HD
ENDROOT
BRANCH   3   5
ATOM      5  C   UNL     1       1.648   8.966  19.025  0.00  0.00    +0.000 A 
ATOM      6  C   UNL     1       2.375   8.870  17.835  0.00  0.00    +0.000 A 
ATOM      7  C   UNL     1       3.143   7.744  17.552  0.00  0.00    +0.000 A 
ATOM      8  C   UNL     1       3.141   6.662  18.431  0.00  0.00    +0.000 A 
ATOM      9  C   UNL     1       2.515   6.792  19.675  0.00  0.00    +0.000 A 
ATOM     10  C   UNL     1       1.781   7.950  19.979  0.00  0.00    +0.000 A 
BRANCH   8  11
ATOM     11  C   UNL     1       3.754   5.363  18.042  0.00  0.00    +0.000 C 
ATOM     12  O   UNL     1       4.979   5.300  17.957  0.00  0.00    +0.000 OA
ATOM     13  N   UNL     1       2.929   4.259  17.858  0.00  0.00    +0.000 N 
ATOM     14  C   UNL     1       1.491   4.157  18.070  0.00  0.00    +0.000 C 
ATOM     15  C   UNL     1       1.293   2.735  18.552  0.00  0.00    +0.000 C 
ATOM     16  C   UNL     1       2.352   1.955  17.787  0.00  0.00    +0.000 C 
ATOM     17  C   UNL     1       3.494   2.949  17.581  0.00  0.00    +0.000 C 
ENDBRANCH   8  11
ENDBRANCH   3   5
BRANCH   2  18
ATOM     18  C   UNL     1      -1.098  11.512  19.050  0.00  0.00    +0.000 A 
ATOM     19  C   UNL     1      -1.966  11.474  20.174  0.00  0.00    +0.000 A 
ATOM     20  C   UNL     1      -2.451  12.753  20.335  0.00  0.00    +0.000 A 
ATOM     21  N   UNL     1      -1.895  13.461  19.296  0.00  0.00    +0.000 N 
ATOM     22  N   UNL     1      -1.044  12.749  18.525  0.00  0.00    +0.000 NA
ATOM     23  H   UNL     1      -2.027  14.443  19.082  0.00  0.00    +0.000 HD
BRANCH  20  24
ATOM     24  C   UNL     1      -3.305  13.330  21.369  0.00  0.00    +0.000 A 
ATOM     25  C   UNL     1      -3.868  14.602  21.177  0.00  0.00    +0.000 A 
ATOM     26  C   UNL     1      -4.731  15.158  22.126  0.00  0.00    +0.000 A 
ATOM     27  C   UNL     1      -5.035  14.450  23.285  0.00  0.00    +0.000 A 
ATOM     28  C   UNL     1      -4.463  13.197  23.496  0.00  0.00    +0.000 A 
ATOM     29 CL   UNL     1      -4.831  12.324  24.932  0.00  0.00    +0.000 Cl
ATOM     30  C   UNL     1      -3.600  12.636  22.549  0.00  0.00    +0.000 A 
ENDBRANCH  20  24
ENDBRANCH   2  18
TORSDOF 4
ENDMDL
MODEL 7
REMARK VINA RESULT:      -8.1      2.177      2.503
REMARK  Name = 
REMARK  4 active torsions:
REMARK  status: ('A' for Active; 'I' for Inactive)
REMARK    1  A    between atoms: C_2  and  C_17
REMARK    2  A    between atoms: N_3  and  C_4
REMARK    3  A    between atoms: C_7  and  C_8
REMARK    4  A    between atoms: C_19  and  C_20
REMARK                            x       y       z     vdW  Elec       q    Type
REMARK                         _______ _______ _______ _____ _____    ______ ____
ROOT
ATOM      1  O   UNL     1      -0.362  10.563  18.624  0.00  0.00    +0.000 OA
ATOM      2  C   UNL     1       0.558  10.139  19.319  0.00  0.00    +0.000 C 
ATOM      3  N   UNL     1       0.864  10.550  20.608  0.00  0.00    +0.000 N 
ATOM      4  H   UNL     1       1.763  10.224  20.952  0.00  0.00    +0.000 HD
ENDROOT
BRANCH   3   5
ATOM      5  C   UNL     1       0.151  11.522  21.334  0.00  0.00    +0.000 A 
ATOM      6  C   UNL     1       0.338  12.890  21.121  0.00  0.00    +0.000 A 
ATOM      7  C   UNL     1      -0.300  13.835  21.921  0.00  0.00    +0.000 A 
ATOM      8  C   UNL     1      -1.085  13.419  22.995  0.00  0.00    +0.000 A 
ATOM      9  C   UNL     1      -1.373  12.058  23.147  0.00  0.00    +0.000 A 
ATOM     10  C   UNL     1      -0.767  11.110  22.307  0.00  0.00    +0.000 A 
BRANCH   8  11
ATOM     11  C   UNL     1      -1.578  14.397  24.003  0.00  0.00    +0.000 C 
ATOM     12  O   UNL     1      -0.761  14.901  24.772  0.00  0.00    +0.000 OA
ATOM     13  N   UNL     1      -2.921  14.754  23.993  0.00  0.00    +0.000 N 
ATOM     14  C   UNL     1      -3.959  14.352  23.052  0.00  0.00    +0.000 C 
ATOM     15  C   UNL     1      -4.859  15.566  22.960  0.00  0.00    +0.000 C 
ATOM     16  C   UNL     1      -4.812  16.144  24.367  0.00  0.00    +0.000 C 
ATOM     17  C   UNL     1      -3.422  15.782  24.889  0.00  0.00    +0.000 C 
ENDBRANCH   8  11
ENDBRANCH   3   5
BRANCH   2  18
ATOM     18  C   UNL     1       1.493   9.147  18.768  0.00  0.00    +0.000 A 
ATOM     19  C   UNL     1       1.801   7.895  19.365  0.00  0.00    +0.000 A 
ATOM     20  C   UNL     1       2.688   7.267  18.519  0.00  0.00    +0.000 A 
ATOM     21  N   UNL     1       2.892   8.174  17.507  0.00  0.00    +0.000 N 
ATOM     22  N   UNL     1       2.156   9.303  17.609  0.00  0.00    +0.000 NA
ATOM     23  H   UNL     1       3.492   8.066  16.696  0.00  0.00    +0.000 HD
BRANCH  20  24
ATOM     24  C   UNL     1       3.276   5.931  18.568  0.00  0.00    +0.000 A 
ATOM     25  C   UNL     1       4.575   5.762  19.073  0.00  0.00    +0.000 A 
ATOM     26  C   UNL     1       5.145   4.490  19.181  0.00  0.00    +0.000 A 
ATOM     27  C   UNL     1       4.423   3.371  18.775  0.00  0.00    +0.000 A 
ATOM     28  C   UNL     1       3.143   3.531  18.250  0.00  0.00    +0.000 A 
ATOM     29 CL   UNL     1       2.253   2.150  17.740  0.00  0.00    +0.000 Cl
ATOM     30  C   UNL     1       2.568   4.801  18.141  0.00  0.00    +0.000 A 
ENDBRANCH  20  24
ENDBRANCH   2  18
TORSDOF 4
ENDMDL
MODEL 8
REMARK VINA RESULT:      -8.1      4.403     10.940
REMARK  Name = 
REMARK  4 active torsions:
REMARK  status: ('A' for Active; 'I' for Inactive)
REMARK    1  A    between atoms: C_2  and  C_17
REMARK    2  A    between atoms: N_3  and  C_4
REMARK    3  A    between atoms: C_7  and  C_8
REMARK    4  A    between atoms: C_19  and  C_20
REMARK                            x       y       z     vdW  Elec       q    Type
REMARK                         _______ _______ _______ _____ _____    ______ ____
ROOT
ATOM      1  O   UNL     1      -0.838  10.309  17.785  0.00  0.00    +0.000 OA
ATOM      2  C   UNL     1      -0.668  10.581  18.971  0.00  0.00    +0.000 C 
ATOM      3  N   UNL     1       0.296  10.033  19.804  0.00  0.00    +0.000 N 
ATOM      4  H   UNL     1       0.168  10.239  20.790  0.00  0.00    +0.000 HD
ENDROOT
BRANCH   3   5
ATOM      5  C   UNL     1       1.250   9.076  19.411  0.00  0.00    +0.000 A 
ATOM      6  C   UNL     1       1.892   9.135  18.171  0.00  0.00    +0.000 A 
ATOM      7  C   UNL     1       2.755   8.123  17.760  0.00  0.00    +0.000 A 
ATOM      8  C   UNL     1       2.936   6.996  18.561  0.00  0.00    +0.000 A 
ATOM      9  C   UNL     1       2.393   6.978  19.851  0.00  0.00    +0.000 A 
ATOM     10  C   UNL     1       1.563   8.025  20.282  0.00  0.00    +0.000 A 
BRANCH   8  11
ATOM     11  C   UNL     1       3.655   5.800  18.043  0.00  0.00    +0.000 C 
ATOM     12  O   UNL     1       4.879   5.858  17.940  0.00  0.00    +0.000 OA
ATOM     13  N   UNL     1       2.929   4.649  17.763  0.00  0.00    +0.000 N 
ATOM     14  C   UNL     1       1.510   4.396  17.980  0.00  0.00    +0.000 C 
ATOM     15  C   UNL     1       1.449   2.923  18.326  0.00  0.00    +0.000 C 
ATOM     16  C   UNL     1       2.559   2.318  17.478  0.00  0.00    +0.000 C 
ATOM     17  C   UNL     1       3.603   3.427  17.357  0.00  0.00    +0.000 C 
ENDBRANCH   8  11
ENDBRANCH   3   5
BRANCH   2  18
ATOM     18  C   UNL     1      -1.576  11.521  19.643  0.00  0.00    +0.000 A 
ATOM     19  C   UNL     1      -1.472  11.929  21.000  0.00  0.00    +0.000 A 
ATOM     20  C   UNL     1      -2.492  12.830  21.215  0.00  0.00    +0.000 A 
ATOM     21  N   UNL     1      -3.162  12.878  20.016  0.00  0.00    +0.000 N 
ATOM     22  N   UNL     1      -2.612  12.128  19.036  0.00  0.00    +0.000 NA
ATOM     23  H   UNL     1      -3.980  13.434  19.791  0.00  0.00    +0.000 HD
BRANCH  20  24
ATOM     24  C   UNL     1      -2.822  13.640  22.385  0.00  0.00    +0.000 A 
ATOM     25  C   UNL     1      -1.827  13.933  23.331  0.00  0.00    +0.000 A 
ATOM     26  C   UNL     1      -2.101  14.748  24.434  0.00  0.00    +0.000 A 
ATOM     27  C   UNL     1      -3.379  15.272  24.608  0.00  0.00    +0.000 A 
ATOM     28  C   UNL     1      -4.378  14.967  23.687  0.00  0.00    +0.000 A 
ATOM     29 CL   UNL     1      -5.961  15.607  23.905  0.00  0.00    +0.000 Cl
ATOM     30  C   UNL     1      -4.110  14.153  22.582  0.00  0.00    +0.000 A 
ENDBRANCH  20  24
ENDBRANCH   2  18
TORSDOF 4
ENDMDL
MODEL 9
REMARK VINA RESULT:      -8.1      2.529      3.942
REMARK  Name = 
REMARK  4 active torsions:
REMARK  status: ('A' for Active; 'I' for Inactive)
REMARK    1  A    between atoms: C_2  and  C_17
REMARK    2  A    between atoms: N_3  and  C_4
REMARK    3  A    between atoms: C_7  and  C_8
REMARK    4  A    between atoms: C_19  and  C_20
REMARK                            x       y       z     vdW  Elec       q    Type
REMARK                         _______ _______ _______ _____ _____    ______ ____
ROOT
ATOM      1  O   UNL     1       3.346   5.288  19.829  0.00  0.00    +0.000 OA
ATOM      2  C   UNL     1       3.669   5.864  18.793  0.00  0.00    +0.000 C 
ATOM      3  N   UNL     1       3.187   7.089  18.356  0.00  0.00    +0.000 N 
ATOM      4  H   UNL     1       3.427   7.318  17.396  0.00  0.00    +0.000 HD
ENDROOT
BRANCH   3   5
ATOM      5  C   UNL     1       2.250   7.878  19.046  0.00  0.00    +0.000 A 
ATOM      6  C   UNL     1       1.645   8.994  18.459  0.00  0.00    +0.000 A 
ATOM      7  C   UNL     1       0.799   9.821  19.193  0.00  0.00    +0.000 A 
ATOM      8  C   UNL     1       0.599   9.581  20.552  0.00  0.00    +0.000 A 
ATOM      9  C   UNL     1       1.103   8.406  21.122  0.00  0.00    +0.000 A 
ATOM     10  C   UNL     1       1.915   7.547  20.365  0.00  0.00    +0.000 A 
BRANCH   8  11
ATOM     11  C   UNL     1      -0.099  10.579  21.407  0.00  0.00    +0.000 C 
ATOM     12  O   UNL     1      -0.836  10.165  22.300  0.00  0.00    +0.000 OA
ATOM     13  N   UNL     1       0.159  11.930  21.211  0.00  0.00    +0.000 N 
ATOM     14  C   UNL     1       1.113  12.548  20.299  0.00  0.00    +0.000 C 
ATOM     15  C   UNL     1       1.582  13.782  21.040  0.00  0.00    +0.000 C 
ATOM     16  C   UNL     1       0.341  14.225  21.802  0.00  0.00    +0.000 C 
ATOM     17  C   UNL     1      -0.419  12.932  22.091  0.00  0.00    +0.000 C 
ENDBRANCH   8  11
ENDBRANCH   3   5
BRANCH   2  18
ATOM     18  C   UNL     1       4.603   5.219  17.859  0.00  0.00    +0.000 A 
ATOM     19  C   UNL     1       4.557   5.340  16.444  0.00  0.00    +0.000 A 
ATOM     20  C   UNL     1       5.618   4.610  15.956  0.00  0.00    +0.000 A 
ATOM     21  N   UNL     1       6.201   4.067  17.076  0.00  0.00    +0.000 N 
ATOM     22  N   UNL     1       5.635   4.446  18.242  0.00  0.00    +0.000 NA
ATOM     23  H   UNL     1       7.013   3.461  17.113  0.00  0.00    +0.000 HD
BRANCH  20  24
ATOM     24  C   UNL     1       6.121   4.445  14.595  0.00  0.00    +0.000 A 
ATOM     25  C   UNL     1       7.221   5.203  14.163  0.00  0.00    +0.000 A 
ATOM     26  C   UNL     1       7.756   5.030  12.883  0.00  0.00    +0.000 A 
ATOM     27  C   UNL     1       7.190   4.100  12.015  0.00  0.00    +0.000 A 
ATOM     28  C   UNL     1       6.084   3.361  12.426  0.00  0.00    +0.000 A 
ATOM     29 CL   UNL     1       5.378   2.216  11.352  0.00  0.00    +0.000 Cl
ATOM     30  C   UNL     1       5.545   3.529  13.706  0.00  0.00    +0.000 A 
ENDBRANCH  20  24
ENDBRANCH   2  18
TORSDOF 4
ENDMDL
