MODEL 1
REMARK VINA RESULT:      -8.5      0.000      0.000
REMARK  Name = 
REMARK  4 active torsions:
REMARK  status: ('A' for Active; 'I' for Inactive)
REMARK    1  A    between atoms: C_2  and  C_3
REMARK    2  A    between atoms: C_3  and  C_4
REMARK    3  A    between atoms: C_7  and  C_8
REMARK    4  A    between atoms: N_16  and  C_17
REMARK                            x       y       z     vdW  Elec       q    Type
REMARK                         _______ _______ _______ _____ _____    ______ ____
ROOT
ATOM      1  O   UNL     1       1.351   5.090  20.394  0.00  0.00    +0.000 OA
ATOM      2  C   UNL     1       2.474   5.507  20.120  0.00  0.00    +0.000 C 
ATOM      3  N   UNL     1       2.799   6.830  19.826  0.00  0.00    +0.000 N 
ATOM      4  H   UNL     1       3.685   6.998  19.363  0.00  0.00    +0.000 HD
ENDROOT
BRANCH   3   5
ATOM      5  C   UNL     1       1.897   7.917  19.921  0.00  0.00    +0.000 A 
ATOM      6  C   UNL     1       1.270   8.248  21.142  0.00  0.00    +0.000 A 
ATOM      7  C   UNL     1       0.284   9.233  21.228  0.00  0.00    +0.000 A 
ATOM      8  C   UNL     1       0.008   9.938  20.087  0.00  0.00    +0.000 A 
ATOM      9  O   UNL     1      -0.869  11.002  20.001  0.00  0.00    +0.000 OA
ATOM     10  C   UNL     1      -0.591  11.495  18.726  0.00  0.00    +0.000 A 
ATOM     11  O   UNL     1      -1.069  12.531  18.275  0.00  0.00    +0.000 OA
ATOM     12  N   UNL     1       0.302  10.688  18.056  0.00  0.00    +0.000 N 
ATOM     13  C   UNL     1       0.697   9.703  18.918  0.00  0.00    +0.000 A 
ATOM     14  C   UNL     1       1.637   8.695  18.780  0.00  0.00    +0.000 A 
ATOM     15  H   UNL     1       0.680  10.918  17.153  0.00  0.00    +0.000 HD
ENDBRANCH   3   5
BRANCH   2  16
ATOM     16  C   UNL     1       3.648   4.548  20.085  0.00  0.00    +0.000 C 
BRANCH  16  17
ATOM     17  C   UNL     1       4.347   4.414  18.753  0.00  0.00    +0.000 A 
ATOM     18  C   UNL     1       3.698   3.743  17.710  0.00  0.00    +0.000 A 
ATOM     19  C   UNL     1       4.263   3.678  16.430  0.00  0.00    +0.000 A 
ATOM     20  C   UNL     1       5.485   4.303  16.134  0.00  0.00    +0.000 A 
ATOM     21  C   UNL     1       6.116   4.987  17.187  0.00  0.00    +0.000 A 
ATOM     22  C   UNL     1       5.563   5.043  18.473  0.00  0.00    +0.000 A 
BRANCH  20  23
ATOM     23  C   UNL     1       6.072   4.286  14.771  0.00  0.00    +0.000 A 
ATOM     24  C   UNL     1       5.497   3.545  13.721  0.00  0.00    +0.000 A 
ATOM     25  C   UNL     1       6.026   3.577  12.426  0.00  0.00    +0.000 A 
ATOM     26  C   UNL     1       7.143   4.360  12.148  0.00  0.00    +0.000 A 
ATOM     27  C   UNL     1       7.741   5.091  13.166  0.00  0.00    +0.000 A 
ATOM     28  C   UNL     1       7.218   5.044  14.461  0.00  0.00    +0.000 A 
ENDBRANCH  20  23
ENDBRANCH  16  17
ENDBRANCH   2  16
TORSDOF 4
ENDMDL
MODEL 2
REMARK VINA RESULT:      -8.4      1.888      2.357
REMARK  Name = 
REMARK  4 active torsions:
REMARK  status: ('A' for Active; 'I' for Inactive)
REMARK    1  A    between atoms: C_2  and  C_3
REMARK    2  A    between atoms: C_3  and  C_4
REMARK    3  A    between atoms: C_7  and  C_8
REMARK    4  A    between atoms: N_16  and  C_17
REMARK                            x       y       z     vdW  Elec       q    Type
REMARK                         _______ _______ _______ _____ _____    ______ ____
ROOT
ATOM      1  O   UNL     1       2.085   7.543  18.307  0.00  0.00    +0.000 OA
ATOM      2  C   UNL     1       2.415   7.083  19.398  0.00  0.00    +0.000 C 
ATOM      3  N   UNL     1       2.066   7.612  20.639  0.00  0.00    +0.000 N 
ATOM      4  H   UNL     1       2.609   7.311  21.441  0.00  0.00    +0.000 HD
ENDROOT
BRANCH   3   5
ATOM      5  C   UNL     1       1.172   8.693  20.827  0.00  0.00    +0.000 A 
ATOM      6  C   UNL     1       0.844   9.569  19.770  0.00  0.00    +0.000 A 
ATOM      7  C   UNL     1       0.066  10.713  19.966  0.00  0.00    +0.000 A 
ATOM      8  C   UNL     1      -0.448  10.907  21.220  0.00  0.00    +0.000 A 
ATOM      9  O   UNL     1      -1.307  11.929  21.578  0.00  0.00    +0.000 OA
ATOM     10  C   UNL     1      -1.708  11.527  22.852  0.00  0.00    +0.000 A 
ATOM     11  O   UNL     1      -2.578  12.094  23.505  0.00  0.00    +0.000 OA
ATOM     12  N   UNL     1      -1.026  10.404  23.267  0.00  0.00    +0.000 N 
ATOM     13  C   UNL     1      -0.232   9.997  22.230  0.00  0.00    +0.000 A 
ATOM     14  C   UNL     1       0.582   8.886  22.089  0.00  0.00    +0.000 A 
ATOM     15  H   UNL     1      -1.229   9.922  24.125  0.00  0.00    +0.000 HD
ENDBRANCH   3   5
BRANCH   2  16
ATOM     16  C   UNL     1       3.273   5.835  19.464  0.00  0.00    +0.000 C 
BRANCH  16  17
ATOM     17  C   UNL     1       4.067   5.519  18.219  0.00  0.00    +0.000 A 
ATOM     18  C   UNL     1       4.012   4.223  17.690  0.00  0.00    +0.000 A 
ATOM     19  C   UNL     1       4.651   3.907  16.484  0.00  0.00    +0.000 A 
ATOM     20  C   UNL     1       5.349   4.876  15.746  0.00  0.00    +0.000 A 
ATOM     21  C   UNL     1       5.381   6.175  16.282  0.00  0.00    +0.000 A 
ATOM     22  C   UNL     1       4.755   6.495  17.494  0.00  0.00    +0.000 A 
BRANCH  20  23
ATOM     23  C   UNL     1       5.989   4.569  14.443  0.00  0.00    +0.000 A 
ATOM     24  C   UNL     1       5.409   3.677  13.520  0.00  0.00    +0.000 A 
ATOM     25  C   UNL     1       5.993   3.434  12.272  0.00  0.00    +0.000 A 
ATOM     26  C   UNL     1       7.169   4.085  11.912  0.00  0.00    +0.000 A 
ATOM     27  C   UNL     1       7.771   4.961  12.806  0.00  0.00    +0.000 A 
ATOM     28  C   UNL     1       7.194   5.189  14.058  0.00  0.00    +0.000 A 
ENDBRANCH  20  23
ENDBRANCH  16  17
ENDBRANCH   2  16
TORSDOF 4
ENDMDL
MODEL 3
REMARK VINA RESULT:      -8.4      1.521      2.389
REMARK  Name = 
REMARK  4 active torsions:
REMARK  status: ('A' for Active; 'I' for Inactive)
REMARK    1  A    between atoms: C_2  and  C_3
REMARK    2  A    between atoms: C_3  and  C_4
REMARK    3  A    between atoms: C_7  and  C_8
REMARK    4  A    between atoms: N_16  and  C_17
REMARK                            x       y       z     vdW  Elec       q    Type
REMARK                         _______ _______ _______ _____ _____    ______ ____
ROOT
ATOM      1  O   UNL     1       1.233   5.466  19.984  0.00  0.00    +0.000 OA
ATOM      2  C   UNL     1       2.349   5.981  19.966  0.00  0.00    +0.000 C 
ATOM      3  N   UNL     1       2.614   7.343  20.089  0.00  0.00    +0.000 N 
ATOM      4  H   UNL     1       3.529   7.666  19.793  0.00  0.00    +0.000 HD
ENDROOT
BRANCH   3   5
ATOM      5  C   UNL     1       1.638   8.328  20.378  0.00  0.00    +0.000 A 
ATOM      6  C   UNL     1       1.062   9.114  19.356  0.00  0.00    +0.000 A 
ATOM      7  C   UNL     1       0.195  10.173  19.633  0.00  0.00    +0.000 A 
ATOM      8  C   UNL     1      -0.150  10.367  20.944  0.00  0.00    +0.000 A 
ATOM      9  O   UNL     1      -1.059  11.304  21.397  0.00  0.00    +0.000 OA
ATOM     10  C   UNL     1      -1.221  10.919  22.728  0.00  0.00    +0.000 A 
ATOM     11  O   UNL     1      -2.047  11.418  23.488  0.00  0.00    +0.000 OA
ATOM     12  N   UNL     1      -0.362   9.898  23.068  0.00  0.00    +0.000 N 
ATOM     13  C   UNL     1       0.314   9.533  21.936  0.00  0.00    +0.000 A 
ATOM     14  C   UNL     1       1.221   8.512  21.707  0.00  0.00    +0.000 A 
ATOM     15  H   UNL     1      -0.381   9.437  23.961  0.00  0.00    +0.000 HD
ENDBRANCH   3   5
BRANCH   2  16
ATOM     16  C   UNL     1       3.579   5.112  19.800  0.00  0.00    +0.000 C 
BRANCH  16  17
ATOM     17  C   UNL     1       4.080   4.946  18.385  0.00  0.00    +0.000 A 
ATOM     18  C   UNL     1       4.688   6.034  17.748  0.00  0.00    +0.000 A 
ATOM     19  C   UNL     1       5.255   5.903  16.475  0.00  0.00    +0.000 A 
ATOM     20  C   UNL     1       5.260   4.673  15.796  0.00  0.00    +0.000 A 
ATOM     21  C   UNL     1       4.659   3.586  16.455  0.00  0.00    +0.000 A 
ATOM     22  C   UNL     1       4.079   3.715  17.724  0.00  0.00    +0.000 A 
BRANCH  20  23
ATOM     23  C   UNL     1       5.899   4.505  14.468  0.00  0.00    +0.000 A 
ATOM     24  C   UNL     1       7.105   5.150  14.135  0.00  0.00    +0.000 A 
ATOM     25  C   UNL     1       7.730   4.944  12.899  0.00  0.00    +0.000 A 
ATOM     26  C   UNL     1       7.164   4.079  11.968  0.00  0.00    +0.000 A 
ATOM     27  C   UNL     1       5.967   3.438  12.262  0.00  0.00    +0.000 A 
ATOM     28  C   UNL     1       5.340   3.659  13.490  0.00  0.00    +0.000 A 
ENDBRANCH  20  23
ENDBRANCH  16  17
ENDBRANCH   2  16
TORSDOF 4
ENDMDL
MODEL 4
REMARK VINA RESULT:      -8.4      6.406      8.009
REMARK  Name = 
REMARK  4 active torsions:
REMARK  status: ('A' for Active; 'I' for Inactive)
REMARK    1  A    between atoms: C_2  and  C_3
REMARK    2  A    between atoms: C_3  and  C_4
REMARK    3  A    between atoms: C_7  and  C_8
REMARK    4  A    between atoms: N_16  and  C_17
REMARK                            x       y       z     vdW  Elec       q    Type
REMARK                         _______ _______ _______ _____ _____    ______ ____
ROOT
ATOM      1  O   UNL     1       8.769   7.870  19.065  0.00  0.00    +0.000 OA
ATOM      2  C   UNL     1       8.206   8.318  18.069  0.00  0.00    +0.000 C 
ATOM      3  N   UNL     1       8.160   9.661  17.700  0.00  0.00    +0.000 N 
ATOM      4  H   UNL     1       7.454   9.932  17.024  0.00  0.00    +0.000 HD
ENDROOT
BRANCH   3   5
ATOM      5  C   UNL     1       8.866  10.698  18.356  0.00  0.00    +0.000 A 
ATOM      6  C   UNL     1       9.579  10.460  19.551  0.00  0.00    +0.000 A 
ATOM      7  C   UNL     1      10.174  11.493  20.279  0.00  0.00    +0.000 A 
ATOM      8  C   UNL     1      10.116  12.749  19.737  0.00  0.00    +0.000 A 
ATOM      9  O   UNL     1      10.721  13.873  20.267  0.00  0.00    +0.000 OA
ATOM     10  C   UNL     1      10.569  14.792  19.229  0.00  0.00    +0.000 A 
ATOM     11  O   UNL     1      11.074  15.910  19.226  0.00  0.00    +0.000 OA
ATOM     12  N   UNL     1       9.806  14.275  18.204  0.00  0.00    +0.000 N 
ATOM     13  C   UNL     1       9.526  12.973  18.514  0.00  0.00    +0.000 A 
ATOM     14  C   UNL     1       8.873  11.986  17.794  0.00  0.00    +0.000 A 
ATOM     15  H   UNL     1       9.649  14.760  17.337  0.00  0.00    +0.000 HD
ENDBRANCH   3   5
BRANCH   2  16
ATOM     16  C   UNL     1       7.482   7.379  17.124  0.00  0.00    +0.000 C 
BRANCH  16  17
ATOM     17  C   UNL     1       6.300   6.643  17.708  0.00  0.00    +0.000 A 
ATOM     18  C   UNL     1       5.024   6.883  17.184  0.00  0.00    +0.000 A 
ATOM     19  C   UNL     1       3.912   6.154  17.624  0.00  0.00    +0.000 A 
ATOM     20  C   UNL     1       4.034   5.139  18.588  0.00  0.00    +0.000 A 
ATOM     21  C   UNL     1       5.324   4.900  19.093  0.00  0.00    +0.000 A 
ATOM     22  C   UNL     1       6.437   5.635  18.666  0.00  0.00    +0.000 A 
BRANCH  20  23
ATOM     23  C   UNL     1       2.875   4.325  19.030  0.00  0.00    +0.000 A 
ATOM     24  C   UNL     1       2.319   4.457  20.316  0.00  0.00    +0.000 A 
ATOM     25  C   UNL     1       1.192   3.723  20.706  0.00  0.00    +0.000 A 
ATOM     26  C   UNL     1       0.589   2.844  19.812  0.00  0.00    +0.000 A 
ATOM     27  C   UNL     1       1.122   2.682  18.540  0.00  0.00    +0.000 A 
ATOM     28  C   UNL     1       2.257   3.405  18.160  0.00  0.00    +0.000 A 
ENDBRANCH  20  23
ENDBRANCH  16  17
ENDBRANCH   2  16
TORSDOF 4
ENDMDL
MODEL 5
REMARK VINA RESULT:      -8.3      6.469      8.178
REMARK  Name = 
REMARK  4 active torsions:
REMARK  status: ('A' for Active; 'I' for Inactive)
REMARK    1  A    between atoms: C_2  and  C_3
REMARK    2  A    between atoms: C_3  and  C_4
REMARK    3  A    between atoms: C_7  and  C_8
REMARK    4  A    between atoms: N_16  and  C_17
REMARK                            x       y       z     vdW  Elec       q    Type
REMARK                         _______ _______ _______ _____ _____    ______ ____
ROOT
ATOM      1  O   UNL     1       8.631   7.625  19.009  0.00  0.00    +0.000 OA
ATOM      2  C   UNL     1       8.197   8.174  17.999  0.00  0.00    +0.000 C 
ATOM      3  N   UNL     1       8.282   9.536  17.717  0.00  0.00    +0.000 N 
ATOM      4  H   UNL     1       7.663   9.900  17.001  0.00  0.00    +0.000 HD
ENDROOT
BRANCH   3   5
ATOM      5  C   UNL     1       8.994  10.475  18.502  0.00  0.00    +0.000 A 
ATOM      6  C   UNL     1       9.099  10.334  19.903  0.00  0.00    +0.000 A 
ATOM      7  C   UNL     1       9.687  11.313  20.706  0.00  0.00    +0.000 A 
ATOM      8  C   UNL     1      10.246  12.388  20.068  0.00  0.00    +0.000 A 
ATOM      9  O   UNL     1      10.945  13.406  20.687  0.00  0.00    +0.000 OA
ATOM     10  C   UNL     1      11.493  14.078  19.595  0.00  0.00    +0.000 A 
ATOM     11  O   UNL     1      12.299  14.998  19.693  0.00  0.00    +0.000 OA
ATOM     12  N   UNL     1      11.037  13.561  18.402  0.00  0.00    +0.000 N 
ATOM     13  C   UNL     1      10.254  12.478  18.694  0.00  0.00    +0.000 A 
ATOM     14  C   UNL     1       9.628  11.558  17.869  0.00  0.00    +0.000 A 
ATOM     15  H   UNL     1      11.376  13.864  17.506  0.00  0.00    +0.000 HD
ENDBRANCH   3   5
BRANCH   2  16
ATOM     16  C   UNL     1       7.502   7.352  16.933  0.00  0.00    +0.000 C 
BRANCH  16  17
ATOM     17  C   UNL     1       6.294   6.569  17.391  0.00  0.00    +0.000 A 
ATOM     18  C   UNL     1       6.483   5.441  18.198  0.00  0.00    +0.000 A 
ATOM     19  C   UNL     1       5.392   4.740  18.729  0.00  0.00    +0.000 A 
ATOM     20  C   UNL     1       4.070   5.153  18.495  0.00  0.00    +0.000 A 
ATOM     21  C   UNL     1       3.898   6.296  17.695  0.00  0.00    +0.000 A 
ATOM     22  C   UNL     1       4.984   6.993  17.152  0.00  0.00    +0.000 A 
BRANCH  20  23
ATOM     23  C   UNL     1       2.906   4.451  19.089  0.00  0.00    +0.000 A 
ATOM     24  C   UNL     1       2.074   3.610  18.326  0.00  0.00    +0.000 A 
ATOM     25  C   UNL     1       1.010   2.910  18.907  0.00  0.00    +0.000 A 
ATOM     26  C   UNL     1       0.757   3.028  20.270  0.00  0.00    +0.000 A 
ATOM     27  C   UNL     1       1.553   3.861  21.047  0.00  0.00    +0.000 A 
ATOM     28  C   UNL     1       2.604   4.571  20.460  0.00  0.00    +0.000 A 
ENDBRANCH  20  23
ENDBRANCH  16  17
ENDBRANCH   2  16
TORSDOF 4
ENDMDL
MODEL 6
REMARK VINA RESULT:      -8.3      1.255      2.040
REMARK  Name = 
REMARK  4 active torsions:
REMARK  status: ('A' for Active; 'I' for Inactive)
REMARK    1  A    between atoms: C_2  and  C_3
REMARK    2  A    between atoms: C_3  and  C_4
REMARK    3  A    between atoms: C_7  and  C_8
REMARK    4  A    between atoms: N_16  and  C_17
REMARK                            x       y       z     vdW  Elec       q    Type
REMARK                         _______ _______ _______ _____ _____    ______ ____
ROOT
ATOM      1  O   UNL     1       1.099   4.973  20.461  0.00  0.00    +0.000 OA
ATOM      2  C   UNL     1       2.257   5.323  20.243  0.00  0.00    +0.000 C 
ATOM      3  N   UNL     1       2.687   6.636  20.071  0.00  0.00    +0.000 N 
ATOM      4  H   UNL     1       3.595   6.774  19.638  0.00  0.00    +0.000 HD
ENDROOT
BRANCH   3   5
ATOM      5  C   UNL     1       1.869   7.778  20.244  0.00  0.00    +0.000 A 
ATOM      6  C   UNL     1       1.528   8.611  19.156  0.00  0.00    +0.000 A 
ATOM      7  C   UNL     1       0.829   9.809  19.328  0.00  0.00    +0.000 A 
ATOM      8  C   UNL     1       0.403  10.104  20.595  0.00  0.00    +0.000 A 
ATOM      9  O   UNL     1      -0.373  11.194  20.939  0.00  0.00    +0.000 OA
ATOM     10  C   UNL     1      -0.719  10.889  22.256  0.00  0.00    +0.000 A 
ATOM     11  O   UNL     1      -1.515  11.544  22.922  0.00  0.00    +0.000 OA
ATOM     12  N   UNL     1      -0.078   9.753  22.697  0.00  0.00    +0.000 N 
ATOM     13  C   UNL     1       0.628   9.240  21.644  0.00  0.00    +0.000 A 
ATOM     14  C   UNL     1       1.368   8.076  21.523  0.00  0.00    +0.000 A 
ATOM     15  H   UNL     1      -0.256   9.333  23.593  0.00  0.00    +0.000 HD
ENDBRANCH   3   5
BRANCH   2  16
ATOM     16  C   UNL     1       3.355   4.282  20.145  0.00  0.00    +0.000 C 
BRANCH  16  17
ATOM     17  C   UNL     1       4.079   4.216  18.821  0.00  0.00    +0.000 A 
ATOM     18  C   UNL     1       3.412   3.694  17.707  0.00  0.00    +0.000 A 
ATOM     19  C   UNL     1       4.005   3.702  16.438  0.00  0.00    +0.000 A 
ATOM     20  C   UNL     1       5.280   4.254  16.227  0.00  0.00    +0.000 A 
ATOM     21  C   UNL     1       5.931   4.787  17.353  0.00  0.00    +0.000 A 
ATOM     22  C   UNL     1       5.347   4.770  18.626  0.00  0.00    +0.000 A 
BRANCH  20  23
ATOM     23  C   UNL     1       5.902   4.314  14.882  0.00  0.00    +0.000 A 
ATOM     24  C   UNL     1       7.090   5.030  14.642  0.00  0.00    +0.000 A 
ATOM     25  C   UNL     1       7.699   5.038  13.382  0.00  0.00    +0.000 A 
ATOM     26  C   UNL     1       7.137   4.320  12.331  0.00  0.00    +0.000 A 
ATOM     27  C   UNL     1       5.958   3.614  12.533  0.00  0.00    +0.000 A 
ATOM     28  C   UNL     1       5.345   3.622  13.788  0.00  0.00    +0.000 A 
ENDBRANCH  20  23
ENDBRANCH  16  17
ENDBRANCH   2  16
TORSDOF 4
ENDMDL
MODEL 7
REMARK VINA RESULT:      -8.2      3.703      5.704
REMARK  Name = 
REMARK  4 active torsions:
REMARK  status: ('A' for Active; 'I' for Inactive)
REMARK    1  A    between atoms: C_2  and  C_3
REMARK    2  A    between atoms: C_3  and  C_4
REMARK    3  A    between atoms: C_7  and  C_8
REMARK    4  A    between atoms: N_16  and  C_17
REMARK                            x       y       z     vdW  Elec       q    Type
REMARK                         _______ _______ _______ _____ _____    ______ ____
ROOT
ATOM      1  O   UNL     1      -0.729  10.088  20.146  0.00  0.00    +0.000 OA
ATOM      2  C   UNL     1      -0.077  10.169  19.107  0.00  0.00    +0.000 C 
ATOM      3  N   UNL     1      -0.596  10.445  17.844  0.00  0.00    +0.000 N 
ATOM      4  H   UNL     1      -0.013  10.222  17.044  0.00  0.00    +0.000 HD
ENDROOT
BRANCH   3   5
ATOM      5  C   UNL     1      -1.944  10.797  17.590  0.00  0.00    +0.000 A 
ATOM      6  C   UNL     1      -2.611  10.359  16.425  0.00  0.00    +0.000 A 
ATOM      7  C   UNL     1      -3.895  10.798  16.095  0.00  0.00    +0.000 A 
ATOM      8  C   UNL     1      -4.526  11.609  16.999  0.00  0.00    +0.000 A 
ATOM      9  O   UNL     1      -5.824  12.068  16.886  0.00  0.00    +0.000 OA
ATOM     10  C   UNL     1      -6.041  12.619  18.149  0.00  0.00    +0.000 A 
ATOM     11  O   UNL     1      -7.126  13.044  18.532  0.00  0.00    +0.000 OA
ATOM     12  N   UNL     1      -4.894  12.599  18.912  0.00  0.00    +0.000 N 
ATOM     13  C   UNL     1      -3.930  11.948  18.194  0.00  0.00    +0.000 A 
ATOM     14  C   UNL     1      -2.637  11.581  18.527  0.00  0.00    +0.000 A 
ATOM     15  H   UNL     1      -4.870  12.884  19.876  0.00  0.00    +0.000 HD
ENDBRANCH   3   5
BRANCH   2  16
ATOM     16  C   UNL     1       1.425   9.962  19.140  0.00  0.00    +0.000 C 
BRANCH  16  17
ATOM     17  C   UNL     1       1.892   8.530  19.037  0.00  0.00    +0.000 A 
ATOM     18  C   UNL     1       1.809   7.706  20.166  0.00  0.00    +0.000 A 
ATOM     19  C   UNL     1       2.138   6.346  20.095  0.00  0.00    +0.000 A 
ATOM     20  C   UNL     1       2.538   5.749  18.888  0.00  0.00    +0.000 A 
ATOM     21  C   UNL     1       2.601   6.586  17.760  0.00  0.00    +0.000 A 
ATOM     22  C   UNL     1       2.286   7.949  17.829  0.00  0.00    +0.000 A 
BRANCH  20  23
ATOM     23  C   UNL     1       2.842   4.301  18.785  0.00  0.00    +0.000 A 
ATOM     24  C   UNL     1       2.283   3.492  17.777  0.00  0.00    +0.000 A 
ATOM     25  C   UNL     1       2.617   2.138  17.655  0.00  0.00    +0.000 A 
ATOM     26  C   UNL     1       3.528   1.562  18.535  0.00  0.00    +0.000 A 
ATOM     27  C   UNL     1       4.086   2.331  19.548  0.00  0.00    +0.000 A 
ATOM     28  C   UNL     1       3.737   3.678  19.677  0.00  0.00    +0.000 A 
ENDBRANCH  20  23
ENDBRANCH  16  17
ENDBRANCH   2  16
TORSDOF 4
ENDMDL
MODEL 8
REMARK VINA RESULT:      -8.2      0.366      1.002
REMARK  Name = 
REMARK  4 active torsions:
REMARK  status: ('A' for Active; 'I' for Inactive)
REMARK    1  A    between atoms: C_2  and  C_3
REMARK    2  A    between atoms: C_3  and  C_4
REMARK    3  A    between atoms: C_7  and  C_8
REMARK    4  A    between atoms: N_16  and  C_17
REMARK                            x       y       z     vdW  Elec       q    Type
REMARK                         _______ _______ _______ _____ _____    ______ ____
ROOT
ATOM      1  O   UNL     1       1.781   5.076  20.856  0.00  0.00    +0.000 OA
ATOM      2  C   UNL     1       2.686   5.395  20.088  0.00  0.00    +0.000 C 
ATOM      3  N   UNL     1       2.808   6.626  19.447  0.00  0.00    +0.000 N 
ATOM      4  H   UNL     1       3.432   6.673  18.648  0.00  0.00    +0.000 HD
ENDROOT
BRANCH   3   5
ATOM      5  C   UNL     1       1.969   7.741  19.684  0.00  0.00    +0.000 A 
ATOM      6  C   UNL     1       1.398   7.974  20.954  0.00  0.00    +0.000 A 
ATOM      7  C   UNL     1       0.469   8.994  21.175  0.00  0.00    +0.000 A 
ATOM      8  C   UNL     1       0.196   9.825  20.122  0.00  0.00    +0.000 A 
ATOM      9  O   UNL     1      -0.625  10.935  20.177  0.00  0.00    +0.000 OA
ATOM     10  C   UNL     1      -0.360  11.543  18.949  0.00  0.00    +0.000 A 
ATOM     11  O   UNL     1      -0.796  12.643  18.623  0.00  0.00    +0.000 OA
ATOM     12  N   UNL     1       0.468  10.767  18.169  0.00  0.00    +0.000 N 
ATOM     13  C   UNL     1       0.836   9.679  18.912  0.00  0.00    +0.000 A 
ATOM     14  C   UNL     1       1.716   8.645  18.638  0.00  0.00    +0.000 A 
ATOM     15  H   UNL     1       0.830  11.070  17.281  0.00  0.00    +0.000 HD
ENDBRANCH   3   5
BRANCH   2  16
ATOM     16  C   UNL     1       3.793   4.408  19.773  0.00  0.00    +0.000 C 
BRANCH  16  17
ATOM     17  C   UNL     1       4.354   4.475  18.372  0.00  0.00    +0.000 A 
ATOM     18  C   UNL     1       5.662   4.936  18.187  0.00  0.00    +0.000 A 
ATOM     19  C   UNL     1       6.261   4.925  16.921  0.00  0.00    +0.000 A 
ATOM     20  C   UNL     1       5.585   4.430  15.793  0.00  0.00    +0.000 A 
ATOM     21  C   UNL     1       4.277   3.957  15.999  0.00  0.00    +0.000 A 
ATOM     22  C   UNL     1       3.669   3.978  17.260  0.00  0.00    +0.000 A 
BRANCH  20  23
ATOM     23  C   UNL     1       6.221   4.366  14.455  0.00  0.00    +0.000 A 
ATOM     24  C   UNL     1       5.731   3.528  13.436  0.00  0.00    +0.000 A 
ATOM     25  C   UNL     1       6.305   3.513  12.159  0.00  0.00    +0.000 A 
ATOM     26  C   UNL     1       7.381   4.346  11.868  0.00  0.00    +0.000 A 
ATOM     27  C   UNL     1       7.896   5.175  12.857  0.00  0.00    +0.000 A 
ATOM     28  C   UNL     1       7.330   5.174  14.135  0.00  0.00    +0.000 A 
ENDBRANCH  20  23
ENDBRANCH  16  17
ENDBRANCH   2  16
TORSDOF 4
ENDMDL
MODEL 9
REMARK VINA RESULT:      -8.1      3.848      9.934
REMARK  Name = 
REMARK  4 active torsions:
REMARK  status: ('A' for Active; 'I' for Inactive)
REMARK    1  A    between atoms: C_2  and  C_3
REMARK    2  A    between atoms: C_3  and  C_4
REMARK    3  A    between atoms: C_7  and  C_8
REMARK    4  A    between atoms: N_16  and  C_17
REMARK                            x       y       z     vdW  Elec       q    Type
REMARK                         _______ _______ _______ _____ _____    ______ ____
ROOT
ATOM      1  O   UNL     1       1.501   8.170  19.977  0.00  0.00    +0.000 OA
ATOM      2  C   UNL     1       1.870   8.386  18.825  0.00  0.00    +0.000 C 
ATOM      3  N   UNL     1       2.478   7.458  17.982  0.00  0.00    +0.000 N 
ATOM      4  H   UNL     1       2.971   7.820  17.173  0.00  0.00    +0.000 HD
ENDROOT
BRANCH   3   5
ATOM      5  C   UNL     1       2.647   6.086  18.288  0.00  0.00    +0.000 A 
ATOM      6  C   UNL     1       1.704   5.119  17.876  0.00  0.00    +0.000 A 
ATOM      7  C   UNL     1       1.787   3.783  18.275  0.00  0.00    +0.000 A 
ATOM      8  C   UNL     1       2.879   3.423  19.017  0.00  0.00    +0.000 A 
ATOM      9  O   UNL     1       3.174   2.136  19.425  0.00  0.00    +0.000 OA
ATOM     10  C   UNL     1       4.475   2.284  19.908  0.00  0.00    +0.000 A 
ATOM     11  O   UNL     1       5.180   1.347  20.269  0.00  0.00    +0.000 OA
ATOM     12  N   UNL     1       4.869   3.604  19.902  0.00  0.00    +0.000 N 
ATOM     13  C   UNL     1       3.866   4.333  19.325  0.00  0.00    +0.000 A 
ATOM     14  C   UNL     1       3.788   5.676  18.999  0.00  0.00    +0.000 A 
ATOM     15  H   UNL     1       5.799   3.901  20.142  0.00  0.00    +0.000 HD
ENDBRANCH   3   5
BRANCH   2  16
ATOM     16  C   UNL     1       1.676   9.759  18.215  0.00  0.00    +0.000 C 
BRANCH  16  17
ATOM     17  C   UNL     1       0.271  10.312  18.277  0.00  0.00    +0.000 A 
ATOM     18  C   UNL     1      -0.730   9.709  17.508  0.00  0.00    +0.000 A 
ATOM     19  C   UNL     1      -2.065  10.122  17.606  0.00  0.00    +0.000 A 
ATOM     20  C   UNL     1      -2.457  11.137  18.494  0.00  0.00    +0.000 A 
ATOM     21  C   UNL     1      -1.442  11.722  19.271  0.00  0.00    +0.000 A 
ATOM     22  C   UNL     1      -0.104  11.322  19.167  0.00  0.00    +0.000 A 
BRANCH  20  23
ATOM     23  C   UNL     1      -3.873  11.552  18.645  0.00  0.00    +0.000 A 
ATOM     24  C   UNL     1      -4.285  12.438  19.659  0.00  0.00    +0.000 A 
ATOM     25  C   UNL     1      -5.614  12.866  19.762  0.00  0.00    +0.000 A 
ATOM     26  C   UNL     1      -6.563  12.424  18.845  0.00  0.00    +0.000 A 
ATOM     27  C   UNL     1      -6.189  11.539  17.841  0.00  0.00    +0.000 A 
ATOM     28  C   UNL     1      -4.865  11.102  17.752  0.00  0.00    +0.000 A 
ENDBRANCH  20  23
ENDBRANCH  16  17
ENDBRANCH   2  16
TORSDOF 4
ENDMDL
