MODEL 1
REMARK VINA RESULT:      -9.4      0.000      0.000
REMARK  Name = 
REMARK  5 active torsions:
REMARK  status: ('A' for Active; 'I' for Inactive)
REMARK    1  A    between atoms: C_2  and  C_19
REMARK    2  A    between atoms: N_3  and  C_4
REMARK    3  A    between atoms: C_7  and  C_8
REMARK    4  A    between atoms: C_8  and  C_9
REMARK    5  A    between atoms: C_9  and  C_10
REMARK                            x       y       z     vdW  Elec       q    Type
REMARK                         _______ _______ _______ _____ _____    ______ ____
ROOT
ATOM      1  O   UNL     1       8.069  10.182  17.426  0.00  0.00    +0.000 OA
ATOM      2  C   UNL     1       8.702   9.740  18.374  0.00  0.00    +0.000 C 
ATOM      3  N   UNL     1       8.704   8.429  18.843  0.00  0.00    +0.000 N 
ATOM      4  H   UNL     1       9.189   8.241  19.712  0.00  0.00    +0.000 HD
ENDROOT
BRANCH   2   5
ATOM      5  C   UNL     1       9.461  10.726  19.173  0.00  0.00    +0.000 A 
ATOM      6  C   UNL     1       9.191  10.810  20.553  0.00  0.00    +0.000 A 
ATOM      7  C   UNL     1       9.899  11.698  21.389  0.00  0.00    +0.000 A 
ATOM      8  C   UNL     1      10.920  12.498  20.874  0.00  0.00    +0.000 A 
ATOM      9  C   UNL     1      11.148  12.415  19.517  0.00  0.00    +0.000 A 
ATOM     10  N   UNL     1      12.047  13.138  18.745  0.00  0.00    +0.000 N 
ATOM     11  C   UNL     1      11.798  12.865  17.393  0.00  0.00    +0.000 A 
ATOM     12  O   UNL     1      12.333  13.394  16.438  0.00  0.00    +0.000 OA
ATOM     13  N   UNL     1      10.799  11.878  17.360  0.00  0.00    +0.000 N 
ATOM     14  C   UNL     1      10.410  11.584  18.669  0.00  0.00    +0.000 A 
ATOM     15  H   UNL     1      12.732  13.803  19.065  0.00  0.00    +0.000 HD
ATOM     16  H   UNL     1      10.356  11.570  16.507  0.00  0.00    +0.000 HD
ENDBRANCH   2   5
BRANCH   3  17
ATOM     17  C   UNL     1       7.912   7.368  18.318  0.00  0.00    +0.000 A 
ATOM     18  C   UNL     1       7.038   7.528  17.244  0.00  0.00    +0.000 A 
ATOM     19  C   UNL     1       6.237   6.471  16.795  0.00  0.00    +0.000 A 
ATOM     20  C   UNL     1       6.305   5.208  17.391  0.00  0.00    +0.000 A 
ATOM     21  C   UNL     1       7.186   5.038  18.466  0.00  0.00    +0.000 A 
ATOM     22  C   UNL     1       7.987   6.104  18.919  0.00  0.00    +0.000 A 
BRANCH  20  23
ATOM     23  C   UNL     1       5.422   4.080  16.894  0.00  0.00    +0.000 C 
BRANCH  23  24
ATOM     24  C   UNL     1       3.952   4.277  17.284  0.00  0.00    +0.000 C 
BRANCH  24  25
ATOM     25  C   UNL     1       3.351   3.078  17.998  0.00  0.00    +0.000 C 
ATOM     26  O   UNL     1       3.629   1.923  17.684  0.00  0.00    +0.000 OA
ATOM     27  N   UNL     1       2.494   3.371  19.044  0.00  0.00    +0.000 N 
ATOM     28  C   UNL     1       2.036   4.678  19.477  0.00  0.00    +0.000 C 
ATOM     29  C   UNL     1       1.804   4.488  20.964  0.00  0.00    +0.000 C 
ATOM     30  C   UNL     1       1.275   3.060  21.054  0.00  0.00    +0.000 C 
ATOM     31  C   UNL     1       1.945   2.327  19.893  0.00  0.00    +0.000 C 
ENDBRANCH  24  25
ENDBRANCH  23  24
ENDBRANCH  20  23
ENDBRANCH   3  17
TORSDOF 5
ENDMDL
MODEL 2
REMARK VINA RESULT:      -8.8      6.119      7.989
REMARK  Name = 
REMARK  5 active torsions:
REMARK  status: ('A' for Active; 'I' for Inactive)
REMARK    1  A    between atoms: C_2  and  C_19
REMARK    2  A    between atoms: N_3  and  C_4
REMARK    3  A    between atoms: C_7  and  C_8
REMARK    4  A    between atoms: C_8  and  C_9
REMARK    5  A    between atoms: C_9  and  C_10
REMARK                            x       y       z     vdW  Elec       q    Type
REMARK                         _______ _______ _______ _____ _____    ______ ____
ROOT
ATOM      1  O   UNL     1       1.285   8.810  20.156  0.00  0.00    +0.000 OA
ATOM      2  C   UNL     1       1.214   9.323  19.048  0.00  0.00    +0.000 C 
ATOM      3  N   UNL     1       1.753   8.833  17.862  0.00  0.00    +0.000 N 
ATOM      4  H   UNL     1       1.713   9.431  17.046  0.00  0.00    +0.000 HD
ENDROOT
BRANCH   2   5
ATOM      5  C   UNL     1       0.583  10.659  18.983  0.00  0.00    +0.000 A 
ATOM      6  C   UNL     1       1.272  11.746  19.556  0.00  0.00    +0.000 A 
ATOM      7  C   UNL     1       0.754  13.057  19.501  0.00  0.00    +0.000 A 
ATOM      8  C   UNL     1      -0.447  13.319  18.840  0.00  0.00    +0.000 A 
ATOM      9  C   UNL     1      -1.113  12.236  18.311  0.00  0.00    +0.000 A 
ATOM     10  N   UNL     1      -2.344  12.205  17.668  0.00  0.00    +0.000 N 
ATOM     11  C   UNL     1      -2.717  10.869  17.474  0.00  0.00    +0.000 A 
ATOM     12  O   UNL     1      -3.775  10.470  17.028  0.00  0.00    +0.000 OA
ATOM     13  N   UNL     1      -1.639  10.084  17.916  0.00  0.00    +0.000 N 
ATOM     14  C   UNL     1      -0.640  10.924  18.413  0.00  0.00    +0.000 A 
ATOM     15  H   UNL     1      -2.926  12.990  17.425  0.00  0.00    +0.000 HD
ATOM     16  H   UNL     1      -1.681   9.078  17.985  0.00  0.00    +0.000 HD
ENDBRANCH   2   5
BRANCH   3  17
ATOM     17  C   UNL     1       2.539   7.652  17.743  0.00  0.00    +0.000 A 
ATOM     18  C   UNL     1       3.892   7.667  17.406  0.00  0.00    +0.000 A 
ATOM     19  C   UNL     1       4.615   6.479  17.245  0.00  0.00    +0.000 A 
ATOM     20  C   UNL     1       4.012   5.233  17.443  0.00  0.00    +0.000 A 
ATOM     21  C   UNL     1       2.655   5.210  17.788  0.00  0.00    +0.000 A 
ATOM     22  C   UNL     1       1.929   6.407  17.945  0.00  0.00    +0.000 A 
BRANCH  20  23
ATOM     23  C   UNL     1       4.811   3.958  17.255  0.00  0.00    +0.000 C 
BRANCH  23  24
ATOM     24  C   UNL     1       4.084   2.729  17.813  0.00  0.00    +0.000 C 
BRANCH  24  25
ATOM     25  C   UNL     1       4.146   2.627  19.329  0.00  0.00    +0.000 C 
ATOM     26  O   UNL     1       5.211   2.647  19.941  0.00  0.00    +0.000 OA
ATOM     27  N   UNL     1       2.925   2.541  19.973  0.00  0.00    +0.000 N 
ATOM     28  C   UNL     1       1.608   2.446  19.372  0.00  0.00    +0.000 C 
ATOM     29  C   UNL     1       0.711   3.114  20.398  0.00  0.00    +0.000 C 
ATOM     30  C   UNL     1       1.337   2.705  21.727  0.00  0.00    +0.000 C 
ATOM     31  C   UNL     1       2.829   2.562  21.424  0.00  0.00    +0.000 C 
ENDBRANCH  24  25
ENDBRANCH  23  24
ENDBRANCH  20  23
ENDBRANCH   3  17
TORSDOF 5
ENDMDL
MODEL 3
REMARK VINA RESULT:      -8.8      6.167      7.833
REMARK  Name = 
REMARK  5 active torsions:
REMARK  status: ('A' for Active; 'I' for Inactive)
REMARK    1  A    between atoms: C_2  and  C_19
REMARK    2  A    between atoms: N_3  and  C_4
REMARK    3  A    between atoms: C_7  and  C_8
REMARK    4  A    between atoms: C_8  and  C_9
REMARK    5  A    between atoms: C_9  and  C_10
REMARK                            x       y       z     vdW  Elec       q    Type
REMARK                         _______ _______ _______ _____ _____    ______ ____
ROOT
ATOM      1  O   UNL     1       1.799   9.413  17.356  0.00  0.00    +0.000 OA
ATOM      2  C   UNL     1       1.513   9.182  18.522  0.00  0.00    +0.000 C 
ATOM      3  N   UNL     1       1.820   8.035  19.248  0.00  0.00    +0.000 N 
ATOM      4  H   UNL     1       1.413   7.939  20.170  0.00  0.00    +0.000 HD
ENDROOT
BRANCH   2   5
ATOM      5  C   UNL     1       0.656  10.179  19.198  0.00  0.00    +0.000 A 
ATOM      6  C   UNL     1       0.982  10.548  20.518  0.00  0.00    +0.000 A 
ATOM      7  C   UNL     1       0.236  11.520  21.216  0.00  0.00    +0.000 A 
ATOM      8  C   UNL     1      -0.831  12.175  20.600  0.00  0.00    +0.000 A 
ATOM      9  C   UNL     1      -1.145  11.778  19.319  0.00  0.00    +0.000 A 
ATOM     10  N   UNL     1      -2.186  12.212  18.509  0.00  0.00    +0.000 N 
ATOM     11  C   UNL     1      -2.238  11.399  17.369  0.00  0.00    +0.000 A 
ATOM     12  O   UNL     1      -3.081  11.432  16.494  0.00  0.00    +0.000 OA
ATOM     13  N   UNL     1      -1.140  10.527  17.449  0.00  0.00    +0.000 N 
ATOM     14  C   UNL     1      -0.452  10.772  18.639  0.00  0.00    +0.000 A 
ATOM     15  H   UNL     1      -2.851  12.943  18.707  0.00  0.00    +0.000 HD
ATOM     16  H   UNL     1      -0.994   9.763  16.806  0.00  0.00    +0.000 HD
ENDBRANCH   2   5
BRANCH   3  17
ATOM     17  C   UNL     1       2.490   6.890  18.732  0.00  0.00    +0.000 A 
ATOM     18  C   UNL     1       1.855   5.918  17.960  0.00  0.00    +0.000 A 
ATOM     19  C   UNL     1       2.538   4.779  17.518  0.00  0.00    +0.000 A 
ATOM     20  C   UNL     1       3.891   4.587  17.812  0.00  0.00    +0.000 A 
ATOM     21  C   UNL     1       4.538   5.562  18.582  0.00  0.00    +0.000 A 
ATOM     22  C   UNL     1       3.847   6.705  19.029  0.00  0.00    +0.000 A 
BRANCH  20  23
ATOM     23  C   UNL     1       4.610   3.341  17.330  0.00  0.00    +0.000 C 
BRANCH  23  24
ATOM     24  C   UNL     1       4.085   2.069  18.007  0.00  0.00    +0.000 C 
BRANCH  24  25
ATOM     25  C   UNL     1       4.090   2.147  19.525  0.00  0.00    +0.000 C 
ATOM     26  O   UNL     1       5.130   2.102  20.177  0.00  0.00    +0.000 OA
ATOM     27  N   UNL     1       2.852   2.302  20.121  0.00  0.00    +0.000 N 
ATOM     28  C   UNL     1       1.551   2.307  19.478  0.00  0.00    +0.000 C 
ATOM     29  C   UNL     1       0.725   3.208  20.377  0.00  0.00    +0.000 C 
ATOM     30  C   UNL     1       1.252   2.886  21.772  0.00  0.00    +0.000 C 
ATOM     31  C   UNL     1       2.718   2.512  21.553  0.00  0.00    +0.000 C 
ENDBRANCH  24  25
ENDBRANCH  23  24
ENDBRANCH  20  23
ENDBRANCH   3  17
TORSDOF 5
ENDMDL
MODEL 4
REMARK VINA RESULT:      -8.7      1.929      2.397
REMARK  Name = 
REMARK  5 active torsions:
REMARK  status: ('A' for Active; 'I' for Inactive)
REMARK    1  A    between atoms: C_2  and  C_19
REMARK    2  A    between atoms: N_3  and  C_4
REMARK    3  A    between atoms: C_7  and  C_8
REMARK    4  A    between atoms: C_8  and  C_9
REMARK    5  A    between atoms: C_9  and  C_10
REMARK                            x       y       z     vdW  Elec       q    Type
REMARK                         _______ _______ _______ _____ _____    ______ ____
ROOT
ATOM      1  O   UNL     1       9.249   9.922  19.777  0.00  0.00    +0.000 OA
ATOM      2  C   UNL     1       9.079  10.291  18.624  0.00  0.00    +0.000 C 
ATOM      3  N   UNL     1       8.376   9.623  17.625  0.00  0.00    +0.000 N 
ATOM      4  H   UNL     1       8.423   9.999  16.686  0.00  0.00    +0.000 HD
ENDROOT
BRANCH   2   5
ATOM      5  C   UNL     1       9.786  11.525  18.219  0.00  0.00    +0.000 A 
ATOM      6  C   UNL     1      11.184  11.466  18.061  0.00  0.00    +0.000 A 
ATOM      7  C   UNL     1      11.925  12.590  17.640  0.00  0.00    +0.000 A 
ATOM      8  C   UNL     1      11.284  13.790  17.331  0.00  0.00    +0.000 A 
ATOM      9  C   UNL     1       9.919  13.829  17.518  0.00  0.00    +0.000 A 
ATOM     10  N   UNL     1       9.053  14.902  17.353  0.00  0.00    +0.000 N 
ATOM     11  C   UNL     1       7.791  14.539  17.842  0.00  0.00    +0.000 A 
ATOM     12  O   UNL     1       6.819  15.263  17.942  0.00  0.00    +0.000 OA
ATOM     13  N   UNL     1       7.877  13.187  18.211  0.00  0.00    +0.000 N 
ATOM     14  C   UNL     1       9.182  12.740  17.994  0.00  0.00    +0.000 A 
ATOM     15  H   UNL     1       9.276  15.820  17.003  0.00  0.00    +0.000 HD
ATOM     16  H   UNL     1       7.136  12.698  18.692  0.00  0.00    +0.000 HD
ENDBRANCH   2   5
BRANCH   3  17
ATOM     17  C   UNL     1       7.766   8.344  17.765  0.00  0.00    +0.000 A 
ATOM     18  C   UNL     1       6.586   7.987  17.114  0.00  0.00    +0.000 A 
ATOM     19  C   UNL     1       5.990   6.737  17.322  0.00  0.00    +0.000 A 
ATOM     20  C   UNL     1       6.572   5.791  18.170  0.00  0.00    +0.000 A 
ATOM     21  C   UNL     1       7.761   6.140  18.823  0.00  0.00    +0.000 A 
ATOM     22  C   UNL     1       8.356   7.399  18.615  0.00  0.00    +0.000 A 
BRANCH  20  23
ATOM     23  C   UNL     1       5.905   4.446  18.388  0.00  0.00    +0.000 C 
BRANCH  23  24
ATOM     24  C   UNL     1       4.717   4.227  17.443  0.00  0.00    +0.000 C 
BRANCH  24  25
ATOM     25  C   UNL     1       3.677   3.265  17.995  0.00  0.00    +0.000 C 
ATOM     26  O   UNL     1       3.709   2.060  17.756  0.00  0.00    +0.000 OA
ATOM     27  N   UNL     1       2.710   3.830  18.807  0.00  0.00    +0.000 N 
ATOM     28  C   UNL     1       2.522   5.236  19.118  0.00  0.00    +0.000 C 
ATOM     29  C   UNL     1       1.913   5.203  20.507  0.00  0.00    +0.000 C 
ATOM     30  C   UNL     1       1.024   3.964  20.469  0.00  0.00    +0.000 C 
ATOM     31  C   UNL     1       1.728   3.014  19.501  0.00  0.00    +0.000 C 
ENDBRANCH  24  25
ENDBRANCH  23  24
ENDBRANCH  20  23
ENDBRANCH   3  17
TORSDOF 5
ENDMDL
MODEL 5
REMARK VINA RESULT:      -8.6      6.465      9.983
REMARK  Name = 
REMARK  5 active torsions:
REMARK  status: ('A' for Active; 'I' for Inactive)
REMARK    1  A    between atoms: C_2  and  C_19
REMARK    2  A    between atoms: N_3  and  C_4
REMARK    3  A    between atoms: C_7  and  C_8
REMARK    4  A    between atoms: C_8  and  C_9
REMARK    5  A    between atoms: C_9  and  C_10
REMARK                            x       y       z     vdW  Elec       q    Type
REMARK                         _______ _______ _______ _____ _____    ______ ____
ROOT
ATOM      1  O   UNL     1       2.634   7.371  18.968  0.00  0.00    +0.000 OA
ATOM      2  C   UNL     1       2.234   6.730  19.929  0.00  0.00    +0.000 C 
ATOM      3  N   UNL     1       1.415   7.187  20.958  0.00  0.00    +0.000 N 
ATOM      4  H   UNL     1       1.265   6.572  21.748  0.00  0.00    +0.000 HD
ENDROOT
BRANCH   2   5
ATOM      5  C   UNL     1       2.765   5.357  20.071  0.00  0.00    +0.000 A 
ATOM      6  C   UNL     1       2.040   4.445  20.863  0.00  0.00    +0.000 A 
ATOM      7  C   UNL     1       2.461   3.108  21.016  0.00  0.00    +0.000 A 
ATOM      8  C   UNL     1       3.595   2.639  20.352  0.00  0.00    +0.000 A 
ATOM      9  C   UNL     1       4.299   3.557  19.604  0.00  0.00    +0.000 A 
ATOM     10  N   UNL     1       5.484   3.376  18.903  0.00  0.00    +0.000 N 
ATOM     11  C   UNL     1       5.936   4.624  18.455  0.00  0.00    +0.000 A 
ATOM     12  O   UNL     1       6.988   4.853  17.890  0.00  0.00    +0.000 OA
ATOM     13  N   UNL     1       4.947   5.558  18.804  0.00  0.00    +0.000 N 
ATOM     14  C   UNL     1       3.927   4.900  19.495  0.00  0.00    +0.000 A 
ATOM     15  H   UNL     1       5.994   2.517  18.774  0.00  0.00    +0.000 HD
ATOM     16  H   UNL     1       5.063   6.554  18.691  0.00  0.00    +0.000 HD
ENDBRANCH   2   5
BRANCH   3  17
ATOM     17  C   UNL     1       0.935   8.521  21.095  0.00  0.00    +0.000 A 
ATOM     18  C   UNL     1       0.511   9.057  22.311  0.00  0.00    +0.000 A 
ATOM     19  C   UNL     1      -0.006  10.356  22.392  0.00  0.00    +0.000 A 
ATOM     20  C   UNL     1      -0.090  11.172  21.261  0.00  0.00    +0.000 A 
ATOM     21  C   UNL     1       0.340  10.643  20.037  0.00  0.00    +0.000 A 
ATOM     22  C   UNL     1       0.855   9.335  19.958  0.00  0.00    +0.000 A 
BRANCH  20  23
ATOM     23  C   UNL     1      -0.662  12.573  21.370  0.00  0.00    +0.000 C 
BRANCH  23  24
ATOM     24  C   UNL     1      -1.399  13.001  20.094  0.00  0.00    +0.000 C 
BRANCH  24  25
ATOM     25  C   UNL     1      -2.906  12.820  20.179  0.00  0.00    +0.000 C 
ATOM     26  O   UNL     1      -3.576  13.337  21.070  0.00  0.00    +0.000 OA
ATOM     27  N   UNL     1      -3.476  12.063  19.172  0.00  0.00    +0.000 N 
ATOM     28  C   UNL     1      -2.798  11.351  18.104  0.00  0.00    +0.000 C 
ATOM     29  C   UNL     1      -3.813  11.372  16.976  0.00  0.00    +0.000 C 
ATOM     30  C   UNL     1      -5.146  11.237  17.705  0.00  0.00    +0.000 C 
ATOM     31  C   UNL     1      -4.917  11.911  19.058  0.00  0.00    +0.000 C 
ENDBRANCH  24  25
ENDBRANCH  23  24
ENDBRANCH  20  23
ENDBRANCH   3  17
TORSDOF 5
ENDMDL
MODEL 6
REMARK VINA RESULT:      -8.5      7.158     10.721
REMARK  Name = 
REMARK  5 active torsions:
REMARK  status: ('A' for Active; 'I' for Inactive)
REMARK    1  A    between atoms: C_2  and  C_19
REMARK    2  A    between atoms: N_3  and  C_4
REMARK    3  A    between atoms: C_7  and  C_8
REMARK    4  A    between atoms: C_8  and  C_9
REMARK    5  A    between atoms: C_9  and  C_10
REMARK                            x       y       z     vdW  Elec       q    Type
REMARK                         _______ _______ _______ _____ _____    ______ ____
ROOT
ATOM      1  O   UNL     1       1.487   5.998  20.454  0.00  0.00    +0.000 OA
ATOM      2  C   UNL     1       2.233   6.810  19.926  0.00  0.00    +0.000 C 
ATOM      3  N   UNL     1       2.188   8.195  20.054  0.00  0.00    +0.000 N 
ATOM      4  H   UNL     1       2.799   8.742  19.460  0.00  0.00    +0.000 HD
ENDROOT
BRANCH   2   5
ATOM      5  C   UNL     1       3.216   6.269  18.963  0.00  0.00    +0.000 A 
ATOM      6  C   UNL     1       3.502   7.027  17.811  0.00  0.00    +0.000 A 
ATOM      7  C   UNL     1       4.456   6.597  16.865  0.00  0.00    +0.000 A 
ATOM      8  C   UNL     1       5.175   5.417  17.066  0.00  0.00    +0.000 A 
ATOM      9  C   UNL     1       4.858   4.682  18.188  0.00  0.00    +0.000 A 
ATOM     10  N   UNL     1       5.366   3.454  18.590  0.00  0.00    +0.000 N 
ATOM     11  C   UNL     1       4.619   2.994  19.682  0.00  0.00    +0.000 A 
ATOM     12  O   UNL     1       4.725   1.913  20.227  0.00  0.00    +0.000 OA
ATOM     13  N   UNL     1       3.712   4.016  20.006  0.00  0.00    +0.000 N 
ATOM     14  C   UNL     1       3.871   5.067  19.100  0.00  0.00    +0.000 A 
ATOM     15  H   UNL     1       6.104   2.925  18.153  0.00  0.00    +0.000 HD
ATOM     16  H   UNL     1       2.980   3.908  20.693  0.00  0.00    +0.000 HD
ENDBRANCH   2   5
BRANCH   3  17
ATOM     17  C   UNL     1       1.214   8.921  20.797  0.00  0.00    +0.000 A 
ATOM     18  C   UNL     1       0.265   9.753  20.203  0.00  0.00    +0.000 A 
ATOM     19  C   UNL     1      -0.639  10.491  20.975  0.00  0.00    +0.000 A 
ATOM     20  C   UNL     1      -0.642  10.401  22.370  0.00  0.00    +0.000 A 
ATOM     21  C   UNL     1       0.304   9.563  22.974  0.00  0.00    +0.000 A 
ATOM     22  C   UNL     1       1.216   8.824  22.195  0.00  0.00    +0.000 A 
BRANCH  20  23
ATOM     23  C   UNL     1      -1.625  11.217  23.187  0.00  0.00    +0.000 C 
BRANCH  23  24
ATOM     24  C   UNL     1      -1.907  12.587  22.559  0.00  0.00    +0.000 C 
BRANCH  24  25
ATOM     25  C   UNL     1      -1.066  13.707  23.151  0.00  0.00    +0.000 C 
ATOM     26  O   UNL     1       0.097  13.902  22.807  0.00  0.00    +0.000 OA
ATOM     27  N   UNL     1      -1.706  14.512  24.076  0.00  0.00    +0.000 N 
ATOM     28  C   UNL     1      -3.046  14.356  24.612  0.00  0.00    +0.000 C 
ATOM     29  C   UNL     1      -3.462  15.782  24.921  0.00  0.00    +0.000 C 
ATOM     30  C   UNL     1      -2.164  16.428  25.395  0.00  0.00    +0.000 C 
ATOM     31  C   UNL     1      -1.064  15.692  24.630  0.00  0.00    +0.000 C 
ENDBRANCH  24  25
ENDBRANCH  23  24
ENDBRANCH  20  23
ENDBRANCH   3  17
TORSDOF 5
ENDMDL
MODEL 7
REMARK VINA RESULT:      -8.5      6.417      8.842
REMARK  Name = 
REMARK  5 active torsions:
REMARK  status: ('A' for Active; 'I' for Inactive)
REMARK    1  A    between atoms: C_2  and  C_19
REMARK    2  A    between atoms: N_3  and  C_4
REMARK    3  A    between atoms: C_7  and  C_8
REMARK    4  A    between atoms: C_8  and  C_9
REMARK    5  A    between atoms: C_9  and  C_10
REMARK                            x       y       z     vdW  Elec       q    Type
REMARK                         _______ _______ _______ _____ _____    ______ ____
ROOT
ATOM      1  O   UNL     1       1.474  11.514  19.207  0.00  0.00    +0.000 OA
ATOM      2  C   UNL     1       0.610  10.867  19.783  0.00  0.00    +0.000 C 
ATOM      3  N   UNL     1       0.552   9.484  19.920  0.00  0.00    +0.000 N 
ATOM      4  H   UNL     1      -0.288   9.086  20.322  0.00  0.00    +0.000 HD
ENDROOT
BRANCH   2   5
ATOM      5  C   UNL     1      -0.550  11.629  20.292  0.00  0.00    +0.000 A 
ATOM      6  C   UNL     1      -0.434  12.248  21.552  0.00  0.00    +0.000 A 
ATOM      7  C   UNL     1      -1.483  13.024  22.090  0.00  0.00    +0.000 A 
ATOM      8  C   UNL     1      -2.658  13.230  21.366  0.00  0.00    +0.000 A 
ATOM      9  C   UNL     1      -2.755  12.594  20.148  0.00  0.00    +0.000 A 
ATOM     10  N   UNL     1      -3.826  12.576  19.264  0.00  0.00    +0.000 N 
ATOM     11  C   UNL     1      -3.556  11.646  18.251  0.00  0.00    +0.000 A 
ATOM     12  O   UNL     1      -4.313  11.304  17.363  0.00  0.00    +0.000 OA
ATOM     13  N   UNL     1      -2.253  11.175  18.475  0.00  0.00    +0.000 N 
ATOM     14  C   UNL     1      -1.748  11.772  19.633  0.00  0.00    +0.000 A 
ATOM     15  H   UNL     1      -4.692  13.084  19.342  0.00  0.00    +0.000 HD
ATOM     16  H   UNL     1      -1.841  10.417  17.951  0.00  0.00    +0.000 HD
ENDBRANCH   2   5
BRANCH   3  17
ATOM     17  C   UNL     1       1.481   8.562  19.358  0.00  0.00    +0.000 A 
ATOM     18  C   UNL     1       2.030   7.500  20.075  0.00  0.00    +0.000 A 
ATOM     19  C   UNL     1       2.982   6.650  19.500  0.00  0.00    +0.000 A 
ATOM     20  C   UNL     1       3.397   6.818  18.176  0.00  0.00    +0.000 A 
ATOM     21  C   UNL     1       2.845   7.879  17.447  0.00  0.00    +0.000 A 
ATOM     22  C   UNL     1       1.890   8.736  18.029  0.00  0.00    +0.000 A 
BRANCH  20  23
ATOM     23  C   UNL     1       4.436   5.890  17.576  0.00  0.00    +0.000 C 
BRANCH  23  24
ATOM     24  C   UNL     1       3.960   4.433  17.534  0.00  0.00    +0.000 C 
BRANCH  24  25
ATOM     25  C   UNL     1       4.146   3.699  18.852  0.00  0.00    +0.000 C 
ATOM     26  O   UNL     1       5.258   3.497  19.336  0.00  0.00    +0.000 OA
ATOM     27  N   UNL     1       2.983   3.302  19.486  0.00  0.00    +0.000 N 
ATOM     28  C   UNL     1       1.621   3.422  19.000  0.00  0.00    +0.000 C 
ATOM     29  C   UNL     1       0.809   3.556  20.275  0.00  0.00    +0.000 C 
ATOM     30  C   UNL     1       1.544   2.644  21.253  0.00  0.00    +0.000 C 
ATOM     31  C   UNL     1       3.006   2.700  20.810  0.00  0.00    +0.000 C 
ENDBRANCH  24  25
ENDBRANCH  23  24
ENDBRANCH  20  23
ENDBRANCH   3  17
TORSDOF 5
ENDMDL
MODEL 8
REMARK VINA RESULT:      -8.4      6.021      8.911
REMARK  Name = 
REMARK  5 active torsions:
REMARK  status: ('A' for Active; 'I' for Inactive)
REMARK    1  A    between atoms: C_2  and  C_19
REMARK    2  A    between atoms: N_3  and  C_4
REMARK    3  A    between atoms: C_7  and  C_8
REMARK    4  A    between atoms: C_8  and  C_9
REMARK    5  A    between atoms: C_9  and  C_10
REMARK                            x       y       z     vdW  Elec       q    Type
REMARK                         _______ _______ _______ _____ _____    ______ ____
ROOT
ATOM      1  O   UNL     1       1.277   8.978  20.115  0.00  0.00    +0.000 OA
ATOM      2  C   UNL     1       1.254   9.433  18.981  0.00  0.00    +0.000 C 
ATOM      3  N   UNL     1       1.880   8.908  17.854  0.00  0.00    +0.000 N 
ATOM      4  H   UNL     1       1.867   9.462  17.007  0.00  0.00    +0.000 HD
ENDROOT
BRANCH   2   5
ATOM      5  C   UNL     1       0.580  10.738  18.811  0.00  0.00    +0.000 A 
ATOM      6  C   UNL     1       1.320  11.906  19.081  0.00  0.00    +0.000 A 
ATOM      7  C   UNL     1       0.759  13.189  18.907  0.00  0.00    +0.000 A 
ATOM      8  C   UNL     1      -0.541  13.337  18.423  0.00  0.00    +0.000 A 
ATOM      9  C   UNL     1      -1.251  12.179  18.190  0.00  0.00    +0.000 A 
ATOM     10  N   UNL     1      -2.569  12.041  17.775  0.00  0.00    +0.000 N 
ATOM     11  C   UNL     1      -2.927  10.689  17.860  0.00  0.00    +0.000 A 
ATOM     12  O   UNL     1      -4.031  10.219  17.666  0.00  0.00    +0.000 OA
ATOM     13  N   UNL     1      -1.768   9.990  18.234  0.00  0.00    +0.000 N 
ATOM     14  C   UNL     1      -0.728  10.903  18.419  0.00  0.00    +0.000 A 
ATOM     15  H   UNL     1      -3.208  12.774  17.512  0.00  0.00    +0.000 HD
ATOM     16  H   UNL     1      -1.767   9.008  18.468  0.00  0.00    +0.000 HD
ENDBRANCH   2   5
BRANCH   3  17
ATOM     17  C   UNL     1       2.714   7.754  17.841  0.00  0.00    +0.000 A 
ATOM     18  C   UNL     1       4.062   7.791  17.485  0.00  0.00    +0.000 A 
ATOM     19  C   UNL     1       4.833   6.623  17.432  0.00  0.00    +0.000 A 
ATOM     20  C   UNL     1       4.285   5.380  17.760  0.00  0.00    +0.000 A 
ATOM     21  C   UNL     1       2.933   5.335  18.125  0.00  0.00    +0.000 A 
ATOM     22  C   UNL     1       2.159   6.511  18.173  0.00  0.00    +0.000 A 
BRANCH  20  23
ATOM     23  C   UNL     1       5.136   4.126  17.687  0.00  0.00    +0.000 C 
BRANCH  23  24
ATOM     24  C   UNL     1       5.313   3.627  16.248  0.00  0.00    +0.000 C 
BRANCH  24  25
ATOM     25  C   UNL     1       6.494   4.260  15.530  0.00  0.00    +0.000 C 
ATOM     26  O   UNL     1       7.454   4.725  16.138  0.00  0.00    +0.000 OA
ATOM     27  N   UNL     1       6.430   4.249  14.148  0.00  0.00    +0.000 N 
ATOM     28  C   UNL     1       5.335   3.791  13.313  0.00  0.00    +0.000 C 
ATOM     29  C   UNL     1       6.037   3.314  12.055  0.00  0.00    +0.000 C 
ATOM     30  C   UNL     1       7.187   4.304  11.902  0.00  0.00    +0.000 C 
ATOM     31  C   UNL     1       7.542   4.708  13.333  0.00  0.00    +0.000 C 
ENDBRANCH  24  25
ENDBRANCH  23  24
ENDBRANCH  20  23
ENDBRANCH   3  17
TORSDOF 5
ENDMDL
MODEL 9
REMARK VINA RESULT:      -8.4      2.067      2.718
REMARK  Name = 
REMARK  5 active torsions:
REMARK  status: ('A' for Active; 'I' for Inactive)
REMARK    1  A    between atoms: C_2  and  C_19
REMARK    2  A    between atoms: N_3  and  C_4
REMARK    3  A    between atoms: C_7  and  C_8
REMARK    4  A    between atoms: C_8  and  C_9
REMARK    5  A    between atoms: C_9  and  C_10
REMARK                            x       y       z     vdW  Elec       q    Type
REMARK                         _______ _______ _______ _____ _____    ______ ____
ROOT
ATOM      1  O   UNL     1       9.085  10.287  20.112  0.00  0.00    +0.000 OA
ATOM      2  C   UNL     1       9.120  10.568  18.922  0.00  0.00    +0.000 C 
ATOM      3  N   UNL     1       8.640   9.801  17.866  0.00  0.00    +0.000 N 
ATOM      4  H   UNL     1       8.847  10.113  16.925  0.00  0.00    +0.000 HD
ENDROOT
BRANCH   2   5
ATOM      5  C   UNL     1       9.848  11.804  18.561  0.00  0.00    +0.000 A 
ATOM      6  C   UNL     1      10.929  11.698  17.665  0.00  0.00    +0.000 A 
ATOM      7  C   UNL     1      11.649  12.836  17.243  0.00  0.00    +0.000 A 
ATOM      8  C   UNL     1      11.283  14.110  17.677  0.00  0.00    +0.000 A 
ATOM      9  C   UNL     1      10.238  14.183  18.572  0.00  0.00    +0.000 A 
ATOM     10  N   UNL     1       9.718  15.304  19.206  0.00  0.00    +0.000 N 
ATOM     11  C   UNL     1       8.796  14.886  20.174  0.00  0.00    +0.000 A 
ATOM     12  O   UNL     1       8.221  15.593  20.979  0.00  0.00    +0.000 OA
ATOM     13  N   UNL     1       8.685  13.492  20.046  0.00  0.00    +0.000 N 
ATOM     14  C   UNL     1       9.558  13.058  19.046  0.00  0.00    +0.000 A 
ATOM     15  H   UNL     1       9.983  16.266  19.062  0.00  0.00    +0.000 HD
ATOM     16  H   UNL     1       8.163  12.918  20.692  0.00  0.00    +0.000 HD
ENDBRANCH   2   5
BRANCH   3  17
ATOM     17  C   UNL     1       8.058   8.507  17.987  0.00  0.00    +0.000 A 
ATOM     18  C   UNL     1       8.536   7.536  18.867  0.00  0.00    +0.000 A 
ATOM     19  C   UNL     1       7.969   6.256  18.915  0.00  0.00    +0.000 A 
ATOM     20  C   UNL     1       6.885   5.914  18.103  0.00  0.00    +0.000 A 
ATOM     21  C   UNL     1       6.395   6.886  17.221  0.00  0.00    +0.000 A 
ATOM     22  C   UNL     1       6.970   8.171  17.171  0.00  0.00    +0.000 A 
BRANCH  20  23
ATOM     23  C   UNL     1       6.292   4.520  18.165  0.00  0.00    +0.000 C 
BRANCH  23  24
ATOM     24  C   UNL     1       5.077   4.447  19.098  0.00  0.00    +0.000 C 
BRANCH  24  25
ATOM     25  C   UNL     1       3.793   4.048  18.387  0.00  0.00    +0.000 C 
ATOM     26  O   UNL     1       3.750   3.861  17.174  0.00  0.00    +0.000 OA
ATOM     27  N   UNL     1       2.686   3.881  19.200  0.00  0.00    +0.000 N 
ATOM     28  C   UNL     1       2.586   4.127  20.626  0.00  0.00    +0.000 C 
ATOM     29  C   UNL     1       1.531   3.133  21.075  0.00  0.00    +0.000 C 
ATOM     30  C   UNL     1       0.559   3.104  19.901  0.00  0.00    +0.000 C 
ATOM     31  C   UNL     1       1.426   3.383  18.674  0.00  0.00    +0.000 C 
ENDBRANCH  24  25
ENDBRANCH  23  24
ENDBRANCH  20  23
ENDBRANCH   3  17
TORSDOF 5
ENDMDL
