MODEL 1
REMARK VINA RESULT:      -9.4      0.000      0.000
REMARK  Name = 
REMARK  3 active torsions:
REMARK  status: ('A' for Active; 'I' for Inactive)
REMARK    1  A    between atoms: C_4  and  C_5
REMARK    2  A    between atoms: N_7  and  C_8
REMARK    3  A    between atoms: C_12  and  C_13
REMARK                            x       y       z     vdW  Elec       q    Type
REMARK                         _______ _______ _______ _____ _____    ______ ____
ROOT
ATOM      1  C   UNL     1       5.230   6.037  16.141  0.00  0.00    +0.000 C 
ATOM      2  O   UNL     1       4.953   6.993  15.418  0.00  0.00    +0.000 OA
ATOM      3  N   UNL     1       5.807   4.847  15.722  0.00  0.00    +0.000 N 
ATOM      4  H   UNL     1       5.784   4.063  16.366  0.00  0.00    +0.000 HD
ENDROOT
BRANCH   1   8
ATOM      5  O   UNL     1       7.978   4.804  18.996  0.00  0.00    +0.000 OA
ATOM      6  C   UNL     1       6.768   4.949  18.848  0.00  0.00    +0.000 C 
ATOM      7  C   UNL     1       6.154   6.273  18.474  0.00  0.00    +0.000 C 
ATOM      8  C   UNL     1       4.896   6.123  17.629  0.00  0.00    +0.000 C 
ATOM      9  C   UNL     1       3.999   5.002  18.089  0.00  0.00    +0.000 A 
ATOM     10  C   UNL     1       2.643   4.978  17.730  0.00  0.00    +0.000 A 
ATOM     11  C   UNL     1       1.840   3.905  18.116  0.00  0.00    +0.000 A 
ATOM     12  C   UNL     1       2.392   2.868  18.860  0.00  0.00    +0.000 A 
ATOM     13  F   UNL     1       1.618   1.841  19.231  0.00  0.00    +0.000 F 
ATOM     14  C   UNL     1       3.736   2.871  19.213  0.00  0.00    +0.000 A 
ATOM     15  C   UNL     1       4.538   3.939  18.821  0.00  0.00    +0.000 A 
ATOM     16  N   UNL     1       5.908   3.917  19.099  0.00  0.00    +0.000 N 
ATOM     17  H   UNL     1       6.331   3.087  19.498  0.00  0.00    +0.000 HD
ENDBRANCH   1   8
BRANCH   3  18
ATOM     18  C   UNL     1       6.173   4.546  14.390  0.00  0.00    +0.000 A 
ATOM     19  C   UNL     1       7.408   4.908  13.844  0.00  0.00    +0.000 A 
ATOM     20  C   UNL     1       7.687   4.676  12.496  0.00  0.00    +0.000 A 
ATOM     21  C   UNL     1       6.737   4.082  11.680  0.00  0.00    +0.000 A 
ATOM     22  C   UNL     1       5.501   3.678  12.210  0.00  0.00    +0.000 A 
ATOM     23  C   UNL     1       5.242   3.886  13.578  0.00  0.00    +0.000 A 
BRANCH  22  24
ATOM     24  C   UNL     1       4.448   3.068  11.318  0.00  0.00    +0.000 C 
ATOM     25  F   UNL     1       4.140   3.836  10.234  0.00  0.00    +0.000 F 
ATOM     26  F   UNL     1       4.815   1.855  10.826  0.00  0.00    +0.000 F 
ATOM     27  F   UNL     1       3.270   2.867  11.972  0.00  0.00    +0.000 F 
ENDBRANCH  22  24
ENDBRANCH   3  18
TORSDOF 3
ENDMDL
MODEL 2
REMARK VINA RESULT:      -9.1      5.003      7.903
REMARK  Name = 
REMARK  3 active torsions:
REMARK  status: ('A' for Active; 'I' for Inactive)
REMARK    1  A    between atoms: C_4  and  C_5
REMARK    2  A    between atoms: N_7  and  C_8
REMARK    3  A    between atoms: C_12  and  C_13
REMARK                            x       y       z     vdW  Elec       q    Type
REMARK                         _______ _______ _______ _____ _____    ______ ____
ROOT
ATOM      1  C   UNL     1       2.846   5.731  17.817  0.00  0.00    +0.000 C 
ATOM      2  O   UNL     1       1.732   5.209  17.797  0.00  0.00    +0.000 OA
ATOM      3  N   UNL     1       3.116   7.045  18.175  0.00  0.00    +0.000 N 
ATOM      4  H   UNL     1       4.032   7.414  17.943  0.00  0.00    +0.000 HD
ENDROOT
BRANCH   1   8
ATOM      5  O   UNL     1       4.075   2.472  20.071  0.00  0.00    +0.000 OA
ATOM      6  C   UNL     1       4.520   3.293  19.276  0.00  0.00    +0.000 C 
ATOM      7  C   UNL     1       3.951   3.467  17.892  0.00  0.00    +0.000 C 
ATOM      8  C   UNL     1       4.053   4.900  17.388  0.00  0.00    +0.000 C 
ATOM      9  C   UNL     1       5.365   5.561  17.730  0.00  0.00    +0.000 A 
ATOM     10  C   UNL     1       5.811   6.681  17.012  0.00  0.00    +0.000 A 
ATOM     11  C   UNL     1       6.998   7.314  17.377  0.00  0.00    +0.000 A 
ATOM     12  C   UNL     1       7.734   6.825  18.451  0.00  0.00    +0.000 A 
ATOM     13  F   UNL     1       8.874   7.434  18.798  0.00  0.00    +0.000 F 
ATOM     14  C   UNL     1       7.300   5.724  19.180  0.00  0.00    +0.000 A 
ATOM     15  C   UNL     1       6.111   5.098  18.819  0.00  0.00    +0.000 A 
ATOM     16  N   UNL     1       5.620   4.041  19.591  0.00  0.00    +0.000 N 
ATOM     17  H   UNL     1       6.077   3.795  20.462  0.00  0.00    +0.000 HD
ENDBRANCH   1   8
BRANCH   3  18
ATOM     18  C   UNL     1       2.148   7.992  18.580  0.00  0.00    +0.000 A 
ATOM     19  C   UNL     1       1.557   8.897  17.694  0.00  0.00    +0.000 A 
ATOM     20  C   UNL     1       0.678   9.877  18.156  0.00  0.00    +0.000 A 
ATOM     21  C   UNL     1       0.382   9.965  19.508  0.00  0.00    +0.000 A 
ATOM     22  C   UNL     1       0.936   9.049  20.416  0.00  0.00    +0.000 A 
ATOM     23  C   UNL     1       1.794   8.042  19.934  0.00  0.00    +0.000 A 
BRANCH  22  24
ATOM     24  C   UNL     1       0.649   9.166  21.892  0.00  0.00    +0.000 C 
ATOM     25  F   UNL     1      -0.380   8.377  22.312  0.00  0.00    +0.000 F 
ATOM     26  F   UNL     1       1.717   8.830  22.664  0.00  0.00    +0.000 F 
ATOM     27  F   UNL     1       0.310  10.435  22.254  0.00  0.00    +0.000 F 
ENDBRANCH  22  24
ENDBRANCH   3  18
TORSDOF 3
ENDMDL
MODEL 3
REMARK VINA RESULT:      -8.8      3.865      7.443
REMARK  Name = 
REMARK  3 active torsions:
REMARK  status: ('A' for Active; 'I' for Inactive)
REMARK    1  A    between atoms: C_4  and  C_5
REMARK    2  A    between atoms: N_7  and  C_8
REMARK    3  A    between atoms: C_12  and  C_13
REMARK                            x       y       z     vdW  Elec       q    Type
REMARK                         _______ _______ _______ _____ _____    ______ ____
ROOT
ATOM      1  C   UNL     1       3.343   5.039  17.879  0.00  0.00    +0.000 C 
ATOM      2  O   UNL     1       2.210   4.691  17.547  0.00  0.00    +0.000 OA
ATOM      3  N   UNL     1       3.696   6.294  18.354  0.00  0.00    +0.000 N 
ATOM      4  H   UNL     1       4.684   6.522  18.384  0.00  0.00    +0.000 HD
ENDROOT
BRANCH   1   8
ATOM      5  O   UNL     1       6.824   5.495  20.090  0.00  0.00    +0.000 OA
ATOM      6  C   UNL     1       6.428   4.988  19.046  0.00  0.00    +0.000 C 
ATOM      7  C   UNL     1       5.321   3.966  19.014  0.00  0.00    +0.000 C 
ATOM      8  C   UNL     1       4.488   4.037  17.742  0.00  0.00    +0.000 C 
ATOM      9  C   UNL     1       5.313   4.264  16.500  0.00  0.00    +0.000 A 
ATOM     10  C   UNL     1       4.803   3.939  15.234  0.00  0.00    +0.000 A 
ATOM     11  C   UNL     1       5.556   4.208  14.091  0.00  0.00    +0.000 A 
ATOM     12  C   UNL     1       6.812   4.792  14.219  0.00  0.00    +0.000 A 
ATOM     13  F   UNL     1       7.533   5.047  13.121  0.00  0.00    +0.000 F 
ATOM     14  C   UNL     1       7.326   5.131  15.465  0.00  0.00    +0.000 A 
ATOM     15  C   UNL     1       6.569   4.869  16.604  0.00  0.00    +0.000 A 
ATOM     16  N   UNL     1       7.037   5.277  17.857  0.00  0.00    +0.000 N 
ATOM     17  H   UNL     1       7.874   5.844  17.925  0.00  0.00    +0.000 HD
ENDBRANCH   1   8
BRANCH   3  18
ATOM     18  C   UNL     1       2.803   7.375  18.535  0.00  0.00    +0.000 A 
ATOM     19  C   UNL     1       2.599   8.360  17.565  0.00  0.00    +0.000 A 
ATOM     20  C   UNL     1       1.781   9.460  17.826  0.00  0.00    +0.000 A 
ATOM     21  C   UNL     1       1.159   9.588  19.059  0.00  0.00    +0.000 A 
ATOM     22  C   UNL     1       1.321   8.598  20.041  0.00  0.00    +0.000 A 
ATOM     23  C   UNL     1       2.120   7.475  19.754  0.00  0.00    +0.000 A 
BRANCH  22  24
ATOM     24  C   UNL     1       0.680   8.753  21.397  0.00  0.00    +0.000 C 
ATOM     25  F   UNL     1       1.546   8.567  22.434  0.00  0.00    +0.000 F 
ATOM     26  F   UNL     1       0.132   9.984  21.583  0.00  0.00    +0.000 F 
ATOM     27  F   UNL     1      -0.330   7.860  21.597  0.00  0.00    +0.000 F 
ENDBRANCH  22  24
ENDBRANCH   3  18
TORSDOF 3
ENDMDL
MODEL 4
REMARK VINA RESULT:      -8.7      5.075      7.654
REMARK  Name = 
REMARK  3 active torsions:
REMARK  status: ('A' for Active; 'I' for Inactive)
REMARK    1  A    between atoms: C_4  and  C_5
REMARK    2  A    between atoms: N_7  and  C_8
REMARK    3  A    between atoms: C_12  and  C_13
REMARK                            x       y       z     vdW  Elec       q    Type
REMARK                         _______ _______ _______ _____ _____    ______ ____
ROOT
ATOM      1  C   UNL     1       2.687   5.682  18.071  0.00  0.00    +0.000 C 
ATOM      2  O   UNL     1       1.540   5.276  17.886  0.00  0.00    +0.000 OA
ATOM      3  N   UNL     1       3.040   6.790  18.830  0.00  0.00    +0.000 N 
ATOM      4  H   UNL     1       3.984   7.146  18.727  0.00  0.00    +0.000 HD
ENDROOT
BRANCH   1   8
ATOM      5  O   UNL     1       4.157   2.150  19.676  0.00  0.00    +0.000 OA
ATOM      6  C   UNL     1       4.513   3.087  18.969  0.00  0.00    +0.000 C 
ATOM      7  C   UNL     1       3.799   3.452  17.693  0.00  0.00    +0.000 C 
ATOM      8  C   UNL     1       3.843   4.946  17.399  0.00  0.00    +0.000 C 
ATOM      9  C   UNL     1       5.183   5.572  17.695  0.00  0.00    +0.000 A 
ATOM     10  C   UNL     1       5.546   6.793  17.107  0.00  0.00    +0.000 A 
ATOM     11  C   UNL     1       6.765   7.388  17.435  0.00  0.00    +0.000 A 
ATOM     12  C   UNL     1       7.612   6.759  18.341  0.00  0.00    +0.000 A 
ATOM     13  F   UNL     1       8.782   7.331  18.652  0.00  0.00    +0.000 F 
ATOM     14  C   UNL     1       7.261   5.555  18.941  0.00  0.00    +0.000 A 
ATOM     15  C   UNL     1       6.042   4.968  18.618  0.00  0.00    +0.000 A 
ATOM     16  N   UNL     1       5.639   3.800  19.273  0.00  0.00    +0.000 N 
ATOM     17  H   UNL     1       6.187   3.437  20.045  0.00  0.00    +0.000 HD
ENDBRANCH   1   8
BRANCH   3  18
ATOM     18  C   UNL     1       2.131   7.627  19.516  0.00  0.00    +0.000 A 
ATOM     19  C   UNL     1       1.731   7.391  20.835  0.00  0.00    +0.000 A 
ATOM     20  C   UNL     1       0.759   8.189  21.439  0.00  0.00    +0.000 A 
ATOM     21  C   UNL     1       0.174   9.229  20.733  0.00  0.00    +0.000 A 
ATOM     22  C   UNL     1       0.579   9.509  19.418  0.00  0.00    +0.000 A 
ATOM     23  C   UNL     1       1.586   8.720  18.830  0.00  0.00    +0.000 A 
BRANCH  22  24
ATOM     24  C   UNL     1      -0.083  10.613  18.632  0.00  0.00    +0.000 C 
ATOM     25  F   UNL     1      -1.119  11.206  19.290  0.00  0.00    +0.000 F 
ATOM     26  F   UNL     1       0.776  11.615  18.306  0.00  0.00    +0.000 F 
ATOM     27  F   UNL     1      -0.603  10.168  17.453  0.00  0.00    +0.000 F 
ENDBRANCH  22  24
ENDBRANCH   3  18
TORSDOF 3
ENDMDL
MODEL 5
REMARK VINA RESULT:      -8.4      4.249      7.860
REMARK  Name = 
REMARK  3 active torsions:
REMARK  status: ('A' for Active; 'I' for Inactive)
REMARK    1  A    between atoms: C_4  and  C_5
REMARK    2  A    between atoms: N_7  and  C_8
REMARK    3  A    between atoms: C_12  and  C_13
REMARK                            x       y       z     vdW  Elec       q    Type
REMARK                         _______ _______ _______ _____ _____    ______ ____
ROOT
ATOM      1  C   UNL     1       3.965   6.379  18.055  0.00  0.00    +0.000 C 
ATOM      2  O   UNL     1       4.511   7.318  17.478  0.00  0.00    +0.000 OA
ATOM      3  N   UNL     1       2.808   6.461  18.816  0.00  0.00    +0.000 N 
ATOM      4  H   UNL     1       2.583   5.672  19.413  0.00  0.00    +0.000 HD
ENDROOT
BRANCH   1   8
ATOM      5  O   UNL     1       7.514   5.573  20.049  0.00  0.00    +0.000 OA
ATOM      6  C   UNL     1       6.865   5.188  19.081  0.00  0.00    +0.000 C 
ATOM      7  C   UNL     1       5.446   4.695  19.206  0.00  0.00    +0.000 C 
ATOM      8  C   UNL     1       4.606   4.995  17.972  0.00  0.00    +0.000 C 
ATOM      9  C   UNL     1       5.348   4.774  16.678  0.00  0.00    +0.000 A 
ATOM     10  C   UNL     1       4.649   4.583  15.476  0.00  0.00    +0.000 A 
ATOM     11  C   UNL     1       5.350   4.437  14.279  0.00  0.00    +0.000 A 
ATOM     12  C   UNL     1       6.740   4.478  14.289  0.00  0.00    +0.000 A 
ATOM     13  F   UNL     1       7.410   4.335  13.139  0.00  0.00    +0.000 F 
ATOM     14  C   UNL     1       7.447   4.679  15.469  0.00  0.00    +0.000 A 
ATOM     15  C   UNL     1       6.745   4.831  16.662  0.00  0.00    +0.000 A 
ATOM     16  N   UNL     1       7.438   5.114  17.843  0.00  0.00    +0.000 N 
ATOM     17  H   UNL     1       8.434   5.301  17.814  0.00  0.00    +0.000 HD
ENDBRANCH   1   8
BRANCH   3  18
ATOM     18  C   UNL     1       2.068   7.643  19.045  0.00  0.00    +0.000 A 
ATOM     19  C   UNL     1       1.818   8.586  18.044  0.00  0.00    +0.000 A 
ATOM     20  C   UNL     1       1.167   9.784  18.339  0.00  0.00    +0.000 A 
ATOM     21  C   UNL     1       0.759  10.054  19.637  0.00  0.00    +0.000 A 
ATOM     22  C   UNL     1       0.968   9.111  20.656  0.00  0.00    +0.000 A 
ATOM     23  C   UNL     1       1.595   7.891  20.340  0.00  0.00    +0.000 A 
BRANCH  22  24
ATOM     24  C   UNL     1       0.564   9.417  22.076  0.00  0.00    +0.000 C 
ATOM     25  F   UNL     1      -0.493   8.675  22.515  0.00  0.00    +0.000 F 
ATOM     26  F   UNL     1       1.567   9.201  22.968  0.00  0.00    +0.000 F 
ATOM     27  F   UNL     1       0.192  10.718  22.239  0.00  0.00    +0.000 F 
ENDBRANCH  22  24
ENDBRANCH   3  18
TORSDOF 3
ENDMDL
MODEL 6
REMARK VINA RESULT:      -8.2      4.027      7.430
REMARK  Name = 
REMARK  3 active torsions:
REMARK  status: ('A' for Active; 'I' for Inactive)
REMARK    1  A    between atoms: C_4  and  C_5
REMARK    2  A    between atoms: N_7  and  C_8
REMARK    3  A    between atoms: C_12  and  C_13
REMARK                            x       y       z     vdW  Elec       q    Type
REMARK                         _______ _______ _______ _____ _____    ______ ____
ROOT
ATOM      1  C   UNL     1       2.471   4.793  17.623  0.00  0.00    +0.000 C 
ATOM      2  O   UNL     1       1.259   4.662  17.455  0.00  0.00    +0.000 OA
ATOM      3  N   UNL     1       3.108   5.951  18.049  0.00  0.00    +0.000 N 
ATOM      4  H   UNL     1       4.115   5.999  17.938  0.00  0.00    +0.000 HD
ENDROOT
BRANCH   1   8
ATOM      5  O   UNL     1       4.844   3.133  20.594  0.00  0.00    +0.000 OA
ATOM      6  C   UNL     1       4.802   3.250  19.374  0.00  0.00    +0.000 C 
ATOM      7  C   UNL     1       3.634   2.761  18.556  0.00  0.00    +0.000 C 
ATOM      8  C   UNL     1       3.386   3.609  17.316  0.00  0.00    +0.000 C 
ATOM      9  C   UNL     1       4.654   4.022  16.611  0.00  0.00    +0.000 A 
ATOM     10  C   UNL     1       4.627   4.421  15.266  0.00  0.00    +0.000 A 
ATOM     11  C   UNL     1       5.798   4.853  14.645  0.00  0.00    +0.000 A 
ATOM     12  C   UNL     1       6.987   4.880  15.367  0.00  0.00    +0.000 A 
ATOM     13  F   UNL     1       8.110   5.293  14.768  0.00  0.00    +0.000 F 
ATOM     14  C   UNL     1       7.028   4.499  16.704  0.00  0.00    +0.000 A 
ATOM     15  C   UNL     1       5.856   4.075  17.323  0.00  0.00    +0.000 A 
ATOM     16  N   UNL     1       5.865   3.767  18.687  0.00  0.00    +0.000 N 
ATOM     17  H   UNL     1       6.695   3.942  19.241  0.00  0.00    +0.000 HD
ENDBRANCH   1   8
BRANCH   3  18
ATOM     18  C   UNL     1       2.458   7.166  18.364  0.00  0.00    +0.000 A 
ATOM     19  C   UNL     1       2.411   8.250  17.482  0.00  0.00    +0.000 A 
ATOM     20  C   UNL     1       1.843   9.463  17.873  0.00  0.00    +0.000 A 
ATOM     21  C   UNL     1       1.317   9.607  19.148  0.00  0.00    +0.000 A 
ATOM     22  C   UNL     1       1.321   8.525  20.043  0.00  0.00    +0.000 A 
ATOM     23  C   UNL     1       1.866   7.295  19.626  0.00  0.00    +0.000 A 
BRANCH  22  24
ATOM     24  C   UNL     1       0.788   8.688  21.444  0.00  0.00    +0.000 C 
ATOM     25  F   UNL     1      -0.342   7.964  21.686  0.00  0.00    +0.000 F 
ATOM     26  F   UNL     1       1.683   8.312  22.396  0.00  0.00    +0.000 F 
ATOM     27  F   UNL     1       0.463   9.981  21.726  0.00  0.00    +0.000 F 
ENDBRANCH  22  24
ENDBRANCH   3  18
TORSDOF 3
ENDMDL
MODEL 7
REMARK VINA RESULT:      -8.0      5.654      8.080
REMARK  Name = 
REMARK  3 active torsions:
REMARK  status: ('A' for Active; 'I' for Inactive)
REMARK    1  A    between atoms: C_4  and  C_5
REMARK    2  A    between atoms: N_7  and  C_8
REMARK    3  A    between atoms: C_12  and  C_13
REMARK                            x       y       z     vdW  Elec       q    Type
REMARK                         _______ _______ _______ _____ _____    ______ ____
ROOT
ATOM      1  C   UNL     1       2.237   7.397  18.483  0.00  0.00    +0.000 C 
ATOM      2  O   UNL     1       2.187   7.467  19.711  0.00  0.00    +0.000 OA
ATOM      3  N   UNL     1       1.758   8.353  17.599  0.00  0.00    +0.000 N 
ATOM      4  H   UNL     1       1.660   8.084  16.626  0.00  0.00    +0.000 HD
ENDROOT
BRANCH   1   8
ATOM      5  O   UNL     1       1.952   3.709  20.363  0.00  0.00    +0.000 OA
ATOM      6  C   UNL     1       2.659   4.308  19.559  0.00  0.00    +0.000 C 
ATOM      7  C   UNL     1       2.113   4.888  18.280  0.00  0.00    +0.000 C 
ATOM      8  C   UNL     1       2.845   6.150  17.844  0.00  0.00    +0.000 C 
ATOM      9  C   UNL     1       4.339   6.069  18.034  0.00  0.00    +0.000 A 
ATOM     10  C   UNL     1       5.197   6.920  17.321  0.00  0.00    +0.000 A 
ATOM     11  C   UNL     1       6.572   6.871  17.549  0.00  0.00    +0.000 A 
ATOM     12  C   UNL     1       7.081   5.973  18.481  0.00  0.00    +0.000 A 
ATOM     13  F   UNL     1       8.401   5.926  18.696  0.00  0.00    +0.000 F 
ATOM     14  C   UNL     1       6.243   5.131  19.204  0.00  0.00    +0.000 A 
ATOM     15  C   UNL     1       4.870   5.187  18.980  0.00  0.00    +0.000 A 
ATOM     16  N   UNL     1       4.008   4.406  19.755  0.00  0.00    +0.000 N 
ATOM     17  H   UNL     1       4.372   3.875  20.539  0.00  0.00    +0.000 HD
ENDBRANCH   1   8
BRANCH   3  18
ATOM     18  C   UNL     1       1.138   9.568  17.973  0.00  0.00    +0.000 A 
ATOM     19  C   UNL     1       1.839  10.629  18.553  0.00  0.00    +0.000 A 
ATOM     20  C   UNL     1       1.169  11.770  18.995  0.00  0.00    +0.000 A 
ATOM     21  C   UNL     1      -0.208  11.864  18.863  0.00  0.00    +0.000 A 
ATOM     22  C   UNL     1      -0.934  10.827  18.255  0.00  0.00    +0.000 A 
ATOM     23  C   UNL     1      -0.244   9.695  17.781  0.00  0.00    +0.000 A 
BRANCH  22  24
ATOM     24  C   UNL     1      -2.436  10.906  18.146  0.00  0.00    +0.000 C 
ATOM     25  F   UNL     1      -3.047   9.687  18.117  0.00  0.00    +0.000 F 
ATOM     26  F   UNL     1      -3.004  11.585  19.178  0.00  0.00    +0.000 F 
ATOM     27  F   UNL     1      -2.839  11.545  17.011  0.00  0.00    +0.000 F 
ENDBRANCH  22  24
ENDBRANCH   3  18
TORSDOF 3
ENDMDL
MODEL 8
REMARK VINA RESULT:      -7.9      5.173      7.464
REMARK  Name = 
REMARK  3 active torsions:
REMARK  status: ('A' for Active; 'I' for Inactive)
REMARK    1  A    between atoms: C_4  and  C_5
REMARK    2  A    between atoms: N_7  and  C_8
REMARK    3  A    between atoms: C_12  and  C_13
REMARK                            x       y       z     vdW  Elec       q    Type
REMARK                         _______ _______ _______ _____ _____    ______ ____
ROOT
ATOM      1  C   UNL     1       2.550   7.853  18.276  0.00  0.00    +0.000 C 
ATOM      2  O   UNL     1       2.604   8.144  17.082  0.00  0.00    +0.000 OA
ATOM      3  N   UNL     1       1.778   8.500  19.232  0.00  0.00    +0.000 N 
ATOM      4  H   UNL     1       1.984   8.310  20.207  0.00  0.00    +0.000 HD
ENDROOT
BRANCH   1   8
ATOM      5  O   UNL     1       5.334   6.031  15.797  0.00  0.00    +0.000 OA
ATOM      6  C   UNL     1       4.655   5.793  16.791  0.00  0.00    +0.000 C 
ATOM      7  C   UNL     1       4.739   6.626  18.044  0.00  0.00    +0.000 C 
ATOM      8  C   UNL     1       3.415   6.704  18.791  0.00  0.00    +0.000 C 
ATOM      9  C   UNL     1       2.675   5.391  18.832  0.00  0.00    +0.000 A 
ATOM     10  C   UNL     1       1.688   5.156  19.801  0.00  0.00    +0.000 A 
ATOM     11  C   UNL     1       0.973   3.958  19.791  0.00  0.00    +0.000 A 
ATOM     12  C   UNL     1       1.250   3.004  18.818  0.00  0.00    +0.000 A 
ATOM     13  F   UNL     1       0.563   1.855  18.811  0.00  0.00    +0.000 F 
ATOM     14  C   UNL     1       2.215   3.227  17.843  0.00  0.00    +0.000 A 
ATOM     15  C   UNL     1       2.922   4.425  17.851  0.00  0.00    +0.000 A 
ATOM     16  N   UNL     1       3.838   4.698  16.831  0.00  0.00    +0.000 N 
ATOM     17  H   UNL     1       3.917   4.069  16.039  0.00  0.00    +0.000 HD
ENDBRANCH   1   8
BRANCH   3  18
ATOM     18  C   UNL     1       0.926   9.599  18.979  0.00  0.00    +0.000 A 
ATOM     19  C   UNL     1       1.145  10.868  19.523  0.00  0.00    +0.000 A 
ATOM     20  C   UNL     1       0.224  11.897  19.325  0.00  0.00    +0.000 A 
ATOM     21  C   UNL     1      -0.924  11.671  18.582  0.00  0.00    +0.000 A 
ATOM     22  C   UNL     1      -1.154  10.415  17.997  0.00  0.00    +0.000 A 
ATOM     23  C   UNL     1      -0.202   9.393  18.175  0.00  0.00    +0.000 A 
BRANCH  22  24
ATOM     24  C   UNL     1      -2.422  10.152  17.223  0.00  0.00    +0.000 C 
ATOM     25  F   UNL     1      -3.293   9.324  17.867  0.00  0.00    +0.000 F 
ATOM     26  F   UNL     1      -3.117  11.288  16.950  0.00  0.00    +0.000 F 
ATOM     27  F   UNL     1      -2.178   9.563  16.018  0.00  0.00    +0.000 F 
ENDBRANCH  22  24
ENDBRANCH   3  18
TORSDOF 3
ENDMDL
MODEL 9
REMARK VINA RESULT:      -7.9      4.450      7.261
REMARK  Name = 
REMARK  3 active torsions:
REMARK  status: ('A' for Active; 'I' for Inactive)
REMARK    1  A    between atoms: C_4  and  C_5
REMARK    2  A    between atoms: N_7  and  C_8
REMARK    3  A    between atoms: C_12  and  C_13
REMARK                            x       y       z     vdW  Elec       q    Type
REMARK                         _______ _______ _______ _____ _____    ______ ____
ROOT
ATOM      1  C   UNL     1       2.326   4.717  18.073  0.00  0.00    +0.000 C 
ATOM      2  O   UNL     1       1.139   4.720  17.751  0.00  0.00    +0.000 OA
ATOM      3  N   UNL     1       2.942   5.644  18.903  0.00  0.00    +0.000 N 
ATOM      4  H   UNL     1       3.956   5.661  18.915  0.00  0.00    +0.000 HD
ENDROOT
BRANCH   1   8
ATOM      5  O   UNL     1       4.629   2.358  20.593  0.00  0.00    +0.000 OA
ATOM      6  C   UNL     1       4.611   2.768  19.436  0.00  0.00    +0.000 C 
ATOM      7  C   UNL     1       3.455   2.505  18.506  0.00  0.00    +0.000 C 
ATOM      8  C   UNL     1       3.237   3.631  17.504  0.00  0.00    +0.000 C 
ATOM      9  C   UNL     1       4.521   4.185  16.941  0.00  0.00    +0.000 A 
ATOM     10  C   UNL     1       4.523   4.898  15.732  0.00  0.00    +0.000 A 
ATOM     11  C   UNL     1       5.710   5.453  15.253  0.00  0.00    +0.000 A 
ATOM     12  C   UNL     1       6.885   5.289  15.979  0.00  0.00    +0.000 A 
ATOM     13  F   UNL     1       8.023   5.821  15.516  0.00  0.00    +0.000 F 
ATOM     14  C   UNL     1       6.897   4.597  17.184  0.00  0.00    +0.000 A 
ATOM     15  C   UNL     1       5.711   4.050  17.664  0.00  0.00    +0.000 A 
ATOM     16  N   UNL     1       5.691   3.421  18.912  0.00  0.00    +0.000 N 
ATOM     17  H   UNL     1       6.512   3.448  19.506  0.00  0.00    +0.000 HD
ENDBRANCH   1   8
BRANCH   3  18
ATOM     18  C   UNL     1       2.295   6.741  19.516  0.00  0.00    +0.000 A 
ATOM     19  C   UNL     1       1.698   6.660  20.778  0.00  0.00    +0.000 A 
ATOM     20  C   UNL     1       0.987   7.740  21.301  0.00  0.00    +0.000 A 
ATOM     21  C   UNL     1       0.863   8.912  20.570  0.00  0.00    +0.000 A 
ATOM     22  C   UNL     1       1.479   9.033  19.314  0.00  0.00    +0.000 A 
ATOM     23  C   UNL     1       2.224   7.949  18.811  0.00  0.00    +0.000 A 
BRANCH  22  24
ATOM     24  C   UNL     1       1.313  10.290  18.498  0.00  0.00    +0.000 C 
ATOM     25  F   UNL     1       0.040  10.487  18.051  0.00  0.00    +0.000 F 
ATOM     26  F   UNL     1       1.646  11.413  19.188  0.00  0.00    +0.000 F 
ATOM     27  F   UNL     1       2.098  10.290  17.383  0.00  0.00    +0.000 F 
ENDBRANCH  22  24
ENDBRANCH   3  18
TORSDOF 3
ENDMDL
