MODEL 1
REMARK VINA RESULT:      -9.2      0.000      0.000
REMARK  Name = 
REMARK  6 active torsions:
REMARK  status: ('A' for Active; 'I' for Inactive)
REMARK    1  A    between atoms: N_1  and  C_2
REMARK    2  A    between atoms: C_7  and  C_8
REMARK    3  A    between atoms: N_10  and  C_11
REMARK    4  A    between atoms: C_11  and  C_12
REMARK    5  A    between atoms: C_12  and  C_13
REMARK    6  A    between atoms: C_12  and  C_19
REMARK                            x       y       z     vdW  Elec       q    Type
REMARK                         _______ _______ _______ _____ _____    ______ ____
ROOT
ATOM      1  C   UNL     1       3.180   6.411  19.033  0.00  0.00    +0.000 C 
ENDROOT
BRANCH   1   2
ATOM      2  C   UNL     1       4.435   5.723  18.490  0.00  0.00    +0.000 A 
ATOM      3  C   UNL     1       5.242   5.085  19.437  0.00  0.00    +0.000 A 
ATOM      4  N   UNL     1       6.025   4.199  18.787  0.00  0.00    +0.000 N 
ATOM      5  C   UNL     1       6.205   4.644  17.515  0.00  0.00    +0.000 A 
ATOM      6  C   UNL     1       7.235   4.316  16.624  0.00  0.00    +0.000 A 
ATOM      7  C   UNL     1       7.098   4.752  15.317  0.00  0.00    +0.000 A 
ATOM      8  C   UNL     1       5.933   5.404  14.919  0.00  0.00    +0.000 A 
ATOM      9  C   UNL     1       4.918   5.752  15.845  0.00  0.00    +0.000 A 
ATOM     10  C   UNL     1       5.092   5.452  17.218  0.00  0.00    +0.000 A 
ATOM     11  H   UNL     1       6.450   3.378  19.192  0.00  0.00    +0.000 HD
ENDBRANCH   1   2
BRANCH   1  12
ATOM     12  C   UNL     1       2.196   5.236  19.153  0.00  0.00    +0.000 A 
ATOM     13  C   UNL     1       1.856   4.424  18.058  0.00  0.00    +0.000 A 
ATOM     14  C   UNL     1       1.236   3.192  18.271  0.00  0.00    +0.000 A 
ATOM     15  C   UNL     1       0.918   2.780  19.567  0.00  0.00    +0.000 A 
ATOM     16  C   UNL     1       1.174   3.618  20.649  0.00  0.00    +0.000 A 
ATOM     17  C   UNL     1       1.798   4.844  20.444  0.00  0.00    +0.000 A 
ENDBRANCH   1  12
BRANCH   1  18
ATOM     18  C   UNL     1       2.533   7.705  18.550  0.00  0.00    +0.000 C 
BRANCH  18  21
ATOM     19  C   UNL     1       1.060   9.548  19.559  0.00  0.00    +0.000 C 
ATOM     20  O   UNL     1       1.230  10.329  18.629  0.00  0.00    +0.000 OA
ATOM     21  N   UNL     1       1.560   8.238  19.544  0.00  0.00    +0.000 N 
ATOM     22  H   UNL     1       1.391   7.712  20.405  0.00  0.00    +0.000 HD
BRANCH  19  28
ATOM     23  C   UNL     1      -0.590  11.050  20.864  0.00  0.00    +0.000 A 
ATOM     24  N   UNL     1      -1.218  11.385  22.018  0.00  0.00    +0.000 NA
ATOM     25  C   UNL     1      -0.941  10.632  23.106  0.00  0.00    +0.000 A 
ATOM     26  C   UNL     1      -0.061   9.567  23.059  0.00  0.00    +0.000 A 
ATOM     27  N   UNL     1       0.583   9.207  21.938  0.00  0.00    +0.000 NA
ATOM     28  C   UNL     1       0.316   9.961  20.824  0.00  0.00    +0.000 A 
BRANCH  23  29
ATOM     29  N   UNL     1      -0.872  11.932  19.824  0.00  0.00    +0.000 N 
ATOM     30  H   UNL     1      -0.936  11.392  18.950  0.00  0.00    +0.000 HD
ATOM     31  H   UNL     1      -0.208  12.698  19.780  0.00  0.00    +0.000 HD
ENDBRANCH  23  29
ENDBRANCH  19  28
ENDBRANCH  18  21
ENDBRANCH   1  18
TORSDOF 6
ENDMDL
MODEL 2
REMARK VINA RESULT:      -9.1      0.610      1.327
REMARK  Name = 
REMARK  6 active torsions:
REMARK  status: ('A' for Active; 'I' for Inactive)
REMARK    1  A    between atoms: N_1  and  C_2
REMARK    2  A    between atoms: C_7  and  C_8
REMARK    3  A    between atoms: N_10  and  C_11
REMARK    4  A    between atoms: C_11  and  C_12
REMARK    5  A    between atoms: C_12  and  C_13
REMARK    6  A    between atoms: C_12  and  C_19
REMARK                            x       y       z     vdW  Elec       q    Type
REMARK                         _______ _______ _______ _____ _____    ______ ____
ROOT
ATOM      1  C   UNL     1       3.100   6.458  18.902  0.00  0.00    +0.000 C 
ENDROOT
BRANCH   1   2
ATOM      2  C   UNL     1       4.382   5.770  18.424  0.00  0.00    +0.000 A 
ATOM      3  C   UNL     1       5.165   5.176  19.419  0.00  0.00    +0.000 A 
ATOM      4  N   UNL     1       5.981   4.280  18.825  0.00  0.00    +0.000 N 
ATOM      5  C   UNL     1       6.198   4.685  17.545  0.00  0.00    +0.000 A 
ATOM      6  C   UNL     1       7.261   4.342  16.700  0.00  0.00    +0.000 A 
ATOM      7  C   UNL     1       7.162   4.732  15.376  0.00  0.00    +0.000 A 
ATOM      8  C   UNL     1       6.002   5.353  14.917  0.00  0.00    +0.000 A 
ATOM      9  C   UNL     1       4.952   5.718  15.798  0.00  0.00    +0.000 A 
ATOM     10  C   UNL     1       5.084   5.467  17.184  0.00  0.00    +0.000 A 
ATOM     11  H   UNL     1       6.404   3.479  19.272  0.00  0.00    +0.000 HD
ENDBRANCH   1   2
BRANCH   1  12
ATOM     12  C   UNL     1       2.142   5.268  19.072  0.00  0.00    +0.000 A 
ATOM     13  C   UNL     1       1.840   4.388  18.020  0.00  0.00    +0.000 A 
ATOM     14  C   UNL     1       1.245   3.155  18.292  0.00  0.00    +0.000 A 
ATOM     15  C   UNL     1       0.914   2.809  19.604  0.00  0.00    +0.000 A 
ATOM     16  C   UNL     1       1.132   3.712  20.640  0.00  0.00    +0.000 A 
ATOM     17  C   UNL     1       1.731   4.939  20.377  0.00  0.00    +0.000 A 
ENDBRANCH   1  12
BRANCH   1  18
ATOM     18  C   UNL     1       2.433   7.705  18.332  0.00  0.00    +0.000 C 
BRANCH  18  21
ATOM     19  C   UNL     1       1.235   9.707  19.400  0.00  0.00    +0.000 C 
ATOM     20  O   UNL     1       1.583  10.503  18.534  0.00  0.00    +0.000 OA
ATOM     21  N   UNL     1       1.509   8.334  19.317  0.00  0.00    +0.000 N 
ATOM     22  H   UNL     1       1.209   7.794  20.132  0.00  0.00    +0.000 HD
BRANCH  19  28
ATOM     23  C   UNL     1       0.846   9.710  21.955  0.00  0.00    +0.000 A 
ATOM     24  N   UNL     1       0.156  10.138  23.042  0.00  0.00    +0.000 NA
ATOM     25  C   UNL     1      -0.852  11.010  22.821  0.00  0.00    +0.000 A 
ATOM     26  C   UNL     1      -1.177  11.455  21.554  0.00  0.00    +0.000 A 
ATOM     27  N   UNL     1      -0.522  11.051  20.453  0.00  0.00    +0.000 NA
ATOM     28  C   UNL     1       0.504  10.164  20.657  0.00  0.00    +0.000 A 
BRANCH  23  29
ATOM     29  N   UNL     1       1.805   8.752  22.273  0.00  0.00    +0.000 N 
ATOM     30  H   UNL     1       1.939   8.755  23.294  0.00  0.00    +0.000 HD
ATOM     31  H   UNL     1       2.666   8.883  21.751  0.00  0.00    +0.000 HD
ENDBRANCH  23  29
ENDBRANCH  19  28
ENDBRANCH  18  21
ENDBRANCH   1  18
TORSDOF 6
ENDMDL
MODEL 3
REMARK VINA RESULT:      -9.0      0.629      1.123
REMARK  Name = 
REMARK  6 active torsions:
REMARK  status: ('A' for Active; 'I' for Inactive)
REMARK    1  A    between atoms: N_1  and  C_2
REMARK    2  A    between atoms: C_7  and  C_8
REMARK    3  A    between atoms: N_10  and  C_11
REMARK    4  A    between atoms: C_11  and  C_12
REMARK    5  A    between atoms: C_12  and  C_13
REMARK    6  A    between atoms: C_12  and  C_19
REMARK                            x       y       z     vdW  Elec       q    Type
REMARK                         _______ _______ _______ _____ _____    ______ ____
ROOT
ATOM      1  C   UNL     1       3.377   6.241  18.903  0.00  0.00    +0.000 C 
ENDROOT
BRANCH   1   2
ATOM      2  C   UNL     1       4.677   5.663  18.335  0.00  0.00    +0.000 A 
ATOM      3  C   UNL     1       5.611   5.219  19.277  0.00  0.00    +0.000 A 
ATOM      4  N   UNL     1       6.462   4.378  18.652  0.00  0.00    +0.000 N 
ATOM      5  C   UNL     1       6.511   4.721  17.337  0.00  0.00    +0.000 A 
ATOM      6  C   UNL     1       7.521   4.438  16.410  0.00  0.00    +0.000 A 
ATOM      7  C   UNL     1       7.255   4.730  15.083  0.00  0.00    +0.000 A 
ATOM      8  C   UNL     1       5.995   5.195  14.711  0.00  0.00    +0.000 A 
ATOM      9  C   UNL     1       4.999   5.503  15.672  0.00  0.00    +0.000 A 
ATOM     10  C   UNL     1       5.288   5.356  17.049  0.00  0.00    +0.000 A 
ATOM     11  H   UNL     1       7.011   3.657  19.097  0.00  0.00    +0.000 HD
ENDBRANCH   1   2
BRANCH   1  12
ATOM     12  C   UNL     1       2.586   4.970  19.253  0.00  0.00    +0.000 A 
ATOM     13  C   UNL     1       2.191   4.668  20.566  0.00  0.00    +0.000 A 
ATOM     14  C   UNL     1       1.209   3.701  20.792  0.00  0.00    +0.000 A 
ATOM     15  C   UNL     1       0.648   3.006  19.719  0.00  0.00    +0.000 A 
ATOM     16  C   UNL     1       1.098   3.240  18.423  0.00  0.00    +0.000 A 
ATOM     17  C   UNL     1       2.070   4.207  18.190  0.00  0.00    +0.000 A 
ENDBRANCH   1  12
BRANCH   1  18
ATOM     18  C   UNL     1       2.516   7.361  18.327  0.00  0.00    +0.000 C 
BRANCH  18  21
ATOM     19  C   UNL     1       1.223   9.301  19.398  0.00  0.00    +0.000 C 
ATOM     20  O   UNL     1       1.407  10.070  18.460  0.00  0.00    +0.000 OA
ATOM     21  N   UNL     1       1.628   7.959  19.363  0.00  0.00    +0.000 N 
ATOM     22  H   UNL     1       1.461   7.445  20.231  0.00  0.00    +0.000 HD
BRANCH  19  28
ATOM     23  C   UNL     1       0.491  11.126  21.075  0.00  0.00    +0.000 A 
ATOM     24  N   UNL     1      -0.092  11.486  22.245  0.00  0.00    +0.000 NA
ATOM     25  C   UNL     1      -0.593  10.490  23.010  0.00  0.00    +0.000 A 
ATOM     26  C   UNL     1      -0.523   9.164  22.629  0.00  0.00    +0.000 A 
ATOM     27  N   UNL     1       0.051   8.767  21.482  0.00  0.00    +0.000 NA
ATOM     28  C   UNL     1       0.568   9.764  20.694  0.00  0.00    +0.000 A 
BRANCH  23  29
ATOM     29  N   UNL     1       1.052  12.208  20.402  0.00  0.00    +0.000 N 
ATOM     30  H   UNL     1       0.444  12.443  19.605  0.00  0.00    +0.000 HD
ATOM     31  H   UNL     1       2.017  12.039  20.138  0.00  0.00    +0.000 HD
ENDBRANCH  23  29
ENDBRANCH  19  28
ENDBRANCH  18  21
ENDBRANCH   1  18
TORSDOF 6
ENDMDL
MODEL 4
REMARK VINA RESULT:      -8.9      1.507      1.906
REMARK  Name = 
REMARK  6 active torsions:
REMARK  status: ('A' for Active; 'I' for Inactive)
REMARK    1  A    between atoms: N_1  and  C_2
REMARK    2  A    between atoms: C_7  and  C_8
REMARK    3  A    between atoms: N_10  and  C_11
REMARK    4  A    between atoms: C_11  and  C_12
REMARK    5  A    between atoms: C_12  and  C_13
REMARK    6  A    between atoms: C_12  and  C_19
REMARK                            x       y       z     vdW  Elec       q    Type
REMARK                         _______ _______ _______ _____ _____    ______ ____
ROOT
ATOM      1  C   UNL     1       2.919   6.539  18.635  0.00  0.00    +0.000 C 
ENDROOT
BRANCH   1   2
ATOM      2  C   UNL     1       4.267   5.886  18.316  0.00  0.00    +0.000 A 
ATOM      3  C   UNL     1       5.011   5.450  19.417  0.00  0.00    +0.000 A 
ATOM      4  N   UNL     1       5.915   4.549  18.976  0.00  0.00    +0.000 N 
ATOM      5  C   UNL     1       6.196   4.830  17.676  0.00  0.00    +0.000 A 
ATOM      6  C   UNL     1       7.332   4.467  16.942  0.00  0.00    +0.000 A 
ATOM      7  C   UNL     1       7.304   4.708  15.579  0.00  0.00    +0.000 A 
ATOM      8  C   UNL     1       6.145   5.203  14.984  0.00  0.00    +0.000 A 
ATOM      9  C   UNL     1       5.019   5.593  15.752  0.00  0.00    +0.000 A 
ATOM     10  C   UNL     1       5.069   5.498  17.163  0.00  0.00    +0.000 A 
ATOM     11  H   UNL     1       6.349   3.828  19.534  0.00  0.00    +0.000 HD
ENDBRANCH   1   2
BRANCH   1  12
ATOM     12  C   UNL     1       2.040   5.320  18.955  0.00  0.00    +0.000 A 
ATOM     13  C   UNL     1       1.738   4.337  17.998  0.00  0.00    +0.000 A 
ATOM     14  C   UNL     1       1.229   3.102  18.404  0.00  0.00    +0.000 A 
ATOM     15  C   UNL     1       0.980   2.855  19.756  0.00  0.00    +0.000 A 
ATOM     16  C   UNL     1       1.196   3.856  20.700  0.00  0.00    +0.000 A 
ATOM     17  C   UNL     1       1.710   5.085  20.302  0.00  0.00    +0.000 A 
ENDBRANCH   1  12
BRANCH   1  18
ATOM     18  C   UNL     1       2.194   7.630  17.853  0.00  0.00    +0.000 C 
BRANCH  18  21
ATOM     19  C   UNL     1       0.982   9.809  18.460  0.00  0.00    +0.000 C 
ATOM     20  O   UNL     1       0.057   9.627  17.676  0.00  0.00    +0.000 OA
ATOM     21  N   UNL     1       1.982   8.851  18.680  0.00  0.00    +0.000 N 
ATOM     22  H   UNL     1       2.722   9.152  19.319  0.00  0.00    +0.000 HD
BRANCH  19  28
ATOM     23  C   UNL     1       1.860  12.224  18.735  0.00  0.00    +0.000 A 
ATOM     24  N   UNL     1       1.972  13.361  19.466  0.00  0.00    +0.000 NA
ATOM     25  C   UNL     1       1.357  13.377  20.669  0.00  0.00    +0.000 A 
ATOM     26  C   UNL     1       0.642  12.295  21.145  0.00  0.00    +0.000 A 
ATOM     27  N   UNL     1       0.511  11.151  20.454  0.00  0.00    +0.000 NA
ATOM     28  C   UNL     1       1.131  11.115  19.231  0.00  0.00    +0.000 A 
BRANCH  23  29
ATOM     29  N   UNL     1       2.596  12.271  17.554  0.00  0.00    +0.000 N 
ATOM     30  H   UNL     1       2.021  11.874  16.798  0.00  0.00    +0.000 HD
ATOM     31  H   UNL     1       3.503  11.825  17.649  0.00  0.00    +0.000 HD
ENDBRANCH  23  29
ENDBRANCH  19  28
ENDBRANCH  18  21
ENDBRANCH   1  18
TORSDOF 6
ENDMDL
MODEL 5
REMARK VINA RESULT:      -8.6      1.617      4.430
REMARK  Name = 
REMARK  6 active torsions:
REMARK  status: ('A' for Active; 'I' for Inactive)
REMARK    1  A    between atoms: N_1  and  C_2
REMARK    2  A    between atoms: C_7  and  C_8
REMARK    3  A    between atoms: N_10  and  C_11
REMARK    4  A    between atoms: C_11  and  C_12
REMARK    5  A    between atoms: C_12  and  C_13
REMARK    6  A    between atoms: C_12  and  C_19
REMARK                            x       y       z     vdW  Elec       q    Type
REMARK                         _______ _______ _______ _____ _____    ______ ____
ROOT
ATOM      1  C   UNL     1       4.031   5.622  17.302  0.00  0.00    +0.000 C 
ENDROOT
BRANCH   1   2
ATOM      2  C   UNL     1       3.147   4.541  17.931  0.00  0.00    +0.000 A 
ATOM      3  C   UNL     1       2.590   3.614  17.044  0.00  0.00    +0.000 A 
ATOM      4  N   UNL     1       2.223   2.527  17.755  0.00  0.00    +0.000 N 
ATOM      5  C   UNL     1       1.951   2.924  19.027  0.00  0.00    +0.000 A 
ATOM      6  C   UNL     1       1.160   2.274  19.983  0.00  0.00    +0.000 A 
ATOM      7  C   UNL     1       1.188   2.779  21.271  0.00  0.00    +0.000 A 
ATOM      8  C   UNL     1       2.047   3.830  21.589  0.00  0.00    +0.000 A 
ATOM      9  C   UNL     1       2.815   4.492  20.598  0.00  0.00    +0.000 A 
ATOM     10  C   UNL     1       2.699   4.097  19.244  0.00  0.00    +0.000 A 
ATOM     11  H   UNL     1       2.113   1.593  17.390  0.00  0.00    +0.000 HD
ENDBRANCH   1   2
BRANCH   1  12
ATOM     12  C   UNL     1       5.433   5.205  17.775  0.00  0.00    +0.000 A 
ATOM     13  C   UNL     1       6.350   4.556  16.931  0.00  0.00    +0.000 A 
ATOM     14  C   UNL     1       7.699   4.496  17.284  0.00  0.00    +0.000 A 
ATOM     15  C   UNL     1       8.134   5.043  18.493  0.00  0.00    +0.000 A 
ATOM     16  C   UNL     1       7.216   5.611  19.373  0.00  0.00    +0.000 A 
ATOM     17  C   UNL     1       5.872   5.680  19.024  0.00  0.00    +0.000 A 
ENDBRANCH   1  12
BRANCH   1  18
ATOM     18  C   UNL     1       3.810   7.131  17.295  0.00  0.00    +0.000 C 
BRANCH  18  21
ATOM     19  C   UNL     1       2.050   8.754  18.217  0.00  0.00    +0.000 C 
ATOM     20  O   UNL     1       2.127   9.529  17.270  0.00  0.00    +0.000 OA
ATOM     21  N   UNL     1       2.741   7.534  18.250  0.00  0.00    +0.000 N 
ATOM     22  H   UNL     1       2.629   7.010  19.121  0.00  0.00    +0.000 HD
BRANCH  19  28
ATOM     23  C   UNL     1       0.214  10.081  19.462  0.00  0.00    +0.000 A 
ATOM     24  N   UNL     1      -0.491  10.341  20.590  0.00  0.00    +0.000 NA
ATOM     25  C   UNL     1      -0.192   9.604  21.682  0.00  0.00    +0.000 A 
ATOM     26  C   UNL     1       0.783   8.625  21.665  0.00  0.00    +0.000 A 
ATOM     27  N   UNL     1       1.506   8.341  20.569  0.00  0.00    +0.000 NA
ATOM     28  C   UNL     1       1.218   9.081  19.452  0.00  0.00    +0.000 A 
BRANCH  23  29
ATOM     29  N   UNL     1      -0.104  10.947  18.419  0.00  0.00    +0.000 N 
ATOM     30  H   UNL     1       0.755  11.436  18.132  0.00  0.00    +0.000 HD
ATOM     31  H   UNL     1      -0.867  11.573  18.658  0.00  0.00    +0.000 HD
ENDBRANCH  23  29
ENDBRANCH  19  28
ENDBRANCH  18  21
ENDBRANCH   1  18
TORSDOF 6
ENDMDL
MODEL 6
REMARK VINA RESULT:      -8.6      3.001      8.078
REMARK  Name = 
REMARK  6 active torsions:
REMARK  status: ('A' for Active; 'I' for Inactive)
REMARK    1  A    between atoms: N_1  and  C_2
REMARK    2  A    between atoms: C_7  and  C_8
REMARK    3  A    between atoms: N_10  and  C_11
REMARK    4  A    between atoms: C_11  and  C_12
REMARK    5  A    between atoms: C_12  and  C_13
REMARK    6  A    between atoms: C_12  and  C_19
REMARK                            x       y       z     vdW  Elec       q    Type
REMARK                         _______ _______ _______ _____ _____    ______ ____
ROOT
ATOM      1  C   UNL     1       3.499   5.817  17.808  0.00  0.00    +0.000 C 
ENDROOT
BRANCH   1   2
ATOM      2  C   UNL     1       2.674   6.713  18.738  0.00  0.00    +0.000 A 
ATOM      3  C   UNL     1       2.432   6.207  20.019  0.00  0.00    +0.000 A 
ATOM      4  N   UNL     1       2.095   7.242  20.817  0.00  0.00    +0.000 N 
ATOM      5  C   UNL     1       1.535   8.210  20.044  0.00  0.00    +0.000 A 
ATOM      6  C   UNL     1       0.678   9.243  20.444  0.00  0.00    +0.000 A 
ATOM      7  C   UNL     1       0.389  10.219  19.505  0.00  0.00    +0.000 A 
ATOM      8  C   UNL     1       1.015  10.194  18.259  0.00  0.00    +0.000 A 
ATOM      9  C   UNL     1       1.854   9.120  17.867  0.00  0.00    +0.000 A 
ATOM     10  C   UNL     1       2.054   8.031  18.748  0.00  0.00    +0.000 A 
ATOM     11  H   UNL     1       2.190   7.267  21.822  0.00  0.00    +0.000 HD
ENDBRANCH   1   2
BRANCH   1  12
ATOM     12  C   UNL     1       2.979   4.416  18.170  0.00  0.00    +0.000 A 
ATOM     13  C   UNL     1       3.735   3.506  18.927  0.00  0.00    +0.000 A 
ATOM     14  C   UNL     1       3.114   2.398  19.507  0.00  0.00    +0.000 A 
ATOM     15  C   UNL     1       1.751   2.171  19.303  0.00  0.00    +0.000 A 
ATOM     16  C   UNL     1       1.016   3.023  18.483  0.00  0.00    +0.000 A 
ATOM     17  C   UNL     1       1.627   4.131  17.909  0.00  0.00    +0.000 A 
ENDBRANCH   1  12
BRANCH   1  18
ATOM     18  C   UNL     1       5.000   5.866  17.543  0.00  0.00    +0.000 C 
BRANCH  18  21
ATOM     19  C   UNL     1       6.545   5.328  15.567  0.00  0.00    +0.000 C 
ATOM     20  O   UNL     1       7.491   5.975  16.004  0.00  0.00    +0.000 OA
ATOM     21  N   UNL     1       5.361   5.139  16.294  0.00  0.00    +0.000 N 
ATOM     22  H   UNL     1       4.635   4.624  15.791  0.00  0.00    +0.000 HD
BRANCH  19  28
ATOM     23  C   UNL     1       7.606   4.971  13.237  0.00  0.00    +0.000 A 
ATOM     24  N   UNL     1       7.582   4.402  12.006  0.00  0.00    +0.000 NA
ATOM     25  C   UNL     1       6.545   3.580  11.733  0.00  0.00    +0.000 A 
ATOM     26  C   UNL     1       5.548   3.321  12.654  0.00  0.00    +0.000 A 
ATOM     27  N   UNL     1       5.533   3.868  13.880  0.00  0.00    +0.000 NA
ATOM     28  C   UNL     1       6.577   4.707  14.175  0.00  0.00    +0.000 A 
BRANCH  23  29
ATOM     29  N   UNL     1       8.662   5.865  13.394  0.00  0.00    +0.000 N 
ATOM     30  H   UNL     1       8.308   6.700  13.881  0.00  0.00    +0.000 HD
ATOM     31  H   UNL     1       9.122   6.074  12.514  0.00  0.00    +0.000 HD
ENDBRANCH  23  29
ENDBRANCH  19  28
ENDBRANCH  18  21
ENDBRANCH   1  18
TORSDOF 6
ENDMDL
MODEL 7
REMARK VINA RESULT:      -8.5      2.947      8.169
REMARK  Name = 
REMARK  6 active torsions:
REMARK  status: ('A' for Active; 'I' for Inactive)
REMARK    1  A    between atoms: N_1  and  C_2
REMARK    2  A    between atoms: C_7  and  C_8
REMARK    3  A    between atoms: N_10  and  C_11
REMARK    4  A    between atoms: C_11  and  C_12
REMARK    5  A    between atoms: C_12  and  C_13
REMARK    6  A    between atoms: C_12  and  C_19
REMARK                            x       y       z     vdW  Elec       q    Type
REMARK                         _______ _______ _______ _____ _____    ______ ____
ROOT
ATOM      1  C   UNL     1       3.469   6.194  17.785  0.00  0.00    +0.000 C 
ENDROOT
BRANCH   1   2
ATOM      2  C   UNL     1       2.701   7.415  18.301  0.00  0.00    +0.000 A 
ATOM      3  C   UNL     1       2.575   8.481  17.405  0.00  0.00    +0.000 A 
ATOM      4  N   UNL     1       1.552   9.256  17.823  0.00  0.00    +0.000 N 
ATOM      5  C   UNL     1       1.433   9.112  19.170  0.00  0.00    +0.000 A 
ATOM      6  C   UNL     1       0.830   9.990  20.080  0.00  0.00    +0.000 A 
ATOM      7  C   UNL     1       0.667   9.534  21.378  0.00  0.00    +0.000 A 
ATOM      8  C   UNL     1       1.012   8.224  21.705  0.00  0.00    +0.000 A 
ATOM      9  C   UNL     1       1.649   7.365  20.774  0.00  0.00    +0.000 A 
ATOM     10  C   UNL     1       1.966   7.847  19.481  0.00  0.00    +0.000 A 
ATOM     11  H   UNL     1       1.007   9.878  17.244  0.00  0.00    +0.000 HD
ENDBRANCH   1   2
BRANCH   1  12
ATOM     12  C   UNL     1       2.780   5.042  18.535  0.00  0.00    +0.000 A 
ATOM     13  C   UNL     1       1.630   4.404  18.041  0.00  0.00    +0.000 A 
ATOM     14  C   UNL     1       1.237   3.172  18.567  0.00  0.00    +0.000 A 
ATOM     15  C   UNL     1       1.962   2.590  19.609  0.00  0.00    +0.000 A 
ATOM     16  C   UNL     1       3.052   3.258  20.160  0.00  0.00    +0.000 A 
ATOM     17  C   UNL     1       3.452   4.482  19.636  0.00  0.00    +0.000 A 
ENDBRANCH   1  12
BRANCH   1  18
ATOM     18  C   UNL     1       4.978   6.021  17.648  0.00  0.00    +0.000 C 
BRANCH  18  21
ATOM     19  C   UNL     1       6.522   5.411  15.692  0.00  0.00    +0.000 C 
ATOM     20  O   UNL     1       7.474   6.059  16.114  0.00  0.00    +0.000 OA
ATOM     21  N   UNL     1       5.334   5.255  16.421  0.00  0.00    +0.000 N 
ATOM     22  H   UNL     1       4.603   4.735  15.929  0.00  0.00    +0.000 HD
BRANCH  19  28
ATOM     23  C   UNL     1       7.593   4.964  13.382  0.00  0.00    +0.000 A 
ATOM     24  N   UNL     1       7.566   4.362  12.168  0.00  0.00    +0.000 NA
ATOM     25  C   UNL     1       6.511   3.558  11.907  0.00  0.00    +0.000 A 
ATOM     26  C   UNL     1       5.501   3.348  12.826  0.00  0.00    +0.000 A 
ATOM     27  N   UNL     1       5.489   3.930  14.037  0.00  0.00    +0.000 NA
ATOM     28  C   UNL     1       6.551   4.751  14.318  0.00  0.00    +0.000 A 
BRANCH  23  29
ATOM     29  N   UNL     1       8.669   5.837  13.524  0.00  0.00    +0.000 N 
ATOM     30  H   UNL     1       9.369   5.390  14.133  0.00  0.00    +0.000 HD
ATOM     31  H   UNL     1       8.379   6.755  13.845  0.00  0.00    +0.000 HD
ENDBRANCH  23  29
ENDBRANCH  19  28
ENDBRANCH  18  21
ENDBRANCH   1  18
TORSDOF 6
ENDMDL
MODEL 8
REMARK VINA RESULT:      -8.5      1.610      2.184
REMARK  Name = 
REMARK  6 active torsions:
REMARK  status: ('A' for Active; 'I' for Inactive)
REMARK    1  A    between atoms: N_1  and  C_2
REMARK    2  A    between atoms: C_7  and  C_8
REMARK    3  A    between atoms: N_10  and  C_11
REMARK    4  A    between atoms: C_11  and  C_12
REMARK    5  A    between atoms: C_12  and  C_13
REMARK    6  A    between atoms: C_12  and  C_19
REMARK                            x       y       z     vdW  Elec       q    Type
REMARK                         _______ _______ _______ _____ _____    ______ ____
ROOT
ATOM      1  C   UNL     1       2.961   6.617  18.491  0.00  0.00    +0.000 C 
ENDROOT
BRANCH   1   2
ATOM      2  C   UNL     1       4.299   5.935  18.190  0.00  0.00    +0.000 A 
ATOM      3  C   UNL     1       5.027   5.501  19.302  0.00  0.00    +0.000 A 
ATOM      4  N   UNL     1       5.917   4.578  18.881  0.00  0.00    +0.000 N 
ATOM      5  C   UNL     1       6.213   4.835  17.579  0.00  0.00    +0.000 A 
ATOM      6  C   UNL     1       7.347   4.440  16.859  0.00  0.00    +0.000 A 
ATOM      7  C   UNL     1       7.332   4.662  15.492  0.00  0.00    +0.000 A 
ATOM      8  C   UNL     1       6.186   5.170  14.882  0.00  0.00    +0.000 A 
ATOM      9  C   UNL     1       5.062   5.591  15.636  0.00  0.00    +0.000 A 
ATOM     10  C   UNL     1       5.101   5.516  17.049  0.00  0.00    +0.000 A 
ATOM     11  H   UNL     1       6.335   3.857  19.452  0.00  0.00    +0.000 HD
ENDBRANCH   1   2
BRANCH   1  12
ATOM     12  C   UNL     1       2.073   5.423  18.880  0.00  0.00    +0.000 A 
ATOM     13  C   UNL     1       1.749   4.400  17.974  0.00  0.00    +0.000 A 
ATOM     14  C   UNL     1       1.231   3.192  18.444  0.00  0.00    +0.000 A 
ATOM     15  C   UNL     1       0.998   3.012  19.809  0.00  0.00    +0.000 A 
ATOM     16  C   UNL     1       1.237   4.053  20.702  0.00  0.00    +0.000 A 
ATOM     17  C   UNL     1       1.758   5.256  20.240  0.00  0.00    +0.000 A 
ENDBRANCH   1  12
BRANCH   1  18
ATOM     18  C   UNL     1       2.238   7.675  17.664  0.00  0.00    +0.000 C 
BRANCH  18  21
ATOM     19  C   UNL     1       1.147   9.904  18.316  0.00  0.00    +0.000 C 
ATOM     20  O   UNL     1       0.048   9.613  17.857  0.00  0.00    +0.000 OA
ATOM     21  N   UNL     1       2.212   8.992  18.359  0.00  0.00    +0.000 N 
ATOM     22  H   UNL     1       3.087   9.382  18.718  0.00  0.00    +0.000 HD
BRANCH  19  28
ATOM     23  C   UNL     1       0.783  11.861  19.964  0.00  0.00    +0.000 A 
ATOM     24  N   UNL     1       1.079  13.114  20.389  0.00  0.00    +0.000 NA
ATOM     25  C   UNL     1       2.029  13.785  19.701  0.00  0.00    +0.000 A 
ATOM     26  C   UNL     1       2.679  13.232  18.614  0.00  0.00    +0.000 A 
ATOM     27  N   UNL     1       2.411  11.997  18.160  0.00  0.00    +0.000 NA
ATOM     28  C   UNL     1       1.448  11.302  18.845  0.00  0.00    +0.000 A 
BRANCH  23  29
ATOM     29  N   UNL     1      -0.264  11.286  20.679  0.00  0.00    +0.000 N 
ATOM     30  H   UNL     1      -0.530  11.930  21.437  0.00  0.00    +0.000 HD
ATOM     31  H   UNL     1      -0.040  10.350  21.003  0.00  0.00    +0.000 HD
ENDBRANCH  23  29
ENDBRANCH  19  28
ENDBRANCH  18  21
ENDBRANCH   1  18
TORSDOF 6
ENDMDL
MODEL 9
REMARK VINA RESULT:      -8.5      2.945      8.120
REMARK  Name = 
REMARK  6 active torsions:
REMARK  status: ('A' for Active; 'I' for Inactive)
REMARK    1  A    between atoms: N_1  and  C_2
REMARK    2  A    between atoms: C_7  and  C_8
REMARK    3  A    between atoms: N_10  and  C_11
REMARK    4  A    between atoms: C_11  and  C_12
REMARK    5  A    between atoms: C_12  and  C_13
REMARK    6  A    between atoms: C_12  and  C_19
REMARK                            x       y       z     vdW  Elec       q    Type
REMARK                         _______ _______ _______ _____ _____    ______ ____
ROOT
ATOM      1  C   UNL     1       3.760   5.397  17.948  0.00  0.00    +0.000 C 
ENDROOT
BRANCH   1   2
ATOM      2  C   UNL     1       3.067   6.717  18.299  0.00  0.00    +0.000 A 
ATOM      3  C   UNL     1       3.191   7.742  17.356  0.00  0.00    +0.000 A 
ATOM      4  N   UNL     1       2.212   8.642  17.590  0.00  0.00    +0.000 N 
ATOM      5  C   UNL     1       1.886   8.582  18.909  0.00  0.00    +0.000 A 
ATOM      6  C   UNL     1       1.260   9.564  19.687  0.00  0.00    +0.000 A 
ATOM      7  C   UNL     1       0.863   9.197  20.961  0.00  0.00    +0.000 A 
ATOM      8  C   UNL     1       1.009   7.877  21.383  0.00  0.00    +0.000 A 
ATOM      9  C   UNL     1       1.673   6.908  20.589  0.00  0.00    +0.000 A 
ATOM     10  C   UNL     1       2.223   7.286  19.341  0.00  0.00    +0.000 A 
ATOM     11  H   UNL     1       1.829   9.286  16.914  0.00  0.00    +0.000 HD
ENDBRANCH   1   2
BRANCH   1  12
ATOM     12  C   UNL     1       2.974   4.386  18.799  0.00  0.00    +0.000 A 
ATOM     13  C   UNL     1       3.419   3.957  20.060  0.00  0.00    +0.000 A 
ATOM     14  C   UNL     1       2.535   3.313  20.928  0.00  0.00    +0.000 A 
ATOM     15  C   UNL     1       1.221   3.059  20.531  0.00  0.00    +0.000 A 
ATOM     16  C   UNL     1       0.799   3.405  19.250  0.00  0.00    +0.000 A 
ATOM     17  C   UNL     1       1.672   4.053  18.384  0.00  0.00    +0.000 A 
ENDBRANCH   1  12
BRANCH   1  18
ATOM     18  C   UNL     1       5.256   5.109  17.879  0.00  0.00    +0.000 C 
BRANCH  18  21
ATOM     19  C   UNL     1       6.572   5.180  15.677  0.00  0.00    +0.000 C 
ATOM     20  O   UNL     1       7.289   6.112  16.023  0.00  0.00    +0.000 OA
ATOM     21  N   UNL     1       5.652   4.574  16.546  0.00  0.00    +0.000 N 
ATOM     22  H   UNL     1       5.082   3.844  16.114  0.00  0.00    +0.000 HD
BRANCH  19  28
ATOM     23  C   UNL     1       7.627   4.951  13.329  0.00  0.00    +0.000 A 
ATOM     24  N   UNL     1       7.604   4.445  12.072  0.00  0.00    +0.000 NA
ATOM     25  C   UNL     1       6.574   3.628  11.760  0.00  0.00    +0.000 A 
ATOM     26  C   UNL     1       5.584   3.312  12.670  0.00  0.00    +0.000 A 
ATOM     27  N   UNL     1       5.568   3.796  13.922  0.00  0.00    +0.000 NA
ATOM     28  C   UNL     1       6.605   4.630  14.256  0.00  0.00    +0.000 A 
BRANCH  23  29
ATOM     29  N   UNL     1       8.674   5.847  13.528  0.00  0.00    +0.000 N 
ATOM     30  H   UNL     1       8.639   6.556  12.782  0.00  0.00    +0.000 HD
ATOM     31  H   UNL     1       9.572   5.379  13.599  0.00  0.00    +0.000 HD
ENDBRANCH  23  29
ENDBRANCH  19  28
ENDBRANCH  18  21
ENDBRANCH   1  18
TORSDOF 6
ENDMDL
