MODEL 1
REMARK VINA RESULT:      -8.5      0.000      0.000
REMARK  Name = 
REMARK  5 active torsions:
REMARK  status: ('A' for Active; 'I' for Inactive)
REMARK    1  A    between atoms: C_6  and  S_7
REMARK    2  A    between atoms: S_7  and  N_10
REMARK    3  A    between atoms: N_10  and  C_11
REMARK    4  A    between atoms: C_17  and  O_18
REMARK    5  A    between atoms: O_18  and  C_19
REMARK                            x       y       z     vdW  Elec       q    Type
REMARK                         _______ _______ _______ _____ _____    ______ ____
ROOT
ATOM      1  N   UNL     1       2.067   5.645  17.969  0.00  0.00    +0.000 N 
ATOM      2  H   UNL     1       1.818   5.654  16.981  0.00  0.00    +0.000 HD
ENDROOT
BRANCH   1   3
ATOM      3  C   UNL     1       2.296   4.358  18.550  0.00  0.00    +0.000 A 
ATOM      4  C   UNL     1       1.756   4.093  19.811  0.00  0.00    +0.000 A 
ATOM      5  C   UNL     1       1.938   2.841  20.395  0.00  0.00    +0.000 A 
ATOM      6 CL   UNL     1       1.174   2.469  21.891  0.00  0.00    +0.000 Cl
ATOM      7  C   UNL     1       2.723   1.876  19.771  0.00  0.00    +0.000 A 
ATOM      8  C   UNL     1       3.313   2.158  18.539  0.00  0.00    +0.000 A 
ATOM      9  C   UNL     1       3.044   3.371  17.885  0.00  0.00    +0.000 A 
BRANCH   9  10
ATOM     10  O   UNL     1       3.493   3.641  16.604  0.00  0.00    +0.000 OA
BRANCH  10  11
ATOM     11  C   UNL     1       4.810   4.033  16.452  0.00  0.00    +0.000 A 
ATOM     12  C   UNL     1       5.687   4.189  17.532  0.00  0.00    +0.000 A 
ATOM     13  C   UNL     1       6.968   4.702  17.326  0.00  0.00    +0.000 A 
ATOM     14  C   UNL     1       7.400   4.992  16.034  0.00  0.00    +0.000 A 
ATOM     15  C   UNL     1       6.556   4.757  14.947  0.00  0.00    +0.000 A 
ATOM     16  C   UNL     1       5.259   4.278  15.153  0.00  0.00    +0.000 A 
ENDBRANCH  10  11
ENDBRANCH   9  10
ENDBRANCH   1   3
BRANCH   1  17
ATOM     17  S   UNL     1       3.128   6.908  18.355  0.00  0.00    +0.000 S 
ATOM     18  O   UNL     1       3.648   7.495  17.139  0.00  0.00    +0.000 OA
ATOM     19  O   UNL     1       4.012   6.405  19.385  0.00  0.00    +0.000 OA
BRANCH  17  25
ATOM     20  O   UNL     1      -0.989  10.918  23.293  0.00  0.00    +0.000 OA
ATOM     21  C   UNL     1      -0.392  10.375  22.374  0.00  0.00    +0.000 C 
ATOM     22  C   UNL     1       0.465   9.107  22.462  0.00  0.00    +0.000 C 
ATOM     23  C   UNL     1       0.941   8.954  21.048  0.00  0.00    +0.000 A 
ATOM     24  C   UNL     1       1.770   7.996  20.495  0.00  0.00    +0.000 A 
ATOM     25  C   UNL     1       2.061   8.110  19.129  0.00  0.00    +0.000 A 
ATOM     26  C   UNL     1       1.489   9.130  18.336  0.00  0.00    +0.000 A 
ATOM     27  C   UNL     1       0.651  10.088  18.914  0.00  0.00    +0.000 A 
ATOM     28  C   UNL     1       0.407   9.978  20.265  0.00  0.00    +0.000 A 
ATOM     29  N   UNL     1      -0.373  10.807  21.054  0.00  0.00    +0.000 N 
ATOM     30  H   UNL     1      -0.877  11.625  20.741  0.00  0.00    +0.000 HD
ENDBRANCH  17  25
ENDBRANCH   1  17
TORSDOF 5
ENDMDL
MODEL 2
REMARK VINA RESULT:      -8.4      1.225      1.612
REMARK  Name = 
REMARK  5 active torsions:
REMARK  status: ('A' for Active; 'I' for Inactive)
REMARK    1  A    between atoms: C_6  and  S_7
REMARK    2  A    between atoms: S_7  and  N_10
REMARK    3  A    between atoms: N_10  and  C_11
REMARK    4  A    between atoms: C_17  and  O_18
REMARK    5  A    between atoms: O_18  and  C_19
REMARK                            x       y       z     vdW  Elec       q    Type
REMARK                         _______ _______ _______ _____ _____    ______ ____
ROOT
ATOM      1  N   UNL     1       3.736   6.518  19.584  0.00  0.00    +0.000 N 
ATOM      2  H   UNL     1       3.681   7.104  20.416  0.00  0.00    +0.000 HD
ENDROOT
BRANCH   1   3
ATOM      3  C   UNL     1       3.727   5.105  19.807  0.00  0.00    +0.000 A 
ATOM      4  C   UNL     1       2.628   4.543  20.462  0.00  0.00    +0.000 A 
ATOM      5  C   UNL     1       2.574   3.167  20.673  0.00  0.00    +0.000 A 
ATOM      6 CL   UNL     1       1.170   2.457  21.368  0.00  0.00    +0.000 Cl
ATOM      7  C   UNL     1       3.643   2.353  20.311  0.00  0.00    +0.000 A 
ATOM      8  C   UNL     1       4.768   2.919  19.710  0.00  0.00    +0.000 A 
ATOM      9  C   UNL     1       4.788   4.284  19.387  0.00  0.00    +0.000 A 
BRANCH   9  10
ATOM     10  O   UNL     1       5.821   4.864  18.670  0.00  0.00    +0.000 OA
BRANCH  10  11
ATOM     11  C   UNL     1       5.839   4.677  17.301  0.00  0.00    +0.000 A 
ATOM     12  C   UNL     1       4.701   4.325  16.565  0.00  0.00    +0.000 A 
ATOM     13  C   UNL     1       4.808   4.034  15.205  0.00  0.00    +0.000 A 
ATOM     14  C   UNL     1       6.036   4.163  14.562  0.00  0.00    +0.000 A 
ATOM     15  C   UNL     1       7.155   4.595  15.276  0.00  0.00    +0.000 A 
ATOM     16  C   UNL     1       7.059   4.852  16.646  0.00  0.00    +0.000 A 
ENDBRANCH  10  11
ENDBRANCH   9  10
ENDBRANCH   1   3
BRANCH   1  17
ATOM     17  S   UNL     1       2.799   7.144  18.319  0.00  0.00    +0.000 S 
ATOM     18  O   UNL     1       1.922   6.113  17.807  0.00  0.00    +0.000 OA
ATOM     19  O   UNL     1       3.707   7.860  17.447  0.00  0.00    +0.000 OA
BRANCH  17  25
ATOM     20  O   UNL     1      -1.098  11.198  23.397  0.00  0.00    +0.000 OA
ATOM     21  C   UNL     1      -0.535  10.652  22.458  0.00  0.00    +0.000 C 
ATOM     22  C   UNL     1       0.276   9.353  22.508  0.00  0.00    +0.000 C 
ATOM     23  C   UNL     1       0.727   9.212  21.084  0.00  0.00    +0.000 A 
ATOM     24  C   UNL     1       1.512   8.236  20.500  0.00  0.00    +0.000 A 
ATOM     25  C   UNL     1       1.788   8.367  19.132  0.00  0.00    +0.000 A 
ATOM     26  C   UNL     1       1.244   9.424  18.369  0.00  0.00    +0.000 A 
ATOM     27  C   UNL     1       0.449  10.400  18.978  0.00  0.00    +0.000 A 
ATOM     28  C   UNL     1       0.220  10.270  20.330  0.00  0.00    +0.000 A 
ATOM     29  N   UNL     1      -0.517  11.111  21.147  0.00  0.00    +0.000 N 
ATOM     30  H   UNL     1      -0.995  11.954  20.858  0.00  0.00    +0.000 HD
ENDBRANCH  17  25
ENDBRANCH   1  17
TORSDOF 5
ENDMDL
MODEL 3
REMARK VINA RESULT:      -8.3      1.516      1.800
REMARK  Name = 
REMARK  5 active torsions:
REMARK  status: ('A' for Active; 'I' for Inactive)
REMARK    1  A    between atoms: C_6  and  S_7
REMARK    2  A    between atoms: S_7  and  N_10
REMARK    3  A    between atoms: N_10  and  C_11
REMARK    4  A    between atoms: C_17  and  O_18
REMARK    5  A    between atoms: O_18  and  C_19
REMARK                            x       y       z     vdW  Elec       q    Type
REMARK                         _______ _______ _______ _____ _____    ______ ____
ROOT
ATOM      1  N   UNL     1       3.370   6.605  19.518  0.00  0.00    +0.000 N 
ATOM      2  H   UNL     1       3.286   7.118  20.394  0.00  0.00    +0.000 HD
ENDROOT
BRANCH   1   3
ATOM      3  C   UNL     1       3.336   5.179  19.618  0.00  0.00    +0.000 A 
ATOM      4  C   UNL     1       2.558   4.602  20.626  0.00  0.00    +0.000 A 
ATOM      5  C   UNL     1       2.481   3.215  20.736  0.00  0.00    +0.000 A 
ATOM      6 CL   UNL     1       1.430   2.501  21.895  0.00  0.00    +0.000 Cl
ATOM      7  C   UNL     1       3.237   2.397  19.903  0.00  0.00    +0.000 A 
ATOM      8  C   UNL     1       4.061   2.970  18.934  0.00  0.00    +0.000 A 
ATOM      9  C   UNL     1       4.060   4.359  18.736  0.00  0.00    +0.000 A 
BRANCH   9  10
ATOM     10  O   UNL     1       4.754   4.963  17.700  0.00  0.00    +0.000 OA
BRANCH  10  11
ATOM     11  C   UNL     1       5.950   5.586  18.003  0.00  0.00    +0.000 A 
ATOM     12  C   UNL     1       6.775   5.178  19.058  0.00  0.00    +0.000 A 
ATOM     13  C   UNL     1       7.909   5.920  19.388  0.00  0.00    +0.000 A 
ATOM     14  C   UNL     1       8.261   7.028  18.621  0.00  0.00    +0.000 A 
ATOM     15  C   UNL     1       7.486   7.386  17.516  0.00  0.00    +0.000 A 
ATOM     16  C   UNL     1       6.329   6.667  17.205  0.00  0.00    +0.000 A 
ENDBRANCH  10  11
ENDBRANCH   9  10
ENDBRANCH   1   3
BRANCH   1  17
ATOM     17  S   UNL     1       2.495   7.351  18.274  0.00  0.00    +0.000 S 
ATOM     18  O   UNL     1       1.578   6.399  17.686  0.00  0.00    +0.000 OA
ATOM     19  O   UNL     1       3.458   8.067  17.463  0.00  0.00    +0.000 OA
BRANCH  17  25
ATOM     20  O   UNL     1      -1.194  11.373  23.530  0.00  0.00    +0.000 OA
ATOM     21  C   UNL     1      -0.665  10.836  22.567  0.00  0.00    +0.000 C 
ATOM     22  C   UNL     1       0.117   9.518  22.568  0.00  0.00    +0.000 C 
ATOM     23  C   UNL     1       0.533   9.400  21.132  0.00  0.00    +0.000 A 
ATOM     24  C   UNL     1       1.282   8.420  20.508  0.00  0.00    +0.000 A 
ATOM     25  C   UNL     1       1.531   8.578  19.138  0.00  0.00    +0.000 A 
ATOM     26  C   UNL     1       0.994   9.664  18.411  0.00  0.00    +0.000 A 
ATOM     27  C   UNL     1       0.236  10.643  19.060  0.00  0.00    +0.000 A 
ATOM     28  C   UNL     1       0.033  10.487  20.414  0.00  0.00    +0.000 A 
ATOM     29  N   UNL     1      -0.666  11.325  21.266  0.00  0.00    +0.000 N 
ATOM     30  H   UNL     1      -1.130  12.184  21.008  0.00  0.00    +0.000 HD
ENDBRANCH  17  25
ENDBRANCH   1  17
TORSDOF 5
ENDMDL
MODEL 4
REMARK VINA RESULT:      -8.2      1.359      1.648
REMARK  Name = 
REMARK  5 active torsions:
REMARK  status: ('A' for Active; 'I' for Inactive)
REMARK    1  A    between atoms: C_6  and  S_7
REMARK    2  A    between atoms: S_7  and  N_10
REMARK    3  A    between atoms: N_10  and  C_11
REMARK    4  A    between atoms: C_17  and  O_18
REMARK    5  A    between atoms: O_18  and  C_19
REMARK                            x       y       z     vdW  Elec       q    Type
REMARK                         _______ _______ _______ _____ _____    ______ ____
ROOT
ATOM      1  N   UNL     1       3.256   6.866  19.832  0.00  0.00    +0.000 N 
ATOM      2  H   UNL     1       2.953   7.304  20.700  0.00  0.00    +0.000 HD
ENDROOT
BRANCH   1   3
ATOM      3  C   UNL     1       3.437   5.447  19.871  0.00  0.00    +0.000 A 
ATOM      4  C   UNL     1       2.459   4.671  20.500  0.00  0.00    +0.000 A 
ATOM      5  C   UNL     1       2.589   3.284  20.535  0.00  0.00    +0.000 A 
ATOM      6 CL   UNL     1       1.332   2.317  21.199  0.00  0.00    +0.000 Cl
ATOM      7  C   UNL     1       3.726   2.668  20.020  0.00  0.00    +0.000 A 
ATOM      8  C   UNL     1       4.731   3.444  19.444  0.00  0.00    +0.000 A 
ATOM      9  C   UNL     1       4.561   4.830  19.299  0.00  0.00    +0.000 A 
BRANCH   9  10
ATOM     10  O   UNL     1       5.466   5.623  18.614  0.00  0.00    +0.000 OA
BRANCH  10  11
ATOM     11  C   UNL     1       5.808   5.248  17.328  0.00  0.00    +0.000 A 
ATOM     12  C   UNL     1       7.041   4.668  17.007  0.00  0.00    +0.000 A 
ATOM     13  C   UNL     1       7.374   4.421  15.675  0.00  0.00    +0.000 A 
ATOM     14  C   UNL     1       6.449   4.685  14.668  0.00  0.00    +0.000 A 
ATOM     15  C   UNL     1       5.186   5.184  14.994  0.00  0.00    +0.000 A 
ATOM     16  C   UNL     1       4.864   5.467  16.324  0.00  0.00    +0.000 A 
ENDBRANCH  10  11
ENDBRANCH   9  10
ENDBRANCH   1   3
BRANCH   1  17
ATOM     17  S   UNL     1       2.479   7.546  18.489  0.00  0.00    +0.000 S 
ATOM     18  O   UNL     1       1.651   6.548  17.848  0.00  0.00    +0.000 OA
ATOM     19  O   UNL     1       3.492   8.270  17.749  0.00  0.00    +0.000 OA
BRANCH  17  25
ATOM     20  O   UNL     1      -1.648  11.710  23.289  0.00  0.00    +0.000 OA
ATOM     21  C   UNL     1      -1.053  11.134  22.388  0.00  0.00    +0.000 C 
ATOM     22  C   UNL     1      -0.173   9.886  22.523  0.00  0.00    +0.000 C 
ATOM     23  C   UNL     1       0.290   9.677  21.112  0.00  0.00    +0.000 A 
ATOM     24  C   UNL     1       1.128   8.708  20.594  0.00  0.00    +0.000 A 
ATOM     25  C   UNL     1       1.401   8.764  19.220  0.00  0.00    +0.000 A 
ATOM     26  C   UNL     1       0.803   9.738  18.389  0.00  0.00    +0.000 A 
ATOM     27  C   UNL     1      -0.045  10.707  18.932  0.00  0.00    +0.000 A 
ATOM     28  C   UNL     1      -0.272  10.654  20.290  0.00  0.00    +0.000 A 
ATOM     29  N   UNL     1      -1.056  11.506  21.050  0.00  0.00    +0.000 N 
ATOM     30  H   UNL     1      -1.578  12.301  20.707  0.00  0.00    +0.000 HD
ENDBRANCH  17  25
ENDBRANCH   1  17
TORSDOF 5
ENDMDL
MODEL 5
REMARK VINA RESULT:      -8.1      0.860      1.522
REMARK  Name = 
REMARK  5 active torsions:
REMARK  status: ('A' for Active; 'I' for Inactive)
REMARK    1  A    between atoms: C_6  and  S_7
REMARK    2  A    between atoms: S_7  and  N_10
REMARK    3  A    between atoms: N_10  and  C_11
REMARK    4  A    between atoms: C_17  and  O_18
REMARK    5  A    between atoms: O_18  and  C_19
REMARK                            x       y       z     vdW  Elec       q    Type
REMARK                         _______ _______ _______ _____ _____    ______ ____
ROOT
ATOM      1  N   UNL     1       2.133   5.644  17.905  0.00  0.00    +0.000 N 
ATOM      2  H   UNL     1       1.955   5.664  16.902  0.00  0.00    +0.000 HD
ENDROOT
BRANCH   1   3
ATOM      3  C   UNL     1       2.352   4.353  18.481  0.00  0.00    +0.000 A 
ATOM      4  C   UNL     1       1.809   4.088  19.741  0.00  0.00    +0.000 A 
ATOM      5  C   UNL     1       1.979   2.832  20.321  0.00  0.00    +0.000 A 
ATOM      6 CL   UNL     1       1.212   2.462  21.815  0.00  0.00    +0.000 Cl
ATOM      7  C   UNL     1       2.755   1.863  19.693  0.00  0.00    +0.000 A 
ATOM      8  C   UNL     1       3.348   2.144  18.462  0.00  0.00    +0.000 A 
ATOM      9  C   UNL     1       3.090   3.361  17.813  0.00  0.00    +0.000 A 
BRANCH   9  10
ATOM     10  O   UNL     1       3.542   3.632  16.533  0.00  0.00    +0.000 OA
BRANCH  10  11
ATOM     11  C   UNL     1       4.856   4.031  16.384  0.00  0.00    +0.000 A 
ATOM     12  C   UNL     1       5.720   4.226  17.469  0.00  0.00    +0.000 A 
ATOM     13  C   UNL     1       6.999   4.743  17.263  0.00  0.00    +0.000 A 
ATOM     14  C   UNL     1       7.443   5.001  15.968  0.00  0.00    +0.000 A 
ATOM     15  C   UNL     1       6.614   4.728  14.878  0.00  0.00    +0.000 A 
ATOM     16  C   UNL     1       5.319   4.244  15.084  0.00  0.00    +0.000 A 
ENDBRANCH  10  11
ENDBRANCH   9  10
ENDBRANCH   1   3
BRANCH   1  17
ATOM     17  S   UNL     1       3.135   6.923  18.384  0.00  0.00    +0.000 S 
ATOM     18  O   UNL     1       3.656   7.598  17.215  0.00  0.00    +0.000 OA
ATOM     19  O   UNL     1       4.017   6.398  19.405  0.00  0.00    +0.000 OA
BRANCH  17  25
ATOM     20  O   UNL     1      -1.678  12.541  20.028  0.00  0.00    +0.000 OA
ATOM     21  C   UNL     1      -0.910  11.593  19.932  0.00  0.00    +0.000 C 
ATOM     22  C   UNL     1      -0.104  11.191  18.692  0.00  0.00    +0.000 C 
ATOM     23  C   UNL     1       0.614   9.964  19.171  0.00  0.00    +0.000 A 
ATOM     24  C   UNL     1       1.488   9.134  18.496  0.00  0.00    +0.000 A 
ATOM     25  C   UNL     1       2.005   8.037  19.200  0.00  0.00    +0.000 A 
ATOM     26  C   UNL     1       1.687   7.818  20.559  0.00  0.00    +0.000 A 
ATOM     27  C   UNL     1       0.803   8.671  21.225  0.00  0.00    +0.000 A 
ATOM     28  C   UNL     1       0.280   9.723  20.504  0.00  0.00    +0.000 A 
ATOM     29  N   UNL     1      -0.616  10.683  20.940  0.00  0.00    +0.000 N 
ATOM     30  H   UNL     1      -1.021  10.745  21.864  0.00  0.00    +0.000 HD
ENDBRANCH  17  25
ENDBRANCH   1  17
TORSDOF 5
ENDMDL
MODEL 6
REMARK VINA RESULT:      -8.0      2.935      4.590
REMARK  Name = 
REMARK  5 active torsions:
REMARK  status: ('A' for Active; 'I' for Inactive)
REMARK    1  A    between atoms: C_6  and  S_7
REMARK    2  A    between atoms: S_7  and  N_10
REMARK    3  A    between atoms: N_10  and  C_11
REMARK    4  A    between atoms: C_17  and  O_18
REMARK    5  A    between atoms: O_18  and  C_19
REMARK                            x       y       z     vdW  Elec       q    Type
REMARK                         _______ _______ _______ _____ _____    ______ ____
ROOT
ATOM      1  N   UNL     1       4.836   3.308  17.134  0.00  0.00    +0.000 N 
ATOM      2  H   UNL     1       4.471   3.232  16.186  0.00  0.00    +0.000 HD
ENDROOT
BRANCH   1   3
ATOM      3  C   UNL     1       5.692   4.424  17.392  0.00  0.00    +0.000 A 
ATOM      4  C   UNL     1       6.406   4.449  18.594  0.00  0.00    +0.000 A 
ATOM      5  C   UNL     1       7.269   5.508  18.867  0.00  0.00    +0.000 A 
ATOM      6 CL   UNL     1       8.241   5.484  20.286  0.00  0.00    +0.000 Cl
ATOM      7  C   UNL     1       7.366   6.586  17.991  0.00  0.00    +0.000 A 
ATOM      8  C   UNL     1       6.610   6.592  16.819  0.00  0.00    +0.000 A 
ATOM      9  C   UNL     1       5.825   5.481  16.476  0.00  0.00    +0.000 A 
BRANCH   9  10
ATOM     10  O   UNL     1       5.166   5.382  15.262  0.00  0.00    +0.000 OA
BRANCH  10  11
ATOM     11  C   UNL     1       5.852   4.827  14.199  0.00  0.00    +0.000 A 
ATOM     12  C   UNL     1       7.155   5.205  13.853  0.00  0.00    +0.000 A 
ATOM     13  C   UNL     1       7.750   4.695  12.699  0.00  0.00    +0.000 A 
ATOM     14  C   UNL     1       7.075   3.752  11.929  0.00  0.00    +0.000 A 
ATOM     15  C   UNL     1       5.809   3.310  12.318  0.00  0.00    +0.000 A 
ATOM     16  C   UNL     1       5.195   3.846  13.454  0.00  0.00    +0.000 A 
ENDBRANCH  10  11
ENDBRANCH   9  10
ENDBRANCH   1   3
BRANCH   1  17
ATOM     17  S   UNL     1       3.663   2.903  18.287  0.00  0.00    +0.000 S 
ATOM     18  O   UNL     1       4.292   2.246  19.412  0.00  0.00    +0.000 OA
ATOM     19  O   UNL     1       2.573   2.281  17.565  0.00  0.00    +0.000 OA
BRANCH  17  25
ATOM     20  O   UNL     1       1.280  10.086  18.665  0.00  0.00    +0.000 OA
ATOM     21  C   UNL     1       1.659   8.928  18.778  0.00  0.00    +0.000 C 
ATOM     22  C   UNL     1       2.144   8.010  17.650  0.00  0.00    +0.000 C 
ATOM     23  C   UNL     1       2.440   6.739  18.389  0.00  0.00    +0.000 A 
ATOM     24  C   UNL     1       2.900   5.527  17.910  0.00  0.00    +0.000 A 
ATOM     25  C   UNL     1       3.077   4.494  18.841  0.00  0.00    +0.000 A 
ATOM     26  C   UNL     1       2.845   4.697  20.220  0.00  0.00    +0.000 A 
ATOM     27  C   UNL     1       2.383   5.932  20.685  0.00  0.00    +0.000 A 
ATOM     28  C   UNL     1       2.183   6.922  19.748  0.00  0.00    +0.000 A 
ATOM     29  N   UNL     1       1.723   8.210  19.965  0.00  0.00    +0.000 N 
ATOM     30  H   UNL     1       1.463   8.607  20.857  0.00  0.00    +0.000 HD
ENDBRANCH  17  25
ENDBRANCH   1  17
TORSDOF 5
ENDMDL
MODEL 7
REMARK VINA RESULT:      -8.0      1.689      2.257
REMARK  Name = 
REMARK  5 active torsions:
REMARK  status: ('A' for Active; 'I' for Inactive)
REMARK    1  A    between atoms: C_6  and  S_7
REMARK    2  A    between atoms: S_7  and  N_10
REMARK    3  A    between atoms: N_10  and  C_11
REMARK    4  A    between atoms: C_17  and  O_18
REMARK    5  A    between atoms: O_18  and  C_19
REMARK                            x       y       z     vdW  Elec       q    Type
REMARK                         _______ _______ _______ _____ _____    ______ ____
ROOT
ATOM      1  N   UNL     1       3.429   6.647  19.550  0.00  0.00    +0.000 N 
ATOM      2  H   UNL     1       3.529   7.110  20.452  0.00  0.00    +0.000 HD
ENDROOT
BRANCH   1   3
ATOM      3  C   UNL     1       3.328   5.220  19.582  0.00  0.00    +0.000 A 
ATOM      4  C   UNL     1       2.566   4.632  20.595  0.00  0.00    +0.000 A 
ATOM      5  C   UNL     1       2.425   3.246  20.642  0.00  0.00    +0.000 A 
ATOM      6 CL   UNL     1       1.391   2.524  21.811  0.00  0.00    +0.000 Cl
ATOM      7  C   UNL     1       3.104   2.435  19.737  0.00  0.00    +0.000 A 
ATOM      8  C   UNL     1       3.913   3.017  18.761  0.00  0.00    +0.000 A 
ATOM      9  C   UNL     1       3.973   4.413  18.630  0.00  0.00    +0.000 A 
BRANCH   9  10
ATOM     10  O   UNL     1       4.651   5.034  17.595  0.00  0.00    +0.000 OA
BRANCH  10  11
ATOM     11  C   UNL     1       5.855   5.645  17.888  0.00  0.00    +0.000 A 
ATOM     12  C   UNL     1       6.725   5.175  18.879  0.00  0.00    +0.000 A 
ATOM     13  C   UNL     1       7.869   5.902  19.210  0.00  0.00    +0.000 A 
ATOM     14  C   UNL     1       8.183   7.060  18.505  0.00  0.00    +0.000 A 
ATOM     15  C   UNL     1       7.361   7.485  17.459  0.00  0.00    +0.000 A 
ATOM     16  C   UNL     1       6.195   6.779  17.149  0.00  0.00    +0.000 A 
ENDBRANCH  10  11
ENDBRANCH   9  10
ENDBRANCH   1   3
BRANCH   1  17
ATOM     17  S   UNL     1       2.396   7.508  18.519  0.00  0.00    +0.000 S 
ATOM     18  O   UNL     1       1.486   6.592  17.866  0.00  0.00    +0.000 OA
ATOM     19  O   UNL     1       3.232   8.411  17.756  0.00  0.00    +0.000 OA
BRANCH  17  25
ATOM     20  O   UNL     1      -2.005  12.836  21.628  0.00  0.00    +0.000 OA
ATOM     21  C   UNL     1      -1.271  11.918  21.289  0.00  0.00    +0.000 C 
ATOM     22  C   UNL     1      -0.719  11.659  19.882  0.00  0.00    +0.000 C 
ATOM     23  C   UNL     1       0.076  10.404  20.085  0.00  0.00    +0.000 A 
ATOM     24  C   UNL     1       0.804   9.664  19.173  0.00  0.00    +0.000 A 
ATOM     25  C   UNL     1       1.445   8.511  19.647  0.00  0.00    +0.000 A 
ATOM     26  C   UNL     1       1.395   8.148  21.012  0.00  0.00    +0.000 A 
ATOM     27  C   UNL     1       0.656   8.912  21.920  0.00  0.00    +0.000 A 
ATOM     28  C   UNL     1       0.005  10.022  21.425  0.00  0.00    +0.000 A 
ATOM     29  N   UNL     1      -0.790  10.916  22.122  0.00  0.00    +0.000 N 
ATOM     30  H   UNL     1      -1.009  10.875  23.108  0.00  0.00    +0.000 HD
ENDBRANCH  17  25
ENDBRANCH   1  17
TORSDOF 5
ENDMDL
MODEL 8
REMARK VINA RESULT:      -7.9      1.328      1.606
REMARK  Name = 
REMARK  5 active torsions:
REMARK  status: ('A' for Active; 'I' for Inactive)
REMARK    1  A    between atoms: C_6  and  S_7
REMARK    2  A    between atoms: S_7  and  N_10
REMARK    3  A    between atoms: N_10  and  C_11
REMARK    4  A    between atoms: C_17  and  O_18
REMARK    5  A    between atoms: O_18  and  C_19
REMARK                            x       y       z     vdW  Elec       q    Type
REMARK                         _______ _______ _______ _____ _____    ______ ____
ROOT
ATOM      1  N   UNL     1       3.392   5.983  19.649  0.00  0.00    +0.000 N 
ATOM      2  H   UNL     1       3.108   6.367  20.548  0.00  0.00    +0.000 HD
ENDROOT
BRANCH   1   3
ATOM      3  C   UNL     1       3.285   4.563  19.508  0.00  0.00    +0.000 A 
ATOM      4  C   UNL     1       2.013   4.006  19.351  0.00  0.00    +0.000 A 
ATOM      5  C   UNL     1       1.873   2.630  19.186  0.00  0.00    +0.000 A 
ATOM      6 CL   UNL     1       0.324   1.953  18.871  0.00  0.00    +0.000 Cl
ATOM      7  C   UNL     1       2.982   1.793  19.257  0.00  0.00    +0.000 A 
ATOM      8  C   UNL     1       4.247   2.340  19.472  0.00  0.00    +0.000 A 
ATOM      9  C   UNL     1       4.418   3.732  19.525  0.00  0.00    +0.000 A 
BRANCH   9  10
ATOM     10  O   UNL     1       5.666   4.326  19.600  0.00  0.00    +0.000 OA
BRANCH  10  11
ATOM     11  C   UNL     1       6.178   4.898  18.451  0.00  0.00    +0.000 A 
ATOM     12  C   UNL     1       7.061   5.984  18.470  0.00  0.00    +0.000 A 
ATOM     13  C   UNL     1       7.449   6.593  17.277  0.00  0.00    +0.000 A 
ATOM     14  C   UNL     1       7.014   6.074  16.060  0.00  0.00    +0.000 A 
ATOM     15  C   UNL     1       6.201   4.940  16.035  0.00  0.00    +0.000 A 
ATOM     16  C   UNL     1       5.781   4.350  17.231  0.00  0.00    +0.000 A 
ENDBRANCH  10  11
ENDBRANCH   9  10
ENDBRANCH   1   3
BRANCH   1  17
ATOM     17  S   UNL     1       2.884   6.964  18.364  0.00  0.00    +0.000 S 
ATOM     18  O   UNL     1       1.992   6.217  17.505  0.00  0.00    +0.000 OA
ATOM     19  O   UNL     1       4.071   7.606  17.840  0.00  0.00    +0.000 OA
BRANCH  17  25
ATOM     20  O   UNL     1      -0.970  11.103  23.408  0.00  0.00    +0.000 OA
ATOM     21  C   UNL     1      -0.398  10.553  22.477  0.00  0.00    +0.000 C 
ATOM     22  C   UNL     1       0.305   9.191  22.510  0.00  0.00    +0.000 C 
ATOM     23  C   UNL     1       0.824   9.075  21.107  0.00  0.00    +0.000 A 
ATOM     24  C   UNL     1       1.563   8.064  20.522  0.00  0.00    +0.000 A 
ATOM     25  C   UNL     1       1.926   8.230  19.178  0.00  0.00    +0.000 A 
ATOM     26  C   UNL     1       1.509   9.358  18.436  0.00  0.00    +0.000 A 
ATOM     27  C   UNL     1       0.760  10.368  19.046  0.00  0.00    +0.000 A 
ATOM     28  C   UNL     1       0.444  10.201  20.377  0.00  0.00    +0.000 A 
ATOM     29  N   UNL     1      -0.271  11.062  21.191  0.00  0.00    +0.000 N 
ATOM     30  H   UNL     1      -0.665  11.952  20.916  0.00  0.00    +0.000 HD
ENDBRANCH  17  25
ENDBRANCH   1  17
TORSDOF 5
ENDMDL
MODEL 9
REMARK VINA RESULT:      -7.9      3.520      9.245
REMARK  Name = 
REMARK  5 active torsions:
REMARK  status: ('A' for Active; 'I' for Inactive)
REMARK    1  A    between atoms: C_6  and  S_7
REMARK    2  A    between atoms: S_7  and  N_10
REMARK    3  A    between atoms: N_10  and  C_11
REMARK    4  A    between atoms: C_17  and  O_18
REMARK    5  A    between atoms: O_18  and  C_19
REMARK                            x       y       z     vdW  Elec       q    Type
REMARK                         _______ _______ _______ _____ _____    ______ ____
ROOT
ATOM      1  N   UNL     1       0.996  10.017  20.210  0.00  0.00    +0.000 N 
ATOM      2  H   UNL     1       1.745   9.874  19.533  0.00  0.00    +0.000 HD
ENDROOT
BRANCH   1   3
ATOM      3  C   UNL     1      -0.212  10.588  19.701  0.00  0.00    +0.000 A 
ATOM      4  C   UNL     1      -0.730  10.087  18.502  0.00  0.00    +0.000 A 
ATOM      5  C   UNL     1      -1.919  10.602  17.991  0.00  0.00    +0.000 A 
ATOM      6 CL   UNL     1      -2.623   9.907  16.584  0.00  0.00    +0.000 Cl
ATOM      7  C   UNL     1      -2.556  11.668  18.618  0.00  0.00    +0.000 A 
ATOM      8  C   UNL     1      -2.011  12.209  19.782  0.00  0.00    +0.000 A 
ATOM      9  C   UNL     1      -0.878  11.627  20.372  0.00  0.00    +0.000 A 
BRANCH   9  10
ATOM     10  O   UNL     1      -0.381  12.041  21.596  0.00  0.00    +0.000 OA
BRANCH  10  11
ATOM     11  C   UNL     1      -1.275  12.559  22.513  0.00  0.00    +0.000 A 
ATOM     12  C   UNL     1      -2.352  11.824  23.025  0.00  0.00    +0.000 A 
ATOM     13  C   UNL     1      -3.288  12.439  23.856  0.00  0.00    +0.000 A 
ATOM     14  C   UNL     1      -3.113  13.767  24.236  0.00  0.00    +0.000 A 
ATOM     15  C   UNL     1      -1.995  14.477  23.794  0.00  0.00    +0.000 A 
ATOM     16  C   UNL     1      -1.074  13.875  22.932  0.00  0.00    +0.000 A 
ENDBRANCH  10  11
ENDBRANCH   9  10
ENDBRANCH   1   3
BRANCH   1  17
ATOM     17  S   UNL     1       0.885   8.722  21.296  0.00  0.00    +0.000 S 
ATOM     18  O   UNL     1      -0.507   8.410  21.541  0.00  0.00    +0.000 OA
ATOM     19  O   UNL     1       1.792   9.018  22.385  0.00  0.00    +0.000 OA
BRANCH  17  25
ATOM     20  O   UNL     1       3.185   1.887  18.970  0.00  0.00    +0.000 OA
ATOM     21  C   UNL     1       2.901   3.053  19.208  0.00  0.00    +0.000 C 
ATOM     22  C   UNL     1       2.175   3.583  20.450  0.00  0.00    +0.000 C 
ATOM     23  C   UNL     1       2.097   5.053  20.162  0.00  0.00    +0.000 A 
ATOM     24  C   UNL     1       1.534   6.069  20.911  0.00  0.00    +0.000 A 
ATOM     25  C   UNL     1       1.597   7.366  20.382  0.00  0.00    +0.000 A 
ATOM     26  C   UNL     1       2.255   7.633  19.160  0.00  0.00    +0.000 A 
ATOM     27  C   UNL     1       2.820   6.591  18.420  0.00  0.00    +0.000 A 
ATOM     28  C   UNL     1       2.716   5.319  18.941  0.00  0.00    +0.000 A 
ATOM     29  N   UNL     1       3.183   4.139  18.389  0.00  0.00    +0.000 N 
ATOM     30  H   UNL     1       3.670   4.044  17.508  0.00  0.00    +0.000 HD
ENDBRANCH  17  25
ENDBRANCH   1  17
TORSDOF 5
ENDMDL
