MODEL 1
REMARK VINA RESULT:      -8.8      0.000      0.000
REMARK  Name = 
REMARK  7 active torsions:
REMARK  status: ('A' for Active; 'I' for Inactive)
REMARK    1  A    between atoms: C_2  and  C_3
REMARK    2  A    between atoms: C_3  and  N_4
REMARK    3  A    between atoms: C_5  and  C_7
REMARK    4  A    between atoms: C_16  and  O_17
REMARK    5  A    between atoms: N_18  and  C_19
REMARK    6  A    between atoms: C_19  and  C_20
REMARK    7  A    between atoms: C_20  and  C_21
REMARK                            x       y       z     vdW  Elec       q    Type
REMARK                         _______ _______ _______ _____ _____    ______ ____
ROOT
ATOM      1  N   UNL     1       5.443   3.226  18.927  0.00  0.00    +0.000 N 
ATOM      2  C   UNL     1       5.739   4.491  18.499  0.00  0.00    +0.000 C 
ATOM      3  O   UNL     1       5.712   5.465  19.247  0.00  0.00    +0.000 OA
ATOM      4  H   UNL     1       5.531   2.452  18.266  0.00  0.00    +0.000 HD
ENDROOT
BRANCH   2   5
ATOM      5  C   UNL     1       6.089   4.655  17.067  0.00  0.00    +0.000 A 
ATOM      6  C   UNL     1       7.136   5.501  16.750  0.00  0.00    +0.000 A 
ATOM      7  N   UNL     1       7.602   5.698  15.493  0.00  0.00    +0.000 NA
ATOM      8  C   UNL     1       7.042   5.002  14.492  0.00  0.00    +0.000 A 
ATOM      9  C   UNL     1       7.572   5.147  13.216  0.00  0.00    +0.000 A 
ATOM     10  C   UNL     1       7.094   4.414  12.130  0.00  0.00    +0.000 A 
ATOM     11  C   UNL     1       6.025   3.547  12.305  0.00  0.00    +0.000 A 
ATOM     12  C   UNL     1       5.445   3.414  13.565  0.00  0.00    +0.000 A 
ATOM     13  C   UNL     1       5.960   4.111  14.686  0.00  0.00    +0.000 A 
ATOM     14  C   UNL     1       5.481   3.968  16.012  0.00  0.00    +0.000 A 
BRANCH  14  15
ATOM     15  O   UNL     1       4.433   3.124  16.303  0.00  0.00    +0.000 OA
ATOM     16  H   UNL     1       4.082   3.331  17.183  0.00  0.00    +0.000 HD
ENDBRANCH  14  15
ENDBRANCH   2   5
BRANCH   1  17
ATOM     17  C   UNL     1       5.127   2.932  20.306  0.00  0.00    +0.000 C 
BRANCH  17  19
ATOM     18  O   UNL     1       3.163   2.310  21.573  0.00  0.00    +0.000 OA
ATOM     19  C   UNL     1       3.673   2.481  20.469  0.00  0.00    +0.000 C 
ATOM     20  N   UNL     1       3.020   2.220  19.282  0.00  0.00    +0.000 N 
ATOM     21  H   UNL     1       3.533   2.355  18.414  0.00  0.00    +0.000 HD
BRANCH  20  22
ATOM     22  C   UNL     1       1.619   1.840  19.240  0.00  0.00    +0.000 C 
BRANCH  22  23
ATOM     23  C   UNL     1       0.705   3.002  18.838  0.00  0.00    +0.000 C 
BRANCH  23  24
ATOM     24  C   UNL     1       1.366   4.332  19.112  0.00  0.00    +0.000 A 
ATOM     25  C   UNL     1       1.237   4.951  20.365  0.00  0.00    +0.000 A 
ATOM     26  C   UNL     1       1.762   6.228  20.585  0.00  0.00    +0.000 A 
ATOM     27  C   UNL     1       2.416   6.901  19.555  0.00  0.00    +0.000 A 
ATOM     28  C   UNL     1       2.561   6.280  18.320  0.00  0.00    +0.000 A 
ATOM     29  F   UNL     1       3.186   6.928  17.327  0.00  0.00    +0.000 F 
ATOM     30  C   UNL     1       2.053   5.005  18.092  0.00  0.00    +0.000 A 
ENDBRANCH  23  24
ENDBRANCH  22  23
ENDBRANCH  20  22
ENDBRANCH  17  19
ENDBRANCH   1  17
TORSDOF 7
ENDMDL
MODEL 2
REMARK VINA RESULT:      -8.4      0.806      1.207
REMARK  Name = 
REMARK  7 active torsions:
REMARK  status: ('A' for Active; 'I' for Inactive)
REMARK    1  A    between atoms: C_2  and  C_3
REMARK    2  A    between atoms: C_3  and  N_4
REMARK    3  A    between atoms: C_5  and  C_7
REMARK    4  A    between atoms: C_16  and  O_17
REMARK    5  A    between atoms: N_18  and  C_19
REMARK    6  A    between atoms: C_19  and  C_20
REMARK    7  A    between atoms: C_20  and  C_21
REMARK                            x       y       z     vdW  Elec       q    Type
REMARK                         _______ _______ _______ _____ _____    ______ ____
ROOT
ATOM      1  N   UNL     1       5.450   3.278  18.946  0.00  0.00    +0.000 N 
ATOM      2  C   UNL     1       5.757   4.535  18.500  0.00  0.00    +0.000 C 
ATOM      3  O   UNL     1       5.747   5.519  19.236  0.00  0.00    +0.000 OA
ATOM      4  H   UNL     1       5.525   2.495  18.294  0.00  0.00    +0.000 HD
ENDROOT
BRANCH   2   5
ATOM      5  C   UNL     1       6.099   4.677  17.064  0.00  0.00    +0.000 A 
ATOM      6  C   UNL     1       7.151   5.510  16.729  0.00  0.00    +0.000 A 
ATOM      7  N   UNL     1       7.609   5.687  15.467  0.00  0.00    +0.000 NA
ATOM      8  C   UNL     1       7.037   4.983  14.479  0.00  0.00    +0.000 A 
ATOM      9  C   UNL     1       7.559   5.106  13.198  0.00  0.00    +0.000 A 
ATOM     10  C   UNL     1       7.068   4.363  12.124  0.00  0.00    +0.000 A 
ATOM     11  C   UNL     1       5.993   3.507  12.317  0.00  0.00    +0.000 A 
ATOM     12  C   UNL     1       5.421   3.396  13.583  0.00  0.00    +0.000 A 
ATOM     13  C   UNL     1       5.949   4.103  14.691  0.00  0.00    +0.000 A 
ATOM     14  C   UNL     1       5.479   3.981  16.022  0.00  0.00    +0.000 A 
BRANCH  14  15
ATOM     15  O   UNL     1       4.426   3.150  16.332  0.00  0.00    +0.000 OA
ATOM     16  H   UNL     1       3.601   3.523  15.982  0.00  0.00    +0.000 HD
ENDBRANCH  14  15
ENDBRANCH   2   5
BRANCH   1  17
ATOM     17  C   UNL     1       5.142   3.005  20.332  0.00  0.00    +0.000 C 
BRANCH  17  19
ATOM     18  O   UNL     1       3.221   2.276  21.608  0.00  0.00    +0.000 OA
ATOM     19  C   UNL     1       3.700   2.520  20.503  0.00  0.00    +0.000 C 
ATOM     20  N   UNL     1       3.020   2.318  19.319  0.00  0.00    +0.000 N 
ATOM     21  H   UNL     1       3.509   2.513  18.449  0.00  0.00    +0.000 HD
BRANCH  20  22
ATOM     22  C   UNL     1       1.625   1.917  19.289  0.00  0.00    +0.000 C 
BRANCH  22  23
ATOM     23  C   UNL     1       0.676   3.057  19.670  0.00  0.00    +0.000 C 
BRANCH  23  24
ATOM     24  C   UNL     1       1.280   4.401  19.339  0.00  0.00    +0.000 A 
ATOM     25  C   UNL     1       1.795   4.659  18.060  0.00  0.00    +0.000 A 
ATOM     26  C   UNL     1       2.446   5.865  17.784  0.00  0.00    +0.000 A 
ATOM     27  C   UNL     1       2.593   6.823  18.785  0.00  0.00    +0.000 A 
ATOM     28  C   UNL     1       2.065   6.576  20.047  0.00  0.00    +0.000 A 
ATOM     29  F   UNL     1       2.210   7.495  21.012  0.00  0.00    +0.000 F 
ATOM     30  C   UNL     1       1.406   5.384  20.330  0.00  0.00    +0.000 A 
ENDBRANCH  23  24
ENDBRANCH  22  23
ENDBRANCH  20  22
ENDBRANCH  17  19
ENDBRANCH   1  17
TORSDOF 7
ENDMDL
MODEL 3
REMARK VINA RESULT:      -8.4      3.165      3.916
REMARK  Name = 
REMARK  7 active torsions:
REMARK  status: ('A' for Active; 'I' for Inactive)
REMARK    1  A    between atoms: C_2  and  C_3
REMARK    2  A    between atoms: C_3  and  N_4
REMARK    3  A    between atoms: C_5  and  C_7
REMARK    4  A    between atoms: C_16  and  O_17
REMARK    5  A    between atoms: N_18  and  C_19
REMARK    6  A    between atoms: C_19  and  C_20
REMARK    7  A    between atoms: C_20  and  C_21
REMARK                            x       y       z     vdW  Elec       q    Type
REMARK                         _______ _______ _______ _____ _____    ______ ____
ROOT
ATOM      1  N   UNL     1       4.134   4.833  18.722  0.00  0.00    +0.000 N 
ATOM      2  C   UNL     1       5.474   4.716  18.473  0.00  0.00    +0.000 C 
ATOM      3  O   UNL     1       6.300   4.550  19.368  0.00  0.00    +0.000 OA
ATOM      4  H   UNL     1       3.494   4.921  17.930  0.00  0.00    +0.000 HD
ENDROOT
BRANCH   2   5
ATOM      5  C   UNL     1       5.909   4.811  17.059  0.00  0.00    +0.000 A 
ATOM      6  C   UNL     1       7.038   5.559  16.778  0.00  0.00    +0.000 A 
ATOM      7  N   UNL     1       7.582   5.683  15.544  0.00  0.00    +0.000 NA
ATOM      8  C   UNL     1       7.016   5.009  14.531  0.00  0.00    +0.000 A 
ATOM      9  C   UNL     1       7.621   5.075  13.282  0.00  0.00    +0.000 A 
ATOM     10  C   UNL     1       7.138   4.354  12.189  0.00  0.00    +0.000 A 
ATOM     11  C   UNL     1       5.992   3.584  12.326  0.00  0.00    +0.000 A 
ATOM     12  C   UNL     1       5.341   3.535  13.556  0.00  0.00    +0.000 A 
ATOM     13  C   UNL     1       5.855   4.216  14.687  0.00  0.00    +0.000 A 
ATOM     14  C   UNL     1       5.299   4.149  15.989  0.00  0.00    +0.000 A 
BRANCH  14  15
ATOM     15  O   UNL     1       4.170   3.404  16.244  0.00  0.00    +0.000 OA
ATOM     16  H   UNL     1       4.123   2.660  15.623  0.00  0.00    +0.000 HD
ENDBRANCH  14  15
ENDBRANCH   2   5
BRANCH   1  17
ATOM     17  C   UNL     1       3.582   4.716  20.053  0.00  0.00    +0.000 C 
BRANCH  17  19
ATOM     18  O   UNL     1       1.250   5.163  20.508  0.00  0.00    +0.000 OA
ATOM     19  C   UNL     1       2.359   5.617  20.238  0.00  0.00    +0.000 C 
ATOM     20  N   UNL     1       2.597   6.957  20.009  0.00  0.00    +0.000 N 
ATOM     21  H   UNL     1       3.540   7.238  19.755  0.00  0.00    +0.000 HD
BRANCH  20  22
ATOM     22  C   UNL     1       1.568   7.966  20.196  0.00  0.00    +0.000 C 
BRANCH  22  23
ATOM     23  C   UNL     1       1.357   8.325  21.670  0.00  0.00    +0.000 C 
BRANCH  23  24
ATOM     24  C   UNL     1       0.459   9.531  21.811  0.00  0.00    +0.000 A 
ATOM     25  C   UNL     1      -0.221   9.781  23.013  0.00  0.00    +0.000 A 
ATOM     26  C   UNL     1      -1.130  10.839  23.111  0.00  0.00    +0.000 A 
ATOM     27  C   UNL     1      -1.371  11.655  22.008  0.00  0.00    +0.000 A 
ATOM     28  C   UNL     1      -0.683  11.421  20.823  0.00  0.00    +0.000 A 
ATOM     29  F   UNL     1      -0.918  12.203  19.761  0.00  0.00    +0.000 F 
ATOM     30  C   UNL     1       0.232  10.378  20.717  0.00  0.00    +0.000 A 
ENDBRANCH  23  24
ENDBRANCH  22  23
ENDBRANCH  20  22
ENDBRANCH  17  19
ENDBRANCH   1  17
TORSDOF 7
ENDMDL
MODEL 4
REMARK VINA RESULT:      -8.3      5.425      8.613
REMARK  Name = 
REMARK  7 active torsions:
REMARK  status: ('A' for Active; 'I' for Inactive)
REMARK    1  A    between atoms: C_2  and  C_3
REMARK    2  A    between atoms: C_3  and  N_4
REMARK    3  A    between atoms: C_5  and  C_7
REMARK    4  A    between atoms: C_16  and  O_17
REMARK    5  A    between atoms: N_18  and  C_19
REMARK    6  A    between atoms: C_19  and  C_20
REMARK    7  A    between atoms: C_20  and  C_21
REMARK                            x       y       z     vdW  Elec       q    Type
REMARK                         _______ _______ _______ _____ _____    ______ ____
ROOT
ATOM      1  N   UNL     1       6.831   5.939  19.007  0.00  0.00    +0.000 N 
ATOM      2  C   UNL     1       6.130   5.061  18.227  0.00  0.00    +0.000 C 
ATOM      3  O   UNL     1       6.555   4.647  17.152  0.00  0.00    +0.000 OA
ATOM      4  H   UNL     1       6.443   6.208  19.914  0.00  0.00    +0.000 HD
ENDROOT
BRANCH   2   5
ATOM      5  C   UNL     1       4.803   4.625  18.727  0.00  0.00    +0.000 A 
ATOM      6  C   UNL     1       4.167   5.427  19.657  0.00  0.00    +0.000 A 
ATOM      7  N   UNL     1       2.930   5.183  20.153  0.00  0.00    +0.000 NA
ATOM      8  C   UNL     1       2.259   4.118  19.689  0.00  0.00    +0.000 A 
ATOM      9  C   UNL     1       0.961   3.914  20.140  0.00  0.00    +0.000 A 
ATOM     10  C   UNL     1       0.168   2.870  19.662  0.00  0.00    +0.000 A 
ATOM     11  C   UNL     1       0.696   1.972  18.746  0.00  0.00    +0.000 A 
ATOM     12  C   UNL     1       2.009   2.128  18.308  0.00  0.00    +0.000 A 
ATOM     13  C   UNL     1       2.803   3.217  18.744  0.00  0.00    +0.000 A 
ATOM     14  C   UNL     1       4.115   3.492  18.283  0.00  0.00    +0.000 A 
BRANCH  14  15
ATOM     15  O   UNL     1       4.732   2.675  17.363  0.00  0.00    +0.000 OA
ATOM     16  H   UNL     1       5.333   3.200  16.811  0.00  0.00    +0.000 HD
ENDBRANCH  14  15
ENDBRANCH   2   5
BRANCH   1  17
ATOM     17  C   UNL     1       8.152   6.405  18.649  0.00  0.00    +0.000 C 
BRANCH  17  19
ATOM     18  O   UNL     1       7.529   8.179  17.127  0.00  0.00    +0.000 OA
ATOM     19  C   UNL     1       8.123   7.853  18.151  0.00  0.00    +0.000 C 
ATOM     20  N   UNL     1       8.872   8.732  18.908  0.00  0.00    +0.000 N 
ATOM     21  H   UNL     1       9.360   8.366  19.721  0.00  0.00    +0.000 HD
BRANCH  20  22
ATOM     22  C   UNL     1       8.913  10.155  18.621  0.00  0.00    +0.000 C 
BRANCH  22  23
ATOM     23  C   UNL     1       9.823  10.924  19.583  0.00  0.00    +0.000 C 
BRANCH  23  24
ATOM     24  C   UNL     1      10.423  12.136  18.912  0.00  0.00    +0.000 A 
ATOM     25  C   UNL     1      10.950  12.049  17.614  0.00  0.00    +0.000 A 
ATOM     26  C   UNL     1      11.596  13.144  17.032  0.00  0.00    +0.000 A 
ATOM     27  C   UNL     1      11.727  14.335  17.744  0.00  0.00    +0.000 A 
ATOM     28  C   UNL     1      11.187  14.429  19.021  0.00  0.00    +0.000 A 
ATOM     29  F   UNL     1      11.315  15.573  19.707  0.00  0.00    +0.000 F 
ATOM     30  C   UNL     1      10.532  13.350  19.606  0.00  0.00    +0.000 A 
ENDBRANCH  23  24
ENDBRANCH  22  23
ENDBRANCH  20  22
ENDBRANCH  17  19
ENDBRANCH   1  17
TORSDOF 7
ENDMDL
MODEL 5
REMARK VINA RESULT:      -8.3      5.137      6.508
REMARK  Name = 
REMARK  7 active torsions:
REMARK  status: ('A' for Active; 'I' for Inactive)
REMARK    1  A    between atoms: C_2  and  C_3
REMARK    2  A    between atoms: C_3  and  N_4
REMARK    3  A    between atoms: C_5  and  C_7
REMARK    4  A    between atoms: C_16  and  O_17
REMARK    5  A    between atoms: N_18  and  C_19
REMARK    6  A    between atoms: C_19  and  C_20
REMARK    7  A    between atoms: C_20  and  C_21
REMARK                            x       y       z     vdW  Elec       q    Type
REMARK                         _______ _______ _______ _____ _____    ______ ____
ROOT
ATOM      1  N   UNL     1       2.189   7.600  20.453  0.00  0.00    +0.000 N 
ATOM      2  C   UNL     1       2.179   6.266  20.151  0.00  0.00    +0.000 C 
ATOM      3  O   UNL     1       1.368   5.483  20.640  0.00  0.00    +0.000 OA
ATOM      4  H   UNL     1       2.859   8.206  19.975  0.00  0.00    +0.000 HD
ENDROOT
BRANCH   2   5
ATOM      5  C   UNL     1       3.210   5.781  19.201  0.00  0.00    +0.000 A 
ATOM      6  C   UNL     1       3.771   4.538  19.435  0.00  0.00    +0.000 A 
ATOM      7  N   UNL     1       4.677   3.947  18.620  0.00  0.00    +0.000 NA
ATOM      8  C   UNL     1       5.028   4.584  17.493  0.00  0.00    +0.000 A 
ATOM      9  C   UNL     1       5.897   3.942  16.620  0.00  0.00    +0.000 A 
ATOM     10  C   UNL     1       6.264   4.503  15.396  0.00  0.00    +0.000 A 
ATOM     11  C   UNL     1       5.794   5.761  15.050  0.00  0.00    +0.000 A 
ATOM     12  C   UNL     1       4.955   6.447  15.926  0.00  0.00    +0.000 A 
ATOM     13  C   UNL     1       4.531   5.862  17.145  0.00  0.00    +0.000 A 
ATOM     14  C   UNL     1       3.616   6.458  18.048  0.00  0.00    +0.000 A 
BRANCH  14  15
ATOM     15  O   UNL     1       3.076   7.699  17.799  0.00  0.00    +0.000 OA
ATOM     16  H   UNL     1       3.781   8.364  17.774  0.00  0.00    +0.000 HD
ENDBRANCH  14  15
ENDBRANCH   2   5
BRANCH   1  17
ATOM     17  C   UNL     1       1.210   8.199  21.332  0.00  0.00    +0.000 C 
BRANCH  17  19
ATOM     18  O   UNL     1       1.115  10.596  21.646  0.00  0.00    +0.000 OA
ATOM     19  C   UNL     1       0.883   9.636  20.915  0.00  0.00    +0.000 C 
ATOM     20  N   UNL     1       0.252   9.746  19.693  0.00  0.00    +0.000 N 
ATOM     21  H   UNL     1       0.068   8.893  19.171  0.00  0.00    +0.000 HD
BRANCH  20  22
ATOM     22  C   UNL     1      -0.079  11.035  19.110  0.00  0.00    +0.000 C 
BRANCH  22  23
ATOM     23  C   UNL     1      -1.538  11.432  19.349  0.00  0.00    +0.000 C 
BRANCH  23  24
ATOM     24  C   UNL     1      -2.392  11.117  18.144  0.00  0.00    +0.000 A 
ATOM     25  C   UNL     1      -1.855  10.428  17.046  0.00  0.00    +0.000 A 
ATOM     26  C   UNL     1      -2.615  10.226  15.890  0.00  0.00    +0.000 A 
ATOM     27  C   UNL     1      -3.918  10.715  15.819  0.00  0.00    +0.000 A 
ATOM     28  C   UNL     1      -4.458  11.379  16.914  0.00  0.00    +0.000 A 
ATOM     29  F   UNL     1      -5.710  11.853  16.844  0.00  0.00    +0.000 F 
ATOM     30  C   UNL     1      -3.715  11.577  18.073  0.00  0.00    +0.000 A 
ENDBRANCH  23  24
ENDBRANCH  22  23
ENDBRANCH  20  22
ENDBRANCH  17  19
ENDBRANCH   1  17
TORSDOF 7
ENDMDL
MODEL 6
REMARK VINA RESULT:      -8.2      5.505      8.725
REMARK  Name = 
REMARK  7 active torsions:
REMARK  status: ('A' for Active; 'I' for Inactive)
REMARK    1  A    between atoms: C_2  and  C_3
REMARK    2  A    between atoms: C_3  and  N_4
REMARK    3  A    between atoms: C_5  and  C_7
REMARK    4  A    between atoms: C_16  and  O_17
REMARK    5  A    between atoms: N_18  and  C_19
REMARK    6  A    between atoms: C_19  and  C_20
REMARK    7  A    between atoms: C_20  and  C_21
REMARK                            x       y       z     vdW  Elec       q    Type
REMARK                         _______ _______ _______ _____ _____    ______ ____
ROOT
ATOM      1  N   UNL     1       6.813   6.153  18.574  0.00  0.00    +0.000 N 
ATOM      2  C   UNL     1       6.596   4.868  18.159  0.00  0.00    +0.000 C 
ATOM      3  O   UNL     1       7.498   4.149  17.735  0.00  0.00    +0.000 OA
ATOM      4  H   UNL     1       6.030   6.682  18.962  0.00  0.00    +0.000 HD
ENDROOT
BRANCH   2   5
ATOM      5  C   UNL     1       5.203   4.363  18.228  0.00  0.00    +0.000 A 
ATOM      6  C   UNL     1       4.818   3.403  17.310  0.00  0.00    +0.000 A 
ATOM      7  N   UNL     1       3.599   2.811  17.294  0.00  0.00    +0.000 NA
ATOM      8  C   UNL     1       2.719   3.144  18.250  0.00  0.00    +0.000 A 
ATOM      9  C   UNL     1       1.500   2.479  18.279  0.00  0.00    +0.000 A 
ATOM     10  C   UNL     1       0.552   2.717  19.276  0.00  0.00    +0.000 A 
ATOM     11  C   UNL     1       0.802   3.677  20.244  0.00  0.00    +0.000 A 
ATOM     12  C   UNL     1       1.998   4.390  20.214  0.00  0.00    +0.000 A 
ATOM     13  C   UNL     1       2.991   4.117  19.241  0.00  0.00    +0.000 A 
ATOM     14  C   UNL     1       4.264   4.737  19.193  0.00  0.00    +0.000 A 
BRANCH  14  15
ATOM     15  O   UNL     1       4.624   5.696  20.113  0.00  0.00    +0.000 OA
ATOM     16  H   UNL     1       3.902   5.828  20.747  0.00  0.00    +0.000 HD
ENDBRANCH  14  15
ENDBRANCH   2   5
BRANCH   1  17
ATOM     17  C   UNL     1       8.132   6.745  18.594  0.00  0.00    +0.000 C 
BRANCH  17  19
ATOM     18  O   UNL     1       7.462   8.564  17.148  0.00  0.00    +0.000 OA
ATOM     19  C   UNL     1       8.102   8.205  18.132  0.00  0.00    +0.000 C 
ATOM     20  N   UNL     1       8.903   9.053  18.870  0.00  0.00    +0.000 N 
ATOM     21  H   UNL     1       9.426   8.661  19.648  0.00  0.00    +0.000 HD
BRANCH  20  22
ATOM     22  C   UNL     1       8.953  10.482  18.614  0.00  0.00    +0.000 C 
BRANCH  22  23
ATOM     23  C   UNL     1      10.140  11.163  19.302  0.00  0.00    +0.000 C 
BRANCH  23  24
ATOM     24  C   UNL     1      10.570  12.398  18.547  0.00  0.00    +0.000 A 
ATOM     25  C   UNL     1      11.301  12.289  17.354  0.00  0.00    +0.000 A 
ATOM     26  C   UNL     1      11.787  13.431  16.710  0.00  0.00    +0.000 A 
ATOM     27  C   UNL     1      11.552  14.692  17.254  0.00  0.00    +0.000 A 
ATOM     28  C   UNL     1      10.811  14.802  18.424  0.00  0.00    +0.000 A 
ATOM     29  F   UNL     1      10.588  16.014  18.951  0.00  0.00    +0.000 F 
ATOM     30  C   UNL     1      10.313  13.673  19.069  0.00  0.00    +0.000 A 
ENDBRANCH  23  24
ENDBRANCH  22  23
ENDBRANCH  20  22
ENDBRANCH  17  19
ENDBRANCH   1  17
TORSDOF 7
ENDMDL
MODEL 7
REMARK VINA RESULT:      -8.2      3.424      7.118
REMARK  Name = 
REMARK  7 active torsions:
REMARK  status: ('A' for Active; 'I' for Inactive)
REMARK    1  A    between atoms: C_2  and  C_3
REMARK    2  A    between atoms: C_3  and  N_4
REMARK    3  A    between atoms: C_5  and  C_7
REMARK    4  A    between atoms: C_16  and  O_17
REMARK    5  A    between atoms: N_18  and  C_19
REMARK    6  A    between atoms: C_19  and  C_20
REMARK    7  A    between atoms: C_20  and  C_21
REMARK                            x       y       z     vdW  Elec       q    Type
REMARK                         _______ _______ _______ _____ _____    ______ ____
ROOT
ATOM      1  N   UNL     1       3.967   7.438  17.545  0.00  0.00    +0.000 N 
ATOM      2  C   UNL     1       2.747   7.092  18.057  0.00  0.00    +0.000 C 
ATOM      3  O   UNL     1       2.212   6.011  17.819  0.00  0.00    +0.000 OA
ATOM      4  H   UNL     1       4.379   8.332  17.820  0.00  0.00    +0.000 HD
ENDROOT
BRANCH   2   5
ATOM      5  C   UNL     1       2.067   8.091  18.917  0.00  0.00    +0.000 A 
ATOM      6  C   UNL     1       1.698   9.294  18.343  0.00  0.00    +0.000 A 
ATOM      7  N   UNL     1       1.020  10.270  18.993  0.00  0.00    +0.000 NA
ATOM      8  C   UNL     1       0.646  10.048  20.262  0.00  0.00    +0.000 A 
ATOM      9  C   UNL     1      -0.116  11.017  20.901  0.00  0.00    +0.000 A 
ATOM     10  C   UNL     1      -0.602  10.840  22.197  0.00  0.00    +0.000 A 
ATOM     11  C   UNL     1      -0.280   9.687  22.898  0.00  0.00    +0.000 A 
ATOM     12  C   UNL     1       0.519   8.717  22.298  0.00  0.00    +0.000 A 
ATOM     13  C   UNL     1       0.970   8.861  20.962  0.00  0.00    +0.000 A 
ATOM     14  C   UNL     1       1.714   7.886  20.254  0.00  0.00    +0.000 A 
BRANCH  14  15
ATOM     15  O   UNL     1       2.077   6.698  20.848  0.00  0.00    +0.000 OA
ATOM     16  H   UNL     1       2.880   6.353  20.426  0.00  0.00    +0.000 HD
ENDBRANCH  14  15
ENDBRANCH   2   5
BRANCH   1  17
ATOM     17  C   UNL     1       4.746   6.535  16.728  0.00  0.00    +0.000 C 
BRANCH  17  19
ATOM     18  O   UNL     1       5.654   5.100  18.450  0.00  0.00    +0.000 OA
ATOM     19  C   UNL     1       4.975   5.194  17.431  0.00  0.00    +0.000 C 
ATOM     20  N   UNL     1       4.417   4.108  16.787  0.00  0.00    +0.000 N 
ATOM     21  H   UNL     1       3.900   4.276  15.927  0.00  0.00    +0.000 HD
BRANCH  20  22
ATOM     22  C   UNL     1       4.482   2.767  17.340  0.00  0.00    +0.000 C 
BRANCH  22  23
ATOM     23  C   UNL     1       3.117   2.073  17.365  0.00  0.00    +0.000 C 
BRANCH  23  24
ATOM     24  C   UNL     1       2.361   2.407  18.629  0.00  0.00    +0.000 A 
ATOM     25  C   UNL     1       1.039   2.875  18.570  0.00  0.00    +0.000 A 
ATOM     26  C   UNL     1       0.375   3.280  19.732  0.00  0.00    +0.000 A 
ATOM     27  C   UNL     1       1.027   3.227  20.962  0.00  0.00    +0.000 A 
ATOM     28  C   UNL     1       2.329   2.744  21.024  0.00  0.00    +0.000 A 
ATOM     29  F   UNL     1       2.958   2.697  22.206  0.00  0.00    +0.000 F 
ATOM     30  C   UNL     1       2.996   2.328  19.876  0.00  0.00    +0.000 A 
ENDBRANCH  23  24
ENDBRANCH  22  23
ENDBRANCH  20  22
ENDBRANCH  17  19
ENDBRANCH   1  17
TORSDOF 7
ENDMDL
MODEL 8
REMARK VINA RESULT:      -8.1      3.154      7.254
REMARK  Name = 
REMARK  7 active torsions:
REMARK  status: ('A' for Active; 'I' for Inactive)
REMARK    1  A    between atoms: C_2  and  C_3
REMARK    2  A    between atoms: C_3  and  N_4
REMARK    3  A    between atoms: C_5  and  C_7
REMARK    4  A    between atoms: C_16  and  O_17
REMARK    5  A    between atoms: N_18  and  C_19
REMARK    6  A    between atoms: C_19  and  C_20
REMARK    7  A    between atoms: C_20  and  C_21
REMARK                            x       y       z     vdW  Elec       q    Type
REMARK                         _______ _______ _______ _____ _____    ______ ____
ROOT
ATOM      1  N   UNL     1       2.063   5.012  18.489  0.00  0.00    +0.000 N 
ATOM      2  C   UNL     1       2.621   6.213  18.147  0.00  0.00    +0.000 C 
ATOM      3  O   UNL     1       3.505   6.315  17.300  0.00  0.00    +0.000 OA
ATOM      4  H   UNL     1       1.298   5.001  19.165  0.00  0.00    +0.000 HD
ENDROOT
BRANCH   2   5
ATOM      5  C   UNL     1       2.120   7.416  18.857  0.00  0.00    +0.000 A 
ATOM      6  C   UNL     1       1.926   8.569  18.117  0.00  0.00    +0.000 A 
ATOM      7  N   UNL     1       1.419   9.719  18.621  0.00  0.00    +0.000 NA
ATOM      8  C   UNL     1       1.041   9.737  19.909  0.00  0.00    +0.000 A 
ATOM      9  C   UNL     1       0.449  10.892  20.402  0.00  0.00    +0.000 A 
ATOM     10  C   UNL     1      -0.031  10.976  21.710  0.00  0.00    +0.000 A 
ATOM     11  C   UNL     1       0.125   9.897  22.568  0.00  0.00    +0.000 A 
ATOM     12  C   UNL     1       0.754   8.741  22.112  0.00  0.00    +0.000 A 
ATOM     13  C   UNL     1       1.194   8.625  20.770  0.00  0.00    +0.000 A 
ATOM     14  C   UNL     1       1.766   7.457  20.208  0.00  0.00    +0.000 A 
BRANCH  14  15
ATOM     15  O   UNL     1       1.956   6.322  20.965  0.00  0.00    +0.000 OA
ATOM     16  H   UNL     1       2.143   5.569  20.383  0.00  0.00    +0.000 HD
ENDBRANCH  14  15
ENDBRANCH   2   5
BRANCH   1  17
ATOM     17  C   UNL     1       2.437   3.776  17.840  0.00  0.00    +0.000 C 
BRANCH  17  19
ATOM     18  O   UNL     1       4.677   3.494  18.709  0.00  0.00    +0.000 OA
ATOM     19  C   UNL     1       3.958   3.637  17.723  0.00  0.00    +0.000 C 
ATOM     20  N   UNL     1       4.445   3.755  16.437  0.00  0.00    +0.000 N 
ATOM     21  H   UNL     1       3.778   3.908  15.685  0.00  0.00    +0.000 HD
BRANCH  20  22
ATOM     22  C   UNL     1       5.855   3.591  16.129  0.00  0.00    +0.000 C 
BRANCH  22  23
ATOM     23  C   UNL     1       6.501   4.882  15.620  0.00  0.00    +0.000 C 
BRANCH  23  24
ATOM     24  C   UNL     1       7.162   5.640  16.747  0.00  0.00    +0.000 A 
ATOM     25  C   UNL     1       7.559   4.978  17.919  0.00  0.00    +0.000 A 
ATOM     26  C   UNL     1       8.076   5.695  19.002  0.00  0.00    +0.000 A 
ATOM     27  C   UNL     1       8.197   7.081  18.926  0.00  0.00    +0.000 A 
ATOM     28  C   UNL     1       7.823   7.735  17.758  0.00  0.00    +0.000 A 
ATOM     29  F   UNL     1       7.935   9.069  17.686  0.00  0.00    +0.000 F 
ATOM     30  C   UNL     1       7.317   7.031  16.670  0.00  0.00    +0.000 A 
ENDBRANCH  23  24
ENDBRANCH  22  23
ENDBRANCH  20  22
ENDBRANCH  17  19
ENDBRANCH   1  17
TORSDOF 7
ENDMDL
MODEL 9
REMARK VINA RESULT:      -8.1      5.044      8.885
REMARK  Name = 
REMARK  7 active torsions:
REMARK  status: ('A' for Active; 'I' for Inactive)
REMARK    1  A    between atoms: C_2  and  C_3
REMARK    2  A    between atoms: C_3  and  N_4
REMARK    3  A    between atoms: C_5  and  C_7
REMARK    4  A    between atoms: C_16  and  O_17
REMARK    5  A    between atoms: N_18  and  C_19
REMARK    6  A    between atoms: C_19  and  C_20
REMARK    7  A    between atoms: C_20  and  C_21
REMARK                            x       y       z     vdW  Elec       q    Type
REMARK                         _______ _______ _______ _____ _____    ______ ____
ROOT
ATOM      1  N   UNL     1       4.282   7.123  17.617  0.00  0.00    +0.000 N 
ATOM      2  C   UNL     1       3.033   6.785  18.060  0.00  0.00    +0.000 C 
ATOM      3  O   UNL     1       2.551   5.667  17.889  0.00  0.00    +0.000 OA
ATOM      4  H   UNL     1       4.644   8.053  17.834  0.00  0.00    +0.000 HD
ENDROOT
BRANCH   2   5
ATOM      5  C   UNL     1       2.256   7.838  18.758  0.00  0.00    +0.000 A 
ATOM      6  C   UNL     1       1.853   8.938  18.023  0.00  0.00    +0.000 A 
ATOM      7  N   UNL     1       1.090   9.943  18.515  0.00  0.00    +0.000 NA
ATOM      8  C   UNL     1       0.662   9.854  19.784  0.00  0.00    +0.000 A 
ATOM      9  C   UNL     1      -0.184  10.846  20.263  0.00  0.00    +0.000 A 
ATOM     10  C   UNL     1      -0.727  10.798  21.547  0.00  0.00    +0.000 A 
ATOM     11  C   UNL     1      -0.381   9.760  22.400  0.00  0.00    +0.000 A 
ATOM     12  C   UNL     1       0.501   8.774  21.961  0.00  0.00    +0.000 A 
ATOM     13  C   UNL     1       1.012   8.782  20.640  0.00  0.00    +0.000 A 
ATOM     14  C   UNL     1       1.845   7.775  20.093  0.00  0.00    +0.000 A 
BRANCH  14  15
ATOM     15  O   UNL     1       2.240   6.691  20.845  0.00  0.00    +0.000 OA
ATOM     16  H   UNL     1       1.652   6.593  21.610  0.00  0.00    +0.000 HD
ENDBRANCH  14  15
ENDBRANCH   2   5
BRANCH   1  17
ATOM     17  C   UNL     1       5.151   6.173  16.960  0.00  0.00    +0.000 C 
BRANCH  17  19
ATOM     18  O   UNL     1       7.529   5.887  16.620  0.00  0.00    +0.000 OA
ATOM     19  C   UNL     1       6.624   6.572  17.089  0.00  0.00    +0.000 C 
ATOM     20  N   UNL     1       6.842   7.717  17.828  0.00  0.00    +0.000 N 
ATOM     21  H   UNL     1       6.034   8.201  18.210  0.00  0.00    +0.000 HD
BRANCH  20  22
ATOM     22  C   UNL     1       8.170   8.279  18.005  0.00  0.00    +0.000 C 
BRANCH  22  23
ATOM     23  C   UNL     1       8.273   9.719  17.495  0.00  0.00    +0.000 C 
BRANCH  23  24
ATOM     24  C   UNL     1       9.193  10.540  18.367  0.00  0.00    +0.000 A 
ATOM     25  C   UNL     1       9.280  10.295  19.746  0.00  0.00    +0.000 A 
ATOM     26  C   UNL     1      10.053  11.119  20.569  0.00  0.00    +0.000 A 
ATOM     27  C   UNL     1      10.742  12.201  20.023  0.00  0.00    +0.000 A 
ATOM     28  C   UNL     1      10.672  12.432  18.654  0.00  0.00    +0.000 A 
ATOM     29  F   UNL     1      11.330  13.475  18.129  0.00  0.00    +0.000 F 
ATOM     30  C   UNL     1       9.915  11.612  17.824  0.00  0.00    +0.000 A 
ENDBRANCH  23  24
ENDBRANCH  22  23
ENDBRANCH  20  22
ENDBRANCH  17  19
ENDBRANCH   1  17
TORSDOF 7
ENDMDL
