MODEL 1
REMARK VINA RESULT:      -8.9      0.000      0.000
REMARK  Name = 
REMARK  9 active torsions:
REMARK  status: ('A' for Active; 'I' for Inactive)
REMARK    1  A    between atoms: C_1  and  C_2
REMARK    2  A    between atoms: C_2  and  S_3
REMARK    3  A    between atoms: C_2  and  C_22
REMARK    4  A    between atoms: S_3  and  C_4
REMARK    5  A    between atoms: C_7  and  C_8
REMARK    6  A    between atoms: N_14  and  C_15
REMARK    7  A    between atoms: C_15  and  C_16
REMARK    8  A    between atoms: C_34  and  C_35
REMARK    9  A    between atoms: C_34  and  C_36
REMARK                            x       y       z     vdW  Elec       q    Type
REMARK                         _______ _______ _______ _____ _____    ______ ____
ROOT
ATOM      1  S   UNL     1       0.904   9.387  20.003  0.00  0.00    +0.000 S 
ENDROOT
BRANCH   1   2
ATOM      2  C   UNL     1       0.885  11.047  19.469  0.00  0.00    +0.000 A 
ATOM      3  N   UNL     1       1.917  11.710  19.010  0.00  0.00    +0.000 NA
ATOM      4  N   UNL     1       1.556  13.036  18.927  0.00  0.00    +0.000 NA
ATOM      5  C   UNL     1       0.311  13.188  19.357  0.00  0.00    +0.000 A 
ATOM      6  N   UNL     1      -0.177  11.915  19.639  0.00  0.00    +0.000 N 
BRANCH   5   7
ATOM      7  C   UNL     1      -0.378  14.497  19.428  0.00  0.00    +0.000 A 
ATOM      8  C   UNL     1      -0.025  15.491  18.508  0.00  0.00    +0.000 A 
ATOM      9  C   UNL     1      -0.642  16.732  18.574  0.00  0.00    +0.000 A 
ATOM     10  N   UNL     1      -1.590  17.049  19.476  0.00  0.00    +0.000 NA
ATOM     11  C   UNL     1      -1.899  16.095  20.380  0.00  0.00    +0.000 A 
ATOM     12  C   UNL     1      -1.321  14.835  20.401  0.00  0.00    +0.000 A 
ENDBRANCH   5   7
BRANCH   6  13
ATOM     13  C   UNL     1      -1.569  11.534  19.814  0.00  0.00    +0.000 C 
BRANCH  13  14
ATOM     14  C   UNL     1      -2.295  11.210  18.532  0.00  0.00    +0.000 A 
ATOM     15  C   UNL     1      -3.555  11.798  18.302  0.00  0.00    +0.000 A 
ATOM     16  C   UNL     1      -4.275  11.506  17.144  0.00  0.00    +0.000 A 
ATOM     17  C   UNL     1      -3.739  10.637  16.198  0.00  0.00    +0.000 A 
ATOM     18  C   UNL     1      -2.486  10.076  16.392  0.00  0.00    +0.000 A 
ATOM     19  C   UNL     1      -1.763  10.362  17.551  0.00  0.00    +0.000 A 
ENDBRANCH  13  14
ENDBRANCH   6  13
ENDBRANCH   1   2
BRANCH   1  21
ATOM     20  C   UNL     1       1.524   8.591  17.539  0.00  0.00    +0.000 C 
ATOM     21  C   UNL     1       2.148   8.541  18.956  0.00  0.00    +0.000 C 
BRANCH  21  22
ATOM     22  C   UNL     1       2.297   7.026  19.336  0.00  0.00    +0.000 C 
ATOM     23  O   UNL     1       1.939   6.690  20.476  0.00  0.00    +0.000 OA
ATOM     24  N   UNL     1       2.639   6.030  18.348  0.00  0.00    +0.000 N 
ATOM     25  C   UNL     1       2.213   4.669  18.782  0.00  0.00    +0.000 A 
ATOM     26  C   UNL     1       1.398   3.813  18.041  0.00  0.00    +0.000 A 
ATOM     27  C   UNL     1       1.130   2.515  18.525  0.00  0.00    +0.000 A 
ATOM     28  C   UNL     1       1.581   2.113  19.788  0.00  0.00    +0.000 A 
ATOM     29  C   UNL     1       2.467   2.925  20.482  0.00  0.00    +0.000 A 
ATOM     30  C   UNL     1       2.884   4.103  19.873  0.00  0.00    +0.000 A 
ATOM     31  N   UNL     1       4.151   4.602  20.168  0.00  0.00    +0.000 N 
ATOM     32  C   UNL     1       4.865   5.324  19.226  0.00  0.00    +0.000 C 
ATOM     33  O   UNL     1       6.084   5.401  19.359  0.00  0.00    +0.000 OA
ATOM     34  C   UNL     1       4.102   5.865  17.943  0.00  0.00    +0.000 C 
ATOM     35  C   UNL     1       4.120   4.920  16.689  0.00  0.00    +0.000 C 
ATOM     36  C   UNL     1       4.948   7.065  17.483  0.00  0.00    +0.000 C 
ATOM     37  H   UNL     1       4.685   4.209  20.931  0.00  0.00    +0.000 HD
ENDBRANCH  21  22
ENDBRANCH   1  21
TORSDOF 6
ENDMDL
MODEL 2
REMARK VINA RESULT:      -8.8      2.387      9.268
REMARK  Name = 
REMARK  9 active torsions:
REMARK  status: ('A' for Active; 'I' for Inactive)
REMARK    1  A    between atoms: C_1  and  C_2
REMARK    2  A    between atoms: C_2  and  S_3
REMARK    3  A    between atoms: C_2  and  C_22
REMARK    4  A    between atoms: S_3  and  C_4
REMARK    5  A    between atoms: C_7  and  C_8
REMARK    6  A    between atoms: N_14  and  C_15
REMARK    7  A    between atoms: C_15  and  C_16
REMARK    8  A    between atoms: C_34  and  C_35
REMARK    9  A    between atoms: C_34  and  C_36
REMARK                            x       y       z     vdW  Elec       q    Type
REMARK                         _______ _______ _______ _____ _____    ______ ____
ROOT
ATOM      1  S   UNL     1       1.174   7.685  19.747  0.00  0.00    +0.000 S 
ENDROOT
BRANCH   1   2
ATOM      2  C   UNL     1       2.584   7.635  18.722  0.00  0.00    +0.000 A 
ATOM      3  N   UNL     1       2.873   8.503  17.784  0.00  0.00    +0.000 NA
ATOM      4  N   UNL     1       3.920   7.990  17.052  0.00  0.00    +0.000 NA
ATOM      5  C   UNL     1       4.256   6.798  17.526  0.00  0.00    +0.000 A 
ATOM      6  N   UNL     1       3.467   6.575  18.651  0.00  0.00    +0.000 N 
BRANCH   5   7
ATOM      7  C   UNL     1       5.329   5.958  16.946  0.00  0.00    +0.000 A 
ATOM      8  C   UNL     1       6.409   5.594  17.757  0.00  0.00    +0.000 A 
ATOM      9  C   UNL     1       7.435   4.827  17.224  0.00  0.00    +0.000 A 
ATOM     10  N   UNL     1       7.457   4.388  15.952  0.00  0.00    +0.000 NA
ATOM     11  C   UNL     1       6.428   4.772  15.169  0.00  0.00    +0.000 A 
ATOM     12  C   UNL     1       5.370   5.552  15.610  0.00  0.00    +0.000 A 
ENDBRANCH   5   7
BRANCH   6  13
ATOM     13  C   UNL     1       3.692   5.582  19.690  0.00  0.00    +0.000 C 
BRANCH  13  14
ATOM     14  C   UNL     1       2.733   4.417  19.659  0.00  0.00    +0.000 A 
ATOM     15  C   UNL     1       2.553   3.722  18.446  0.00  0.00    +0.000 A 
ATOM     16  C   UNL     1       1.656   2.658  18.364  0.00  0.00    +0.000 A 
ATOM     17  C   UNL     1       0.942   2.266  19.492  0.00  0.00    +0.000 A 
ATOM     18  C   UNL     1       1.131   2.918  20.702  0.00  0.00    +0.000 A 
ATOM     19  C   UNL     1       2.025   3.986  20.789  0.00  0.00    +0.000 A 
ENDBRANCH  13  14
ENDBRANCH   6  13
ENDBRANCH   1   2
BRANCH   1  21
ATOM     20  C   UNL     1       0.139   9.453  21.448  0.00  0.00    +0.000 C 
ATOM     21  C   UNL     1       0.860   9.461  20.076  0.00  0.00    +0.000 C 
BRANCH  21  22
ATOM     22  C   UNL     1      -0.142  10.078  19.038  0.00  0.00    +0.000 C 
ATOM     23  O   UNL     1      -0.007   9.740  17.851  0.00  0.00    +0.000 OA
ATOM     24  N   UNL     1      -1.293  10.840  19.460  0.00  0.00    +0.000 N 
ATOM     25  C   UNL     1      -2.345  10.862  18.405  0.00  0.00    +0.000 A 
ATOM     26  C   UNL     1      -3.671  10.469  18.589  0.00  0.00    +0.000 A 
ATOM     27  C   UNL     1      -4.592  10.612  17.530  0.00  0.00    +0.000 A 
ATOM     28  C   UNL     1      -4.172  11.040  16.266  0.00  0.00    +0.000 A 
ATOM     29  C   UNL     1      -2.879  11.519  16.106  0.00  0.00    +0.000 A 
ATOM     30  C   UNL     1      -2.061  11.569  17.229  0.00  0.00    +0.000 A 
ATOM     31  N   UNL     1      -1.076  12.552  17.302  0.00  0.00    +0.000 N 
ATOM     32  C   UNL     1      -0.680  13.070  18.524  0.00  0.00    +0.000 C 
ATOM     33  O   UNL     1      -0.130  14.167  18.536  0.00  0.00    +0.000 OA
ATOM     34  C   UNL     1      -1.106  12.305  19.849  0.00  0.00    +0.000 C 
ATOM     35  C   UNL     1      -2.454  12.774  20.505  0.00  0.00    +0.000 C 
ATOM     36  C   UNL     1      -0.051  12.733  20.884  0.00  0.00    +0.000 C 
ATOM     37  H   UNL     1      -0.852  13.105  16.487  0.00  0.00    +0.000 HD
ENDBRANCH  21  22
ENDBRANCH   1  21
TORSDOF 6
ENDMDL
MODEL 3
REMARK VINA RESULT:      -8.8      0.855      1.410
REMARK  Name = 
REMARK  9 active torsions:
REMARK  status: ('A' for Active; 'I' for Inactive)
REMARK    1  A    between atoms: C_1  and  C_2
REMARK    2  A    between atoms: C_2  and  S_3
REMARK    3  A    between atoms: C_2  and  C_22
REMARK    4  A    between atoms: S_3  and  C_4
REMARK    5  A    between atoms: C_7  and  C_8
REMARK    6  A    between atoms: N_14  and  C_15
REMARK    7  A    between atoms: C_15  and  C_16
REMARK    8  A    between atoms: C_34  and  C_35
REMARK    9  A    between atoms: C_34  and  C_36
REMARK                            x       y       z     vdW  Elec       q    Type
REMARK                         _______ _______ _______ _____ _____    ______ ____
ROOT
ATOM      1  S   UNL     1       0.542   9.241  20.149  0.00  0.00    +0.000 S 
ENDROOT
BRANCH   1   2
ATOM      2  C   UNL     1       0.873  10.943  20.341  0.00  0.00    +0.000 A 
ATOM      3  N   UNL     1       1.502  11.486  21.353  0.00  0.00    +0.000 NA
ATOM      4  N   UNL     1       1.349  12.850  21.255  0.00  0.00    +0.000 NA
ATOM      5  C   UNL     1       0.604  13.141  20.197  0.00  0.00    +0.000 A 
ATOM      6  N   UNL     1       0.347  11.941  19.542  0.00  0.00    +0.000 N 
BRANCH   5   7
ATOM      7  C   UNL     1       0.222  14.521  19.819  0.00  0.00    +0.000 A 
ATOM      8  C   UNL     1      -0.972  15.049  20.323  0.00  0.00    +0.000 A 
ATOM      9  C   UNL     1      -1.358  16.331  19.960  0.00  0.00    +0.000 A 
ATOM     10  N   UNL     1      -0.639  17.127  19.147  0.00  0.00    +0.000 NA
ATOM     11  C   UNL     1       0.493  16.597  18.640  0.00  0.00    +0.000 A 
ATOM     12  C   UNL     1       0.947  15.320  18.932  0.00  0.00    +0.000 A 
ENDBRANCH   5   7
BRANCH   6  13
ATOM     13  C   UNL     1      -0.132  11.777  18.178  0.00  0.00    +0.000 C 
BRANCH  13  14
ATOM     14  C   UNL     1      -1.578  11.363  18.069  0.00  0.00    +0.000 A 
ATOM     15  C   UNL     1      -1.906  10.256  17.261  0.00  0.00    +0.000 A 
ATOM     16  C   UNL     1      -3.232   9.855  17.108  0.00  0.00    +0.000 A 
ATOM     17  C   UNL     1      -4.243  10.544  17.771  0.00  0.00    +0.000 A 
ATOM     18  C   UNL     1      -3.937  11.615  18.597  0.00  0.00    +0.000 A 
ATOM     19  C   UNL     1      -2.611  12.023  18.751  0.00  0.00    +0.000 A 
ENDBRANCH  13  14
ENDBRANCH   6  13
ENDBRANCH   1   2
BRANCH   1  21
ATOM     20  C   UNL     1       1.596   8.661  17.773  0.00  0.00    +0.000 C 
ATOM     21  C   UNL     1       1.993   8.549  19.267  0.00  0.00    +0.000 C 
BRANCH  21  22
ATOM     22  C   UNL     1       2.188   7.023  19.575  0.00  0.00    +0.000 C 
ATOM     23  O   UNL     1       1.832   6.621  20.694  0.00  0.00    +0.000 OA
ATOM     24  N   UNL     1       2.569   6.087  18.543  0.00  0.00    +0.000 N 
ATOM     25  C   UNL     1       2.185   4.694  18.907  0.00  0.00    +0.000 A 
ATOM     26  C   UNL     1       1.403   3.849  18.118  0.00  0.00    +0.000 A 
ATOM     27  C   UNL     1       1.175   2.521  18.537  0.00  0.00    +0.000 A 
ATOM     28  C   UNL     1       1.629   2.073  19.782  0.00  0.00    +0.000 A 
ATOM     29  C   UNL     1       2.484   2.878  20.523  0.00  0.00    +0.000 A 
ATOM     30  C   UNL     1       2.866   4.098  19.975  0.00  0.00    +0.000 A 
ATOM     31  N   UNL     1       4.114   4.622  20.305  0.00  0.00    +0.000 N 
ATOM     32  C   UNL     1       4.811   5.412  19.405  0.00  0.00    +0.000 C 
ATOM     33  O   UNL     1       6.025   5.522  19.553  0.00  0.00    +0.000 OA
ATOM     34  C   UNL     1       4.040   5.990  18.143  0.00  0.00    +0.000 C 
ATOM     35  C   UNL     1       4.098   5.108  16.845  0.00  0.00    +0.000 C 
ATOM     36  C   UNL     1       4.850   7.238  17.750  0.00  0.00    +0.000 C 
ATOM     37  H   UNL     1       4.655   4.211  21.053  0.00  0.00    +0.000 HD
ENDBRANCH  21  22
ENDBRANCH   1  21
TORSDOF 6
ENDMDL
MODEL 4
REMARK VINA RESULT:      -8.7      0.909      1.000
REMARK  Name = 
REMARK  9 active torsions:
REMARK  status: ('A' for Active; 'I' for Inactive)
REMARK    1  A    between atoms: C_1  and  C_2
REMARK    2  A    between atoms: C_2  and  S_3
REMARK    3  A    between atoms: C_2  and  C_22
REMARK    4  A    between atoms: S_3  and  C_4
REMARK    5  A    between atoms: C_7  and  C_8
REMARK    6  A    between atoms: N_14  and  C_15
REMARK    7  A    between atoms: C_15  and  C_16
REMARK    8  A    between atoms: C_34  and  C_35
REMARK    9  A    between atoms: C_34  and  C_36
REMARK                            x       y       z     vdW  Elec       q    Type
REMARK                         _______ _______ _______ _____ _____    ______ ____
ROOT
ATOM      1  S   UNL     1       0.532   9.221  20.181  0.00  0.00    +0.000 S 
ENDROOT
BRANCH   1   2
ATOM      2  C   UNL     1       0.865  10.924  20.370  0.00  0.00    +0.000 A 
ATOM      3  N   UNL     1       1.469  11.471  21.395  0.00  0.00    +0.000 NA
ATOM      4  N   UNL     1       1.325  12.835  21.282  0.00  0.00    +0.000 NA
ATOM      5  C   UNL     1       0.611  13.121  20.201  0.00  0.00    +0.000 A 
ATOM      6  N   UNL     1       0.367  11.917  19.549  0.00  0.00    +0.000 N 
BRANCH   5   7
ATOM      7  C   UNL     1       0.246  14.500  19.803  0.00  0.00    +0.000 A 
ATOM      8  C   UNL     1       1.160  15.246  19.050  0.00  0.00    +0.000 A 
ATOM      9  C   UNL     1       0.845  16.547  18.688  0.00  0.00    +0.000 A 
ATOM     10  N   UNL     1      -0.314  17.153  19.008  0.00  0.00    +0.000 NA
ATOM     11  C   UNL     1      -1.174  16.438  19.763  0.00  0.00    +0.000 A 
ATOM     12  C   UNL     1      -0.936  15.139  20.186  0.00  0.00    +0.000 A 
ENDBRANCH   5   7
BRANCH   6  13
ATOM     13  C   UNL     1      -0.075  11.745  18.174  0.00  0.00    +0.000 C 
BRANCH  13  14
ATOM     14  C   UNL     1      -1.507  11.293  18.029  0.00  0.00    +0.000 A 
ATOM     15  C   UNL     1      -2.521  12.049  18.653  0.00  0.00    +0.000 A 
ATOM     16  C   UNL     1      -3.855  11.654  18.571  0.00  0.00    +0.000 A 
ATOM     17  C   UNL     1      -4.194  10.510  17.853  0.00  0.00    +0.000 A 
ATOM     18  C   UNL     1      -3.214   9.773  17.206  0.00  0.00    +0.000 A 
ATOM     19  C   UNL     1      -1.876  10.163  17.287  0.00  0.00    +0.000 A 
ENDBRANCH  13  14
ENDBRANCH   6  13
ENDBRANCH   1   2
BRANCH   1  21
ATOM     20  C   UNL     1       1.576   8.648  17.800  0.00  0.00    +0.000 C 
ATOM     21  C   UNL     1       1.976   8.527  19.293  0.00  0.00    +0.000 C 
BRANCH  21  22
ATOM     22  C   UNL     1       2.165   6.998  19.592  0.00  0.00    +0.000 C 
ATOM     23  O   UNL     1       1.808   6.592  20.710  0.00  0.00    +0.000 OA
ATOM     24  N   UNL     1       2.543   6.066  18.556  0.00  0.00    +0.000 N 
ATOM     25  C   UNL     1       2.152   4.673  18.912  0.00  0.00    +0.000 A 
ATOM     26  C   UNL     1       1.367   3.835  18.120  0.00  0.00    +0.000 A 
ATOM     27  C   UNL     1       1.133   2.506  18.531  0.00  0.00    +0.000 A 
ATOM     28  C   UNL     1       1.586   2.050  19.775  0.00  0.00    +0.000 A 
ATOM     29  C   UNL     1       2.444   2.848  20.519  0.00  0.00    +0.000 A 
ATOM     30  C   UNL     1       2.831   4.068  19.978  0.00  0.00    +0.000 A 
ATOM     31  N   UNL     1       4.081   4.586  20.310  0.00  0.00    +0.000 N 
ATOM     32  C   UNL     1       4.782   5.377  19.415  0.00  0.00    +0.000 C 
ATOM     33  O   UNL     1       5.996   5.482  19.563  0.00  0.00    +0.000 OA
ATOM     34  C   UNL     1       4.013   5.964  18.156  0.00  0.00    +0.000 C 
ATOM     35  C   UNL     1       4.067   5.089  16.853  0.00  0.00    +0.000 C 
ATOM     36  C   UNL     1       4.828   7.211  17.768  0.00  0.00    +0.000 C 
ATOM     37  H   UNL     1       4.620   4.168  21.057  0.00  0.00    +0.000 HD
ENDBRANCH  21  22
ENDBRANCH   1  21
TORSDOF 6
ENDMDL
MODEL 5
REMARK VINA RESULT:      -8.6      1.967      2.644
REMARK  Name = 
REMARK  9 active torsions:
REMARK  status: ('A' for Active; 'I' for Inactive)
REMARK    1  A    between atoms: C_1  and  C_2
REMARK    2  A    between atoms: C_2  and  S_3
REMARK    3  A    between atoms: C_2  and  C_22
REMARK    4  A    between atoms: S_3  and  C_4
REMARK    5  A    between atoms: C_7  and  C_8
REMARK    6  A    between atoms: N_14  and  C_15
REMARK    7  A    between atoms: C_15  and  C_16
REMARK    8  A    between atoms: C_34  and  C_35
REMARK    9  A    between atoms: C_34  and  C_36
REMARK                            x       y       z     vdW  Elec       q    Type
REMARK                         _______ _______ _______ _____ _____    ______ ____
ROOT
ATOM      1  S   UNL     1       0.619   9.190  18.799  0.00  0.00    +0.000 S 
ENDROOT
BRANCH   1   2
ATOM      2  C   UNL     1       0.451  10.038  20.314  0.00  0.00    +0.000 A 
ATOM      3  N   UNL     1       0.969   9.663  21.457  0.00  0.00    +0.000 NA
ATOM      4  N   UNL     1       0.416  10.449  22.442  0.00  0.00    +0.000 NA
ATOM      5  C   UNL     1      -0.459  11.289  21.905  0.00  0.00    +0.000 A 
ATOM      6  N   UNL     1      -0.402  11.104  20.527  0.00  0.00    +0.000 N 
BRANCH   5   7
ATOM      7  C   UNL     1      -1.256  12.257  22.693  0.00  0.00    +0.000 A 
ATOM      8  C   UNL     1      -2.530  11.879  23.130  0.00  0.00    +0.000 A 
ATOM      9  C   UNL     1      -3.300  12.781  23.849  0.00  0.00    +0.000 A 
ATOM     10  N   UNL     1      -2.891  14.021  24.176  0.00  0.00    +0.000 NA
ATOM     11  C   UNL     1      -1.674  14.388  23.721  0.00  0.00    +0.000 A 
ATOM     12  C   UNL     1      -0.844  13.561  22.981  0.00  0.00    +0.000 A 
ENDBRANCH   5   7
BRANCH   6  13
ATOM     13  C   UNL     1      -0.914  12.004  19.505  0.00  0.00    +0.000 C 
BRANCH  13  14
ATOM     14  C   UNL     1      -2.335  11.724  19.081  0.00  0.00    +0.000 A 
ATOM     15  C   UNL     1      -2.565  10.745  18.093  0.00  0.00    +0.000 A 
ATOM     16  C   UNL     1      -3.858  10.473  17.650  0.00  0.00    +0.000 A 
ATOM     17  C   UNL     1      -4.936  11.163  18.197  0.00  0.00    +0.000 A 
ATOM     18  C   UNL     1      -4.732  12.106  19.193  0.00  0.00    +0.000 A 
ATOM     19  C   UNL     1      -3.438  12.384  19.639  0.00  0.00    +0.000 A 
ENDBRANCH  13  14
ENDBRANCH   6  13
ENDBRANCH   1   2
BRANCH   1  21
ATOM     20  C   UNL     1       2.709   8.519  17.292  0.00  0.00    +0.000 C 
ATOM     21  C   UNL     1       2.323   8.514  18.793  0.00  0.00    +0.000 C 
BRANCH  21  22
ATOM     22  C   UNL     1       2.360   7.020  19.270  0.00  0.00    +0.000 C 
ATOM     23  O   UNL     1       1.904   6.774  20.398  0.00  0.00    +0.000 OA
ATOM     24  N   UNL     1       2.714   5.948  18.369  0.00  0.00    +0.000 N 
ATOM     25  C   UNL     1       2.183   4.641  18.848  0.00  0.00    +0.000 A 
ATOM     26  C   UNL     1       1.375   3.784  18.100  0.00  0.00    +0.000 A 
ATOM     27  C   UNL     1       1.002   2.534  18.638  0.00  0.00    +0.000 A 
ATOM     28  C   UNL     1       1.340   2.188  19.951  0.00  0.00    +0.000 A 
ATOM     29  C   UNL     1       2.219   2.994  20.660  0.00  0.00    +0.000 A 
ATOM     30  C   UNL     1       2.743   4.110  20.017  0.00  0.00    +0.000 A 
ATOM     31  N   UNL     1       4.012   4.560  20.374  0.00  0.00    +0.000 N 
ATOM     32  C   UNL     1       4.830   5.184  19.447  0.00  0.00    +0.000 C 
ATOM     33  O   UNL     1       6.038   5.207  19.665  0.00  0.00    +0.000 OA
ATOM     34  C   UNL     1       4.191   5.683  18.083  0.00  0.00    +0.000 C 
ATOM     35  C   UNL     1       4.243   4.663  16.890  0.00  0.00    +0.000 C 
ATOM     36  C   UNL     1       5.133   6.808  17.618  0.00  0.00    +0.000 C 
ATOM     37  H   UNL     1       4.468   4.188  21.196  0.00  0.00    +0.000 HD
ENDBRANCH  21  22
ENDBRANCH   1  21
TORSDOF 6
ENDMDL
MODEL 6
REMARK VINA RESULT:      -8.6      2.764      9.378
REMARK  Name = 
REMARK  9 active torsions:
REMARK  status: ('A' for Active; 'I' for Inactive)
REMARK    1  A    between atoms: C_1  and  C_2
REMARK    2  A    between atoms: C_2  and  S_3
REMARK    3  A    between atoms: C_2  and  C_22
REMARK    4  A    between atoms: S_3  and  C_4
REMARK    5  A    between atoms: C_7  and  C_8
REMARK    6  A    between atoms: N_14  and  C_15
REMARK    7  A    between atoms: C_15  and  C_16
REMARK    8  A    between atoms: C_34  and  C_35
REMARK    9  A    between atoms: C_34  and  C_36
REMARK                            x       y       z     vdW  Elec       q    Type
REMARK                         _______ _______ _______ _____ _____    ______ ____
ROOT
ATOM      1  S   UNL     1       0.874   8.158  19.273  0.00  0.00    +0.000 S 
ENDROOT
BRANCH   1   2
ATOM      2  C   UNL     1       2.385   7.993  18.415  0.00  0.00    +0.000 A 
ATOM      3  N   UNL     1       2.819   8.800  17.481  0.00  0.00    +0.000 NA
ATOM      4  N   UNL     1       3.913   8.205  16.892  0.00  0.00    +0.000 NA
ATOM      5  C   UNL     1       4.132   7.023  17.452  0.00  0.00    +0.000 A 
ATOM      6  N   UNL     1       3.214   6.890  18.489  0.00  0.00    +0.000 N 
BRANCH   5   7
ATOM      7  C   UNL     1       5.217   6.107  17.031  0.00  0.00    +0.000 A 
ATOM      8  C   UNL     1       6.338   5.971  17.857  0.00  0.00    +0.000 A 
ATOM      9  C   UNL     1       7.375   5.136  17.468  0.00  0.00    +0.000 A 
ATOM     10  N   UNL     1       7.371   4.419  16.328  0.00  0.00    +0.000 NA
ATOM     11  C   UNL     1       6.301   4.583  15.523  0.00  0.00    +0.000 A 
ATOM     12  C   UNL     1       5.228   5.409  15.821  0.00  0.00    +0.000 A 
ENDBRANCH   5   7
BRANCH   6  13
ATOM     13  C   UNL     1       3.271   5.938  19.587  0.00  0.00    +0.000 C 
BRANCH  13  14
ATOM     14  C   UNL     1       2.455   4.688  19.373  0.00  0.00    +0.000 A 
ATOM     15  C   UNL     1       1.444   4.373  20.304  0.00  0.00    +0.000 A 
ATOM     16  C   UNL     1       0.684   3.213  20.162  0.00  0.00    +0.000 A 
ATOM     17  C   UNL     1       0.913   2.363  19.084  0.00  0.00    +0.000 A 
ATOM     18  C   UNL     1       1.882   2.674  18.141  0.00  0.00    +0.000 A 
ATOM     19  C   UNL     1       2.648   3.832  18.280  0.00  0.00    +0.000 A 
ENDBRANCH  13  14
ENDBRANCH   6  13
ENDBRANCH   1   2
BRANCH   1  21
ATOM     20  C   UNL     1       1.163   9.055  21.764  0.00  0.00    +0.000 C 
ATOM     21  C   UNL     1       1.062   9.641  20.333  0.00  0.00    +0.000 C 
BRANCH  21  22
ATOM     22  C   UNL     1      -0.218  10.547  20.300  0.00  0.00    +0.000 C 
ATOM     23  O   UNL     1      -1.190  10.131  19.648  0.00  0.00    +0.000 OA
ATOM     24  N   UNL     1      -0.344  11.709  21.149  0.00  0.00    +0.000 N 
ATOM     25  C   UNL     1      -1.773  12.083  21.346  0.00  0.00    +0.000 A 
ATOM     26  C   UNL     1      -2.396  12.234  22.584  0.00  0.00    +0.000 A 
ATOM     27  C   UNL     1      -3.736  12.671  22.640  0.00  0.00    +0.000 A 
ATOM     28  C   UNL     1      -4.482  12.851  21.470  0.00  0.00    +0.000 A 
ATOM     29  C   UNL     1      -3.840  12.793  20.240  0.00  0.00    +0.000 A 
ATOM     30  C   UNL     1      -2.467  12.576  20.233  0.00  0.00    +0.000 A 
ATOM     31  N   UNL     1      -1.706  13.111  19.196  0.00  0.00    +0.000 N 
ATOM     32  C   UNL     1      -0.391  13.493  19.405  0.00  0.00    +0.000 C 
ATOM     33  O   UNL     1       0.109  14.297  18.623  0.00  0.00    +0.000 OA
ATOM     34  C   UNL     1       0.341  13.007  20.728  0.00  0.00    +0.000 C 
ATOM     35  C   UNL     1       0.252  13.983  21.955  0.00  0.00    +0.000 C 
ATOM     36  C   UNL     1       1.836  13.046  20.364  0.00  0.00    +0.000 C 
ATOM     37  H   UNL     1      -2.162  13.501  18.382  0.00  0.00    +0.000 HD
ENDBRANCH  21  22
ENDBRANCH   1  21
TORSDOF 6
ENDMDL
MODEL 7
REMARK VINA RESULT:      -8.5      2.337      3.779
REMARK  Name = 
REMARK  9 active torsions:
REMARK  status: ('A' for Active; 'I' for Inactive)
REMARK    1  A    between atoms: C_1  and  C_2
REMARK    2  A    between atoms: C_2  and  S_3
REMARK    3  A    between atoms: C_2  and  C_22
REMARK    4  A    between atoms: S_3  and  C_4
REMARK    5  A    between atoms: C_7  and  C_8
REMARK    6  A    between atoms: N_14  and  C_15
REMARK    7  A    between atoms: C_15  and  C_16
REMARK    8  A    between atoms: C_34  and  C_35
REMARK    9  A    between atoms: C_34  and  C_36
REMARK                            x       y       z     vdW  Elec       q    Type
REMARK                         _______ _______ _______ _____ _____    ______ ____
ROOT
ATOM      1  S   UNL     1       1.345   9.307  19.523  0.00  0.00    +0.000 S 
ENDROOT
BRANCH   1   2
ATOM      2  C   UNL     1       0.776  10.168  20.930  0.00  0.00    +0.000 A 
ATOM      3  N   UNL     1       1.069   9.873  22.171  0.00  0.00    +0.000 NA
ATOM      4  N   UNL     1       0.245  10.620  22.982  0.00  0.00    +0.000 NA
ATOM      5  C   UNL     1      -0.569  11.356  22.236  0.00  0.00    +0.000 A 
ATOM      6  N   UNL     1      -0.199  11.147  20.910  0.00  0.00    +0.000 N 
BRANCH   5   7
ATOM      7  C   UNL     1      -1.604  12.255  22.794  0.00  0.00    +0.000 A 
ATOM      8  C   UNL     1      -1.306  13.614  22.938  0.00  0.00    +0.000 A 
ATOM      9  C   UNL     1      -2.254  14.467  23.482  0.00  0.00    +0.000 A 
ATOM     10  N   UNL     1      -3.478  14.070  23.879  0.00  0.00    +0.000 NA
ATOM     11  C   UNL     1      -3.744  12.752  23.768  0.00  0.00    +0.000 A 
ATOM     12  C   UNL     1      -2.851  11.824  23.254  0.00  0.00    +0.000 A 
ENDBRANCH   5   7
BRANCH   6  13
ATOM     13  C   UNL     1      -0.562  11.967  19.765  0.00  0.00    +0.000 C 
BRANCH  13  14
ATOM     14  C   UNL     1      -1.825  11.536  19.062  0.00  0.00    +0.000 A 
ATOM     15  C   UNL     1      -1.758  10.465  18.148  0.00  0.00    +0.000 A 
ATOM     16  C   UNL     1      -2.894  10.051  17.454  0.00  0.00    +0.000 A 
ATOM     17  C   UNL     1      -4.111  10.690  17.676  0.00  0.00    +0.000 A 
ATOM     18  C   UNL     1      -4.202  11.723  18.596  0.00  0.00    +0.000 A 
ATOM     19  C   UNL     1      -3.067  12.144  19.291  0.00  0.00    +0.000 A 
ENDBRANCH  13  14
ENDBRANCH   6  13
ENDBRANCH   1   2
BRANCH   1  21
ATOM     20  C   UNL     1       2.047   7.565  21.410  0.00  0.00    +0.000 C 
ATOM     21  C   UNL     1       1.393   7.540  20.006  0.00  0.00    +0.000 C 
BRANCH  21  22
ATOM     22  C   UNL     1       2.342   6.706  19.075  0.00  0.00    +0.000 C 
ATOM     23  O   UNL     1       2.583   7.172  17.949  0.00  0.00    +0.000 OA
ATOM     24  N   UNL     1       3.067   5.560  19.568  0.00  0.00    +0.000 N 
ATOM     25  C   UNL     1       4.258   5.266  18.721  0.00  0.00    +0.000 A 
ATOM     26  C   UNL     1       5.567   5.158  19.192  0.00  0.00    +0.000 A 
ATOM     27  C   UNL     1       6.599   4.797  18.301  0.00  0.00    +0.000 A 
ATOM     28  C   UNL     1       6.347   4.652  16.932  0.00  0.00    +0.000 A 
ATOM     29  C   UNL     1       5.036   4.666  16.478  0.00  0.00    +0.000 A 
ATOM     30  C   UNL     1       4.023   4.806  17.420  0.00  0.00    +0.000 A 
ATOM     31  N   UNL     1       2.782   4.222  17.167  0.00  0.00    +0.000 N 
ATOM     32  C   UNL     1       1.987   3.769  18.206  0.00  0.00    +0.000 C 
ATOM     33  O   UNL     1       1.124   2.934  17.952  0.00  0.00    +0.000 OA
ATOM     34  C   UNL     1       2.340   4.222  19.687  0.00  0.00    +0.000 C 
ATOM     35  C   UNL     1       3.289   3.261  20.487  0.00  0.00    +0.000 C 
ATOM     36  C   UNL     1       1.005   4.098  20.443  0.00  0.00    +0.000 C 
ATOM     37  H   UNL     1       2.574   3.854  16.249  0.00  0.00    +0.000 HD
ENDBRANCH  21  22
ENDBRANCH   1  21
TORSDOF 6
ENDMDL
MODEL 8
REMARK VINA RESULT:      -8.5      2.253      3.715
REMARK  Name = 
REMARK  9 active torsions:
REMARK  status: ('A' for Active; 'I' for Inactive)
REMARK    1  A    between atoms: C_1  and  C_2
REMARK    2  A    between atoms: C_2  and  S_3
REMARK    3  A    between atoms: C_2  and  C_22
REMARK    4  A    between atoms: S_3  and  C_4
REMARK    5  A    between atoms: C_7  and  C_8
REMARK    6  A    between atoms: N_14  and  C_15
REMARK    7  A    between atoms: C_15  and  C_16
REMARK    8  A    between atoms: C_34  and  C_35
REMARK    9  A    between atoms: C_34  and  C_36
REMARK                            x       y       z     vdW  Elec       q    Type
REMARK                         _______ _______ _______ _____ _____    ______ ____
ROOT
ATOM      1  S   UNL     1       1.724   9.247  17.515  0.00  0.00    +0.000 S 
ENDROOT
BRANCH   1   2
ATOM      2  C   UNL     1       1.093  10.480  18.577  0.00  0.00    +0.000 A 
ATOM      3  N   UNL     1       1.740  11.550  18.967  0.00  0.00    +0.000 NA
ATOM      4  N   UNL     1       1.005  12.136  19.972  0.00  0.00    +0.000 NA
ATOM      5  C   UNL     1      -0.080  11.412  20.214  0.00  0.00    +0.000 A 
ATOM      6  N   UNL     1      -0.093  10.381  19.278  0.00  0.00    +0.000 N 
BRANCH   5   7
ATOM      7  C   UNL     1      -1.073  11.748  21.259  0.00  0.00    +0.000 A 
ATOM      8  C   UNL     1      -1.026  11.059  22.476  0.00  0.00    +0.000 A 
ATOM      9  C   UNL     1      -1.964  11.343  23.458  0.00  0.00    +0.000 A 
ATOM     10  N   UNL     1      -2.932  12.269  23.323  0.00  0.00    +0.000 NA
ATOM     11  C   UNL     1      -2.989  12.904  22.133  0.00  0.00    +0.000 A 
ATOM     12  C   UNL     1      -2.107  12.672  21.089  0.00  0.00    +0.000 A 
ENDBRANCH   5   7
BRANCH   6  13
ATOM     13  C   UNL     1      -1.225   9.540  18.925  0.00  0.00    +0.000 C 
BRANCH  13  14
ATOM     14  C   UNL     1      -2.143  10.133  17.885  0.00  0.00    +0.000 A 
ATOM     15  C   UNL     1      -1.948   9.784  16.533  0.00  0.00    +0.000 A 
ATOM     16  C   UNL     1      -2.754  10.329  15.535  0.00  0.00    +0.000 A 
ATOM     17  C   UNL     1      -3.772  11.215  15.875  0.00  0.00    +0.000 A 
ATOM     18  C   UNL     1      -4.000  11.544  17.203  0.00  0.00    +0.000 A 
ATOM     19  C   UNL     1      -3.194  11.004  18.206  0.00  0.00    +0.000 A 
ENDBRANCH  13  14
ENDBRANCH   6  13
ENDBRANCH   1   2
BRANCH   1  21
ATOM     20  C   UNL     1       2.264   8.295  19.942  0.00  0.00    +0.000 C 
ATOM     21  C   UNL     1       1.887   7.740  18.545  0.00  0.00    +0.000 C 
BRANCH  21  22
ATOM     22  C   UNL     1       3.082   6.838  18.074  0.00  0.00    +0.000 C 
ATOM     23  O   UNL     1       3.669   7.175  17.033  0.00  0.00    +0.000 OA
ATOM     24  N   UNL     1       3.610   5.787  18.911  0.00  0.00    +0.000 N 
ATOM     25  C   UNL     1       5.008   5.441  18.527  0.00  0.00    +0.000 A 
ATOM     26  C   UNL     1       6.099   5.441  19.397  0.00  0.00    +0.000 A 
ATOM     27  C   UNL     1       7.361   5.015  18.930  0.00  0.00    +0.000 A 
ATOM     28  C   UNL     1       7.557   4.698  17.581  0.00  0.00    +0.000 A 
ATOM     29  C   UNL     1       6.458   4.608  16.738  0.00  0.00    +0.000 A 
ATOM     30  C   UNL     1       5.198   4.820  17.287  0.00  0.00    +0.000 A 
ATOM     31  N   UNL     1       4.102   4.163  16.731  0.00  0.00    +0.000 N 
ATOM     32  C   UNL     1       3.017   3.807  17.514  0.00  0.00    +0.000 C 
ATOM     33  O   UNL     1       2.278   2.915  17.107  0.00  0.00    +0.000 OA
ATOM     34  C   UNL     1       2.881   4.446  18.961  0.00  0.00    +0.000 C 
ATOM     35  C   UNL     1       3.525   3.625  20.134  0.00  0.00    +0.000 C 
ATOM     36  C   UNL     1       1.375   4.363  19.266  0.00  0.00    +0.000 C 
ATOM     37  H   UNL     1       4.196   3.679  15.848  0.00  0.00    +0.000 HD
ENDBRANCH  21  22
ENDBRANCH   1  21
TORSDOF 6
ENDMDL
MODEL 9
REMARK VINA RESULT:      -8.4      0.642      1.197
REMARK  Name = 
REMARK  9 active torsions:
REMARK  status: ('A' for Active; 'I' for Inactive)
REMARK    1  A    between atoms: C_1  and  C_2
REMARK    2  A    between atoms: C_2  and  S_3
REMARK    3  A    between atoms: C_2  and  C_22
REMARK    4  A    between atoms: S_3  and  C_4
REMARK    5  A    between atoms: C_7  and  C_8
REMARK    6  A    between atoms: N_14  and  C_15
REMARK    7  A    between atoms: C_15  and  C_16
REMARK    8  A    between atoms: C_34  and  C_35
REMARK    9  A    between atoms: C_34  and  C_36
REMARK                            x       y       z     vdW  Elec       q    Type
REMARK                         _______ _______ _______ _____ _____    ______ ____
ROOT
ATOM      1  S   UNL     1       0.935   9.557  19.901  0.00  0.00    +0.000 S 
ENDROOT
BRANCH   1   2
ATOM      2  C   UNL     1       1.040  11.215  19.367  0.00  0.00    +0.000 A 
ATOM      3  N   UNL     1       2.050  11.743  18.724  0.00  0.00    +0.000 NA
ATOM      4  N   UNL     1       1.860  13.106  18.699  0.00  0.00    +0.000 NA
ATOM      5  C   UNL     1       0.745  13.414  19.348  0.00  0.00    +0.000 A 
ATOM      6  N   UNL     1       0.152  12.212  19.723  0.00  0.00    +0.000 N 
BRANCH   5   7
ATOM      7  C   UNL     1       0.261  14.801  19.534  0.00  0.00    +0.000 A 
ATOM      8  C   UNL     1       0.289  15.355  20.818  0.00  0.00    +0.000 A 
ATOM      9  C   UNL     1      -0.182  16.645  21.016  0.00  0.00    +0.000 A 
ATOM     10  N   UNL     1      -0.664  17.424  20.029  0.00  0.00    +0.000 NA
ATOM     11  C   UNL     1      -0.718  16.869  18.801  0.00  0.00    +0.000 A 
ATOM     12  C   UNL     1      -0.288  15.583  18.514  0.00  0.00    +0.000 A 
ENDBRANCH   5   7
BRANCH   6  13
ATOM     13  C   UNL     1      -1.224  12.016  20.152  0.00  0.00    +0.000 C 
BRANCH  13  14
ATOM     14  C   UNL     1      -2.199  11.765  19.029  0.00  0.00    +0.000 A 
ATOM     15  C   UNL     1      -1.708  11.266  17.805  0.00  0.00    +0.000 A 
ATOM     16  C   UNL     1      -2.568  11.047  16.731  0.00  0.00    +0.000 A 
ATOM     17  C   UNL     1      -3.929  11.307  16.869  0.00  0.00    +0.000 A 
ATOM     18  C   UNL     1      -4.434  11.767  18.076  0.00  0.00    +0.000 A 
ATOM     19  C   UNL     1      -3.577  11.992  19.155  0.00  0.00    +0.000 A 
ENDBRANCH  13  14
ENDBRANCH   6  13
ENDBRANCH   1   2
BRANCH   1  21
ATOM     20  C   UNL     1       1.463   8.628  17.462  0.00  0.00    +0.000 C 
ATOM     21  C   UNL     1       2.123   8.624  18.863  0.00  0.00    +0.000 C 
BRANCH  21  22
ATOM     22  C   UNL     1       2.236   7.124  19.311  0.00  0.00    +0.000 C 
ATOM     23  O   UNL     1       1.833   6.842  20.451  0.00  0.00    +0.000 OA
ATOM     24  N   UNL     1       2.596   6.083  18.378  0.00  0.00    +0.000 N 
ATOM     25  C   UNL     1       2.134   4.748  18.852  0.00  0.00    +0.000 A 
ATOM     26  C   UNL     1       1.332   3.873  18.120  0.00  0.00    +0.000 A 
ATOM     27  C   UNL     1       1.028   2.600  18.648  0.00  0.00    +0.000 A 
ATOM     28  C   UNL     1       1.429   2.245  19.941  0.00  0.00    +0.000 A 
ATOM     29  C   UNL     1       2.303   3.073  20.631  0.00  0.00    +0.000 A 
ATOM     30  C   UNL     1       2.758   4.219  19.989  0.00  0.00    +0.000 A 
ATOM     31  N   UNL     1       4.023   4.712  20.306  0.00  0.00    +0.000 N 
ATOM     32  C   UNL     1       4.780   5.383  19.361  0.00  0.00    +0.000 C 
ATOM     33  O   UNL     1       5.994   5.449  19.534  0.00  0.00    +0.000 OA
ATOM     34  C   UNL     1       4.070   5.880  18.031  0.00  0.00    +0.000 C 
ATOM     35  C   UNL     1       4.115   4.884  16.819  0.00  0.00    +0.000 C 
ATOM     36  C   UNL     1       4.949   7.048  17.552  0.00  0.00    +0.000 C 
ATOM     37  H   UNL     1       4.524   4.344  21.104  0.00  0.00    +0.000 HD
ENDBRANCH  21  22
ENDBRANCH   1  21
TORSDOF 6
ENDMDL
