MODEL 1
REMARK VINA RESULT:      -8.3      0.000      0.000
REMARK  Name = 
REMARK  6 active torsions:
REMARK  status: ('A' for Active; 'I' for Inactive)
REMARK    1  A    between atoms: C_2  and  C_15
REMARK    2  A    between atoms: N_3  and  C_4
REMARK    3  A    between atoms: C_7  and  N_8
REMARK    4  A    between atoms: C_20  and  S_21
REMARK    5  A    between atoms: S_21  and  N_24
REMARK    6  A    between atoms: N_24  and  C_25
REMARK                            x       y       z     vdW  Elec       q    Type
REMARK                         _______ _______ _______ _____ _____    ______ ____
ROOT
ATOM      1  O   UNL     1       2.334   9.260  17.837  0.00  0.00    +0.000 OA
ATOM      2  C   UNL     1       2.356   8.239  18.515  0.00  0.00    +0.000 C 
ATOM      3  N   UNL     1       1.788   8.061  19.765  0.00  0.00    +0.000 N 
ATOM      4  H   UNL     1       2.054   7.238  20.293  0.00  0.00    +0.000 HD
ENDROOT
BRANCH   2   5
ATOM      5  C   UNL     1       3.116   7.081  17.977  0.00  0.00    +0.000 A 
ATOM      6  C   UNL     1       4.243   7.329  17.188  0.00  0.00    +0.000 A 
ATOM      7  C   UNL     1       4.954   6.269  16.622  0.00  0.00    +0.000 A 
ATOM      8  C   UNL     1       4.550   4.944  16.837  0.00  0.00    +0.000 A 
ATOM      9 CL   UNL     1       5.479   3.716  16.061  0.00  0.00    +0.000 Cl
ATOM     10  C   UNL     1       3.427   4.695  17.630  0.00  0.00    +0.000 A 
ATOM     11  C   UNL     1       2.704   5.764  18.194  0.00  0.00    +0.000 A 
BRANCH  10  12
ATOM     12  S   UNL     1       2.892   3.056  18.026  0.00  0.00    +0.000 S 
ATOM     13  O   UNL     1       2.205   2.521  16.870  0.00  0.00    +0.000 OA
ATOM     14  O   UNL     1       4.025   2.346  18.585  0.00  0.00    +0.000 OA
BRANCH  12  15
ATOM     15  N   UNL     1       1.763   3.255  19.251  0.00  0.00    +0.000 NA
ATOM     16  H   UNL     1       0.851   3.545  18.898  0.00  0.00    +0.000 HD
BRANCH  15  17
ATOM     17  C   UNL     1       1.822   2.385  20.418  0.00  0.00    +0.000 C 
ATOM     18  C   UNL     1       1.141   2.784  21.698  0.00  0.00    +0.000 C 
ATOM     19  C   UNL     1       2.637   2.801  21.611  0.00  0.00    +0.000 C 
ENDBRANCH  15  17
ENDBRANCH  12  15
ENDBRANCH  10  12
ENDBRANCH   2   5
BRANCH   3  20
ATOM     20  C   UNL     1       1.009   9.015  20.459  0.00  0.00    +0.000 A 
ATOM     21  C   UNL     1       0.235   9.980  19.812  0.00  0.00    +0.000 A 
ATOM     22  C   UNL     1      -0.488  10.930  20.541  0.00  0.00    +0.000 A 
ATOM     23  C   UNL     1      -0.440  10.926  21.937  0.00  0.00    +0.000 A 
ATOM     24  C   UNL     1       0.310   9.943  22.595  0.00  0.00    +0.000 A 
ATOM     25  C   UNL     1       1.019   8.985  21.857  0.00  0.00    +0.000 A 
BRANCH  23  26
ATOM     26  N   UNL     1      -1.129  11.910  22.685  0.00  0.00    +0.000 N 
ATOM     27  C   UNL     1      -2.443  11.940  23.084  0.00  0.00    +0.000 A 
ATOM     28  N   UNL     1      -2.674  13.055  23.738  0.00  0.00    +0.000 NA
ATOM     29  N   UNL     1      -1.483  13.730  23.751  0.00  0.00    +0.000 NA
ATOM     30  N   UNL     1      -0.538  13.045  23.124  0.00  0.00    +0.000 NA
ENDBRANCH  23  26
ENDBRANCH   3  20
TORSDOF 6
ENDMDL
MODEL 2
REMARK VINA RESULT:      -8.2      1.549      2.186
REMARK  Name = 
REMARK  6 active torsions:
REMARK  status: ('A' for Active; 'I' for Inactive)
REMARK    1  A    between atoms: C_2  and  C_15
REMARK    2  A    between atoms: N_3  and  C_4
REMARK    3  A    between atoms: C_7  and  N_8
REMARK    4  A    between atoms: C_20  and  S_21
REMARK    5  A    between atoms: S_21  and  N_24
REMARK    6  A    between atoms: N_24  and  C_25
REMARK                            x       y       z     vdW  Elec       q    Type
REMARK                         _______ _______ _______ _____ _____    ______ ____
ROOT
ATOM      1  O   UNL     1       0.726   7.251  21.140  0.00  0.00    +0.000 OA
ATOM      2  C   UNL     1       1.273   8.014  20.353  0.00  0.00    +0.000 C 
ATOM      3  N   UNL     1       1.054   9.376  20.231  0.00  0.00    +0.000 N 
ATOM      4  H   UNL     1       1.423   9.842  19.410  0.00  0.00    +0.000 HD
ENDROOT
BRANCH   2   5
ATOM      5  C   UNL     1       2.233   7.422  19.386  0.00  0.00    +0.000 A 
ATOM      6  C   UNL     1       2.611   8.177  18.272  0.00  0.00    +0.000 A 
ATOM      7  C   UNL     1       3.471   7.637  17.313  0.00  0.00    +0.000 A 
ATOM      8  C   UNL     1       3.967   6.333  17.454  0.00  0.00    +0.000 A 
ATOM      9 CL   UNL     1       4.992   5.755  16.195  0.00  0.00    +0.000 Cl
ATOM     10  C   UNL     1       3.594   5.581  18.570  0.00  0.00    +0.000 A 
ATOM     11  C   UNL     1       2.720   6.121  19.533  0.00  0.00    +0.000 A 
BRANCH  10  12
ATOM     12  S   UNL     1       4.236   3.960  18.876  0.00  0.00    +0.000 S 
ATOM     13  O   UNL     1       3.729   3.080  17.846  0.00  0.00    +0.000 OA
ATOM     14  O   UNL     1       5.665   4.084  19.083  0.00  0.00    +0.000 OA
BRANCH  12  15
ATOM     15  N   UNL     1       3.550   3.494  20.336  0.00  0.00    +0.000 NA
ATOM     16  H   UNL     1       3.576   4.237  21.034  0.00  0.00    +0.000 HD
BRANCH  15  17
ATOM     17  C   UNL     1       2.420   2.575  20.326  0.00  0.00    +0.000 C 
ATOM     18  C   UNL     1       1.012   3.103  20.329  0.00  0.00    +0.000 C 
ATOM     19  C   UNL     1       1.564   2.441  21.555  0.00  0.00    +0.000 C 
ENDBRANCH  15  17
ENDBRANCH  12  15
ENDBRANCH  10  12
ENDBRANCH   2   5
BRANCH   3  20
ATOM     20  C   UNL     1       0.203  10.150  21.051  0.00  0.00    +0.000 A 
ATOM     21  C   UNL     1       0.037   9.909  22.416  0.00  0.00    +0.000 A 
ATOM     22  C   UNL     1      -0.849  10.677  23.180  0.00  0.00    +0.000 A 
ATOM     23  C   UNL     1      -1.586  11.700  22.580  0.00  0.00    +0.000 A 
ATOM     24  C   UNL     1      -1.403  11.969  21.217  0.00  0.00    +0.000 A 
ATOM     25  C   UNL     1      -0.502  11.204  20.462  0.00  0.00    +0.000 A 
BRANCH  23  26
ATOM     26  N   UNL     1      -2.519  12.453  23.331  0.00  0.00    +0.000 N 
ATOM     27  C   UNL     1      -2.519  13.794  23.628  0.00  0.00    +0.000 A 
ATOM     28  N   UNL     1      -3.560  14.074  24.377  0.00  0.00    +0.000 NA
ATOM     29  N   UNL     1      -4.224  12.888  24.547  0.00  0.00    +0.000 NA
ATOM     30  N   UNL     1      -3.608  11.901  23.912  0.00  0.00    +0.000 NA
ENDBRANCH  23  26
ENDBRANCH   3  20
TORSDOF 6
ENDMDL
MODEL 3
REMARK VINA RESULT:      -8.1      0.587      1.194
REMARK  Name = 
REMARK  6 active torsions:
REMARK  status: ('A' for Active; 'I' for Inactive)
REMARK    1  A    between atoms: C_2  and  C_15
REMARK    2  A    between atoms: N_3  and  C_4
REMARK    3  A    between atoms: C_7  and  N_8
REMARK    4  A    between atoms: C_20  and  S_21
REMARK    5  A    between atoms: S_21  and  N_24
REMARK    6  A    between atoms: N_24  and  C_25
REMARK                            x       y       z     vdW  Elec       q    Type
REMARK                         _______ _______ _______ _____ _____    ______ ____
ROOT
ATOM      1  O   UNL     1       1.851   9.107  17.891  0.00  0.00    +0.000 OA
ATOM      2  C   UNL     1       2.143   8.184  18.642  0.00  0.00    +0.000 C 
ATOM      3  N   UNL     1       1.840   8.085  19.990  0.00  0.00    +0.000 N 
ATOM      4  H   UNL     1       2.314   7.370  20.529  0.00  0.00    +0.000 HD
ENDROOT
BRANCH   2   5
ATOM      5  C   UNL     1       2.954   7.076  18.076  0.00  0.00    +0.000 A 
ATOM      6  C   UNL     1       4.092   7.395  17.329  0.00  0.00    +0.000 A 
ATOM      7  C   UNL     1       4.853   6.384  16.738  0.00  0.00    +0.000 A 
ATOM      8  C   UNL     1       4.487   5.039  16.884  0.00  0.00    +0.000 A 
ATOM      9 CL   UNL     1       5.476   3.877  16.081  0.00  0.00    +0.000 Cl
ATOM     10  C   UNL     1       3.354   4.720  17.634  0.00  0.00    +0.000 A 
ATOM     11  C   UNL     1       2.581   5.738  18.225  0.00  0.00    +0.000 A 
BRANCH  10  12
ATOM     12  S   UNL     1       2.864   3.048  17.944  0.00  0.00    +0.000 S 
ATOM     13  O   UNL     1       2.112   2.585  16.798  0.00  0.00    +0.000 OA
ATOM     14  O   UNL     1       4.038   2.319  18.382  0.00  0.00    +0.000 OA
BRANCH  12  15
ATOM     15  N   UNL     1       1.810   3.142  19.248  0.00  0.00    +0.000 NA
ATOM     16  H   UNL     1       0.852   2.903  18.993  0.00  0.00    +0.000 HD
BRANCH  15  17
ATOM     17  C   UNL     1       2.294   2.793  20.576  0.00  0.00    +0.000 C 
ATOM     18  C   UNL     1       1.331   2.656  21.723  0.00  0.00    +0.000 C 
ATOM     19  C   UNL     1       2.269   3.825  21.669  0.00  0.00    +0.000 C 
ENDBRANCH  15  17
ENDBRANCH  12  15
ENDBRANCH  10  12
ENDBRANCH   2   5
BRANCH   3  20
ATOM     20  C   UNL     1       1.068   9.007  20.731  0.00  0.00    +0.000 A 
ATOM     21  C   UNL     1       0.794   8.851  22.091  0.00  0.00    +0.000 A 
ATOM     22  C   UNL     1      -0.009   9.770  22.774  0.00  0.00    +0.000 A 
ATOM     23  C   UNL     1      -0.555  10.862  22.096  0.00  0.00    +0.000 A 
ATOM     24  C   UNL     1      -0.261  11.044  20.738  0.00  0.00    +0.000 A 
ATOM     25  C   UNL     1       0.558  10.126  20.065  0.00  0.00    +0.000 A 
BRANCH  23  26
ATOM     26  N   UNL     1      -1.407  11.773  22.764  0.00  0.00    +0.000 N 
ATOM     27  C   UNL     1      -1.236  13.115  22.997  0.00  0.00    +0.000 A 
ATOM     28  N   UNL     1      -2.260  13.573  23.680  0.00  0.00    +0.000 NA
ATOM     29  N   UNL     1      -3.086  12.498  23.873  0.00  0.00    +0.000 NA
ATOM     30  N   UNL     1      -2.586  11.405  23.316  0.00  0.00    +0.000 NA
ENDBRANCH  23  26
ENDBRANCH   3  20
TORSDOF 6
ENDMDL
MODEL 4
REMARK VINA RESULT:      -8.0      1.470      1.769
REMARK  Name = 
REMARK  6 active torsions:
REMARK  status: ('A' for Active; 'I' for Inactive)
REMARK    1  A    between atoms: C_2  and  C_15
REMARK    2  A    between atoms: N_3  and  C_4
REMARK    3  A    between atoms: C_7  and  N_8
REMARK    4  A    between atoms: C_20  and  S_21
REMARK    5  A    between atoms: S_21  and  N_24
REMARK    6  A    between atoms: N_24  and  C_25
REMARK                            x       y       z     vdW  Elec       q    Type
REMARK                         _______ _______ _______ _____ _____    ______ ____
ROOT
ATOM      1  O   UNL     1       1.034   7.362  21.230  0.00  0.00    +0.000 OA
ATOM      2  C   UNL     1       1.425   8.039  20.287  0.00  0.00    +0.000 C 
ATOM      3  N   UNL     1       1.042   9.335  19.983  0.00  0.00    +0.000 N 
ATOM      4  H   UNL     1       1.286   9.698  19.069  0.00  0.00    +0.000 HD
ENDROOT
BRANCH   2   5
ATOM      5  C   UNL     1       2.363   7.399  19.330  0.00  0.00    +0.000 A 
ATOM      6  C   UNL     1       2.726   8.102  18.178  0.00  0.00    +0.000 A 
ATOM      7  C   UNL     1       3.566   7.515  17.229  0.00  0.00    +0.000 A 
ATOM      8  C   UNL     1       4.056   6.215  17.418  0.00  0.00    +0.000 A 
ATOM      9 CL   UNL     1       5.055   5.575  16.167  0.00  0.00    +0.000 Cl
ATOM     10  C   UNL     1       3.698   5.514  18.572  0.00  0.00    +0.000 A 
ATOM     11  C   UNL     1       2.844   6.102  19.526  0.00  0.00    +0.000 A 
BRANCH  10  12
ATOM     12  S   UNL     1       4.334   3.904  18.937  0.00  0.00    +0.000 S 
ATOM     13  O   UNL     1       3.875   3.000  17.905  0.00  0.00    +0.000 OA
ATOM     14  O   UNL     1       5.753   4.040  19.200  0.00  0.00    +0.000 OA
BRANCH  12  15
ATOM     15  N   UNL     1       3.591   3.463  20.376  0.00  0.00    +0.000 NA
ATOM     16  H   UNL     1       3.637   4.200  21.081  0.00  0.00    +0.000 HD
BRANCH  15  17
ATOM     17  C   UNL     1       2.418   2.601  20.333  0.00  0.00    +0.000 C 
ATOM     18  C   UNL     1       1.038   3.196  20.342  0.00  0.00    +0.000 C 
ATOM     19  C   UNL     1       1.547   2.474  21.552  0.00  0.00    +0.000 C 
ENDBRANCH  15  17
ENDBRANCH  12  15
ENDBRANCH  10  12
ENDBRANCH   2   5
BRANCH   3  20
ATOM     20  C   UNL     1       0.178  10.141  20.757  0.00  0.00    +0.000 A 
ATOM     21  C   UNL     1      -0.593  11.172  20.213  0.00  0.00    +0.000 A 
ATOM     22  C   UNL     1      -1.404  11.970  21.026  0.00  0.00    +0.000 A 
ATOM     23  C   UNL     1      -1.450  11.748  22.404  0.00  0.00    +0.000 A 
ATOM     24  C   UNL     1      -0.703  10.697  22.955  0.00  0.00    +0.000 A 
ATOM     25  C   UNL     1       0.095   9.892  22.130  0.00  0.00    +0.000 A 
BRANCH  23  26
ATOM     26  N   UNL     1      -2.230  12.578  23.243  0.00  0.00    +0.000 N 
ATOM     27  C   UNL     1      -3.473  12.351  23.781  0.00  0.00    +0.000 A 
ATOM     28  N   UNL     1      -3.842  13.399  24.480  0.00  0.00    +0.000 NA
ATOM     29  N   UNL     1      -2.810  14.294  24.380  0.00  0.00    +0.000 NA
ATOM     30  N   UNL     1      -1.825  13.805  23.641  0.00  0.00    +0.000 NA
ENDBRANCH  23  26
ENDBRANCH   3  20
TORSDOF 6
ENDMDL
MODEL 5
REMARK VINA RESULT:      -8.0      2.429      3.987
REMARK  Name = 
REMARK  6 active torsions:
REMARK  status: ('A' for Active; 'I' for Inactive)
REMARK    1  A    between atoms: C_2  and  C_15
REMARK    2  A    between atoms: N_3  and  C_4
REMARK    3  A    between atoms: C_7  and  N_8
REMARK    4  A    between atoms: C_20  and  S_21
REMARK    5  A    between atoms: S_21  and  N_24
REMARK    6  A    between atoms: N_24  and  C_25
REMARK                            x       y       z     vdW  Elec       q    Type
REMARK                         _______ _______ _______ _____ _____    ______ ____
ROOT
ATOM      1  O   UNL     1       2.034   9.088  18.006  0.00  0.00    +0.000 OA
ATOM      2  C   UNL     1       2.126   8.106  18.734  0.00  0.00    +0.000 C 
ATOM      3  N   UNL     1       1.710   8.009  20.051  0.00  0.00    +0.000 N 
ATOM      4  H   UNL     1       2.029   7.212  20.590  0.00  0.00    +0.000 HD
ENDROOT
BRANCH   2   5
ATOM      5  C   UNL     1       2.802   6.906  18.177  0.00  0.00    +0.000 A 
ATOM      6  C   UNL     1       2.109   5.692  18.170  0.00  0.00    +0.000 A 
ATOM      7  C   UNL     1       2.727   4.531  17.701  0.00  0.00    +0.000 A 
ATOM      8  C   UNL     1       4.047   4.565  17.232  0.00  0.00    +0.000 A 
ATOM      9 CL   UNL     1       4.724   3.067  16.712  0.00  0.00    +0.000 Cl
ATOM     10  C   UNL     1       4.738   5.779  17.234  0.00  0.00    +0.000 A 
ATOM     11  C   UNL     1       4.119   6.950  17.714  0.00  0.00    +0.000 A 
BRANCH  10  12
ATOM     12  S   UNL     1       6.376   5.937  16.584  0.00  0.00    +0.000 S 
ATOM     13  O   UNL     1       6.813   7.299  16.805  0.00  0.00    +0.000 OA
ATOM     14  O   UNL     1       7.162   4.833  17.098  0.00  0.00    +0.000 OA
BRANCH  12  15
ATOM     15  N   UNL     1       6.207   5.713  14.929  0.00  0.00    +0.000 NA
ATOM     16  H   UNL     1       6.190   6.593  14.415  0.00  0.00    +0.000 HD
BRANCH  15  17
ATOM     17  C   UNL     1       6.816   4.545  14.307  0.00  0.00    +0.000 C 
ATOM     18  C   UNL     1       7.166   4.560  12.844  0.00  0.00    +0.000 C 
ATOM     19  C   UNL     1       6.019   3.726  13.330  0.00  0.00    +0.000 C 
ENDBRANCH  15  17
ENDBRANCH  12  15
ENDBRANCH  10  12
ENDBRANCH   2   5
BRANCH   3  20
ATOM     20  C   UNL     1       1.033   9.014  20.777  0.00  0.00    +0.000 A 
ATOM     21  C   UNL     1       0.846   8.960  22.160  0.00  0.00    +0.000 A 
ATOM     22  C   UNL     1       0.132   9.959  22.830  0.00  0.00    +0.000 A 
ATOM     23  C   UNL     1      -0.410  11.030  22.116  0.00  0.00    +0.000 A 
ATOM     24  C   UNL     1      -0.202  11.109  20.732  0.00  0.00    +0.000 A 
ATOM     25  C   UNL     1       0.527  10.111  20.072  0.00  0.00    +0.000 A 
BRANCH  23  26
ATOM     26  N   UNL     1      -1.173  12.023  22.775  0.00  0.00    +0.000 N 
ATOM     27  C   UNL     1      -2.521  12.058  23.032  0.00  0.00    +0.000 A 
ATOM     28  N   UNL     1      -2.819  13.181  23.645  0.00  0.00    +0.000 NA
ATOM     29  N   UNL     1      -1.635  13.856  23.777  0.00  0.00    +0.000 NA
ATOM     30  N   UNL     1      -0.630  13.162  23.263  0.00  0.00    +0.000 NA
ENDBRANCH  23  26
ENDBRANCH   3  20
TORSDOF 6
ENDMDL
MODEL 6
REMARK VINA RESULT:      -8.0      1.022      1.438
REMARK  Name = 
REMARK  6 active torsions:
REMARK  status: ('A' for Active; 'I' for Inactive)
REMARK    1  A    between atoms: C_2  and  C_15
REMARK    2  A    between atoms: N_3  and  C_4
REMARK    3  A    between atoms: C_7  and  N_8
REMARK    4  A    between atoms: C_20  and  S_21
REMARK    5  A    between atoms: S_21  and  N_24
REMARK    6  A    between atoms: N_24  and  C_25
REMARK                            x       y       z     vdW  Elec       q    Type
REMARK                         _______ _______ _______ _____ _____    ______ ____
ROOT
ATOM      1  O   UNL     1       2.011   9.084  17.460  0.00  0.00    +0.000 OA
ATOM      2  C   UNL     1       2.352   8.230  18.271  0.00  0.00    +0.000 C 
ATOM      3  N   UNL     1       1.999   8.171  19.609  0.00  0.00    +0.000 N 
ATOM      4  H   UNL     1       2.512   7.531  20.204  0.00  0.00    +0.000 HD
ENDROOT
BRANCH   2   5
ATOM      5  C   UNL     1       3.285   7.175  17.798  0.00  0.00    +0.000 A 
ATOM      6  C   UNL     1       4.083   7.440  16.681  0.00  0.00    +0.000 A 
ATOM      7  C   UNL     1       4.936   6.458  16.174  0.00  0.00    +0.000 A 
ATOM      8  C   UNL     1       5.004   5.194  16.778  0.00  0.00    +0.000 A 
ATOM      9 CL   UNL     1       6.063   4.045  16.049  0.00  0.00    +0.000 Cl
ATOM     10  C   UNL     1       4.212   4.931  17.897  0.00  0.00    +0.000 A 
ATOM     11  C   UNL     1       3.345   5.919  18.404  0.00  0.00    +0.000 A 
BRANCH  10  12
ATOM     12  S   UNL     1       4.293   3.396  18.775  0.00  0.00    +0.000 S 
ATOM     13  O   UNL     1       3.738   2.367  17.923  0.00  0.00    +0.000 OA
ATOM     14  O   UNL     1       5.639   3.257  19.294  0.00  0.00    +0.000 OA
BRANCH  12  15
ATOM     15  N   UNL     1       3.262   3.594  20.084  0.00  0.00    +0.000 NA
ATOM     16  H   UNL     1       3.118   4.575  20.324  0.00  0.00    +0.000 HD
BRANCH  15  17
ATOM     17  C   UNL     1       2.163   2.655  20.269  0.00  0.00    +0.000 C 
ATOM     18  C   UNL     1       0.738   3.122  20.152  0.00  0.00    +0.000 C 
ATOM     19  C   UNL     1       1.299   2.759  21.494  0.00  0.00    +0.000 C 
ENDBRANCH  15  17
ENDBRANCH  12  15
ENDBRANCH  10  12
ENDBRANCH   2   5
BRANCH   3  20
ATOM     20  C   UNL     1       1.115   9.053  20.267  0.00  0.00    +0.000 A 
ATOM     21  C   UNL     1       0.532   8.765  21.503  0.00  0.00    +0.000 A 
ATOM     22  C   UNL     1      -0.370   9.653  22.098  0.00  0.00    +0.000 A 
ATOM     23  C   UNL     1      -0.705  10.847  21.455  0.00  0.00    +0.000 A 
ATOM     24  C   UNL     1      -0.103  11.158  20.228  0.00  0.00    +0.000 A 
ATOM     25  C   UNL     1       0.812  10.270  19.647  0.00  0.00    +0.000 A 
BRANCH  23  26
ATOM     26  N   UNL     1      -1.652  11.731  22.024  0.00  0.00    +0.000 N 
ATOM     27  C   UNL     1      -2.241  12.845  21.479  0.00  0.00    +0.000 A 
ATOM     28  N   UNL     1      -3.043  13.391  22.365  0.00  0.00    +0.000 NA
ATOM     29  N   UNL     1      -2.955  12.601  23.480  0.00  0.00    +0.000 NA
ATOM     30  N   UNL     1      -2.124  11.588  23.284  0.00  0.00    +0.000 NA
ENDBRANCH  23  26
ENDBRANCH   3  20
TORSDOF 6
ENDMDL
MODEL 7
REMARK VINA RESULT:      -8.0      2.129      3.131
REMARK  Name = 
REMARK  6 active torsions:
REMARK  status: ('A' for Active; 'I' for Inactive)
REMARK    1  A    between atoms: C_2  and  C_15
REMARK    2  A    between atoms: N_3  and  C_4
REMARK    3  A    between atoms: C_7  and  N_8
REMARK    4  A    between atoms: C_20  and  S_21
REMARK    5  A    between atoms: S_21  and  N_24
REMARK    6  A    between atoms: N_24  and  C_25
REMARK                            x       y       z     vdW  Elec       q    Type
REMARK                         _______ _______ _______ _____ _____    ______ ____
ROOT
ATOM      1  O   UNL     1       1.374   7.303  21.384  0.00  0.00    +0.000 OA
ATOM      2  C   UNL     1       1.611   7.961  20.378  0.00  0.00    +0.000 C 
ATOM      3  N   UNL     1       1.115   9.219  20.075  0.00  0.00    +0.000 N 
ATOM      4  H   UNL     1       1.231   9.555  19.127  0.00  0.00    +0.000 HD
ENDROOT
BRANCH   2   5
ATOM      5  C   UNL     1       2.474   7.337  19.343  0.00  0.00    +0.000 A 
ATOM      6  C   UNL     1       2.739   8.054  18.172  0.00  0.00    +0.000 A 
ATOM      7  C   UNL     1       3.503   7.483  17.153  0.00  0.00    +0.000 A 
ATOM      8  C   UNL     1       4.015   6.184  17.288  0.00  0.00    +0.000 A 
ATOM      9 CL   UNL     1       4.913   5.563  15.955  0.00  0.00    +0.000 Cl
ATOM     10  C   UNL     1       3.755   5.470  18.460  0.00  0.00    +0.000 A 
ATOM     11  C   UNL     1       2.977   6.042  19.485  0.00  0.00    +0.000 A 
BRANCH  10  12
ATOM     12  S   UNL     1       4.428   3.860  18.756  0.00  0.00    +0.000 S 
ATOM     13  O   UNL     1       3.949   3.408  20.044  0.00  0.00    +0.000 OA
ATOM     14  O   UNL     1       4.188   3.058  17.573  0.00  0.00    +0.000 OA
BRANCH  12  15
ATOM     15  N   UNL     1       6.085   4.102  18.878  0.00  0.00    +0.000 NA
ATOM     16  H   UNL     1       6.608   3.587  18.169  0.00  0.00    +0.000 HD
BRANCH  15  17
ATOM     17  C   UNL     1       6.581   5.399  19.316  0.00  0.00    +0.000 C 
ATOM     18  C   UNL     1       7.508   6.194  18.438  0.00  0.00    +0.000 C 
ATOM     19  C   UNL     1       8.030   5.551  19.687  0.00  0.00    +0.000 C 
ENDBRANCH  15  17
ENDBRANCH  12  15
ENDBRANCH  10  12
ENDBRANCH   2   5
BRANCH   3  20
ATOM     20  C   UNL     1       0.295  10.005  20.915  0.00  0.00    +0.000 A 
ATOM     21  C   UNL     1      -0.015   9.645  22.228  0.00  0.00    +0.000 A 
ATOM     22  C   UNL     1      -0.865  10.436  23.009  0.00  0.00    +0.000 A 
ATOM     23  C   UNL     1      -1.421  11.602  22.478  0.00  0.00    +0.000 A 
ATOM     24  C   UNL     1      -1.091  11.987  21.171  0.00  0.00    +0.000 A 
ATOM     25  C   UNL     1      -0.227  11.196  20.401  0.00  0.00    +0.000 A 
BRANCH  23  26
ATOM     26  N   UNL     1      -2.318  12.386  23.242  0.00  0.00    +0.000 N 
ATOM     27  C   UNL     1      -2.247  13.715  23.577  0.00  0.00    +0.000 A 
ATOM     28  N   UNL     1      -3.279  14.033  24.323  0.00  0.00    +0.000 NA
ATOM     29  N   UNL     1      -4.010  12.882  24.453  0.00  0.00    +0.000 NA
ATOM     30  N   UNL     1      -3.444  11.880  23.796  0.00  0.00    +0.000 NA
ENDBRANCH  23  26
ENDBRANCH   3  20
TORSDOF 6
ENDMDL
MODEL 8
REMARK VINA RESULT:      -8.0      2.280      3.730
REMARK  Name = 
REMARK  6 active torsions:
REMARK  status: ('A' for Active; 'I' for Inactive)
REMARK    1  A    between atoms: C_2  and  C_15
REMARK    2  A    between atoms: N_3  and  C_4
REMARK    3  A    between atoms: C_7  and  N_8
REMARK    4  A    between atoms: C_20  and  S_21
REMARK    5  A    between atoms: S_21  and  N_24
REMARK    6  A    between atoms: N_24  and  C_25
REMARK                            x       y       z     vdW  Elec       q    Type
REMARK                         _______ _______ _______ _____ _____    ______ ____
ROOT
ATOM      1  O   UNL     1       1.659   8.605  19.125  0.00  0.00    +0.000 OA
ATOM      2  C   UNL     1       1.738   7.841  20.080  0.00  0.00    +0.000 C 
ATOM      3  N   UNL     1       1.309   8.085  21.374  0.00  0.00    +0.000 N 
ATOM      4  H   UNL     1       1.618   7.451  22.101  0.00  0.00    +0.000 HD
ENDROOT
BRANCH   2   5
ATOM      5  C   UNL     1       2.412   6.537  19.855  0.00  0.00    +0.000 A 
ATOM      6  C   UNL     1       1.855   5.389  20.426  0.00  0.00    +0.000 A 
ATOM      7  C   UNL     1       2.485   4.152  20.281  0.00  0.00    +0.000 A 
ATOM      8  C   UNL     1       3.683   4.043  19.560  0.00  0.00    +0.000 A 
ATOM      9 CL   UNL     1       4.394   2.474  19.474  0.00  0.00    +0.000 Cl
ATOM     10  C   UNL     1       4.237   5.188  18.984  0.00  0.00    +0.000 A 
ATOM     11  C   UNL     1       3.606   6.438  19.137  0.00  0.00    +0.000 A 
BRANCH  10  12
ATOM     12  S   UNL     1       5.698   5.134  17.987  0.00  0.00    +0.000 S 
ATOM     13  O   UNL     1       6.014   6.488  17.588  0.00  0.00    +0.000 OA
ATOM     14  O   UNL     1       6.683   4.339  18.693  0.00  0.00    +0.000 OA
BRANCH  12  15
ATOM     15  N   UNL     1       5.250   4.283  16.611  0.00  0.00    +0.000 NA
ATOM     16  H   UNL     1       4.378   3.769  16.737  0.00  0.00    +0.000 HD
BRANCH  15  17
ATOM     17  C   UNL     1       5.557   4.841  15.302  0.00  0.00    +0.000 C 
ATOM     18  C   UNL     1       5.894   3.935  14.150  0.00  0.00    +0.000 C 
ATOM     19  C   UNL     1       6.965   4.774  14.779  0.00  0.00    +0.000 C 
ENDBRANCH  15  17
ENDBRANCH  12  15
ENDBRANCH  10  12
ENDBRANCH   2   5
BRANCH   3  20
ATOM     20  C   UNL     1       0.630   9.244  21.812  0.00  0.00    +0.000 A 
ATOM     21  C   UNL     1      -0.303   9.233  22.851  0.00  0.00    +0.000 A 
ATOM     22  C   UNL     1      -0.980  10.399  23.223  0.00  0.00    +0.000 A 
ATOM     23  C   UNL     1      -0.733  11.597  22.550  0.00  0.00    +0.000 A 
ATOM     24  C   UNL     1       0.224  11.625  21.526  0.00  0.00    +0.000 A 
ATOM     25  C   UNL     1       0.909  10.455  21.170  0.00  0.00    +0.000 A 
BRANCH  23  26
ATOM     26  N   UNL     1      -1.445  12.773  22.886  0.00  0.00    +0.000 N 
ATOM     27  C   UNL     1      -2.738  13.124  22.585  0.00  0.00    +0.000 A 
ATOM     28  N   UNL     1      -2.988  14.319  23.069  0.00  0.00    +0.000 NA
ATOM     29  N   UNL     1      -1.833  14.718  23.686  0.00  0.00    +0.000 NA
ATOM     30  N   UNL     1      -0.894  13.788  23.590  0.00  0.00    +0.000 NA
ENDBRANCH  23  26
ENDBRANCH   3  20
TORSDOF 6
ENDMDL
MODEL 9
REMARK VINA RESULT:      -7.9      1.988      2.283
REMARK  Name = 
REMARK  6 active torsions:
REMARK  status: ('A' for Active; 'I' for Inactive)
REMARK    1  A    between atoms: C_2  and  C_15
REMARK    2  A    between atoms: N_3  and  C_4
REMARK    3  A    between atoms: C_7  and  N_8
REMARK    4  A    between atoms: C_20  and  S_21
REMARK    5  A    between atoms: S_21  and  N_24
REMARK    6  A    between atoms: N_24  and  C_25
REMARK                            x       y       z     vdW  Elec       q    Type
REMARK                         _______ _______ _______ _____ _____    ______ ____
ROOT
ATOM      1  O   UNL     1       1.538   7.958  20.320  0.00  0.00    +0.000 OA
ATOM      2  C   UNL     1       1.853   8.244  19.170  0.00  0.00    +0.000 C 
ATOM      3  N   UNL     1       1.354   9.290  18.411  0.00  0.00    +0.000 N 
ATOM      4  H   UNL     1       1.552   9.287  17.417  0.00  0.00    +0.000 HD
ENDROOT
BRANCH   2   5
ATOM      5  C   UNL     1       2.829   7.355  18.489  0.00  0.00    +0.000 A 
ATOM      6  C   UNL     1       3.469   7.823  17.338  0.00  0.00    +0.000 A 
ATOM      7  C   UNL     1       4.355   6.999  16.640  0.00  0.00    +0.000 A 
ATOM      8  C   UNL     1       4.614   5.695  17.083  0.00  0.00    +0.000 A 
ATOM      9 CL   UNL     1       5.696   4.753  16.126  0.00  0.00    +0.000 Cl
ATOM     10  C   UNL     1       3.979   5.229  18.237  0.00  0.00    +0.000 A 
ATOM     11  C   UNL     1       3.079   6.056  18.936  0.00  0.00    +0.000 A 
BRANCH  10  12
ATOM     12  S   UNL     1       4.308   3.629  18.918  0.00  0.00    +0.000 S 
ATOM     13  O   UNL     1       3.806   2.639  17.990  0.00  0.00    +0.000 OA
ATOM     14  O   UNL     1       5.699   3.601  19.323  0.00  0.00    +0.000 OA
BRANCH  12  15
ATOM     15  N   UNL     1       3.372   3.553  20.309  0.00  0.00    +0.000 NA
ATOM     16  H   UNL     1       3.371   4.432  20.827  0.00  0.00    +0.000 HD
BRANCH  15  17
ATOM     17  C   UNL     1       2.169   2.733  20.310  0.00  0.00    +0.000 C 
ATOM     18  C   UNL     1       0.811   3.377  20.265  0.00  0.00    +0.000 C 
ATOM     19  C   UNL     1       1.284   2.717  21.525  0.00  0.00    +0.000 C 
ENDBRANCH  15  17
ENDBRANCH  12  15
ENDBRANCH  10  12
ENDBRANCH   2   5
BRANCH   3  20
ATOM     20  C   UNL     1       0.436  10.266  18.856  0.00  0.00    +0.000 A 
ATOM     21  C   UNL     1       0.777  11.277  19.756  0.00  0.00    +0.000 A 
ATOM     22  C   UNL     1      -0.178  12.199  20.200  0.00  0.00    +0.000 A 
ATOM     23  C   UNL     1      -1.496  12.114  19.747  0.00  0.00    +0.000 A 
ATOM     24  C   UNL     1      -1.841  11.121  18.820  0.00  0.00    +0.000 A 
ATOM     25  C   UNL     1      -0.874  10.211  18.369  0.00  0.00    +0.000 A 
BRANCH  23  26
ATOM     26  N   UNL     1      -2.482  13.010  20.224  0.00  0.00    +0.000 N 
ATOM     27  C   UNL     1      -3.844  12.856  20.284  0.00  0.00    +0.000 A 
ATOM     28  N   UNL     1      -4.385  13.948  20.773  0.00  0.00    +0.000 NA
ATOM     29  N   UNL     1      -3.341  14.797  21.027  0.00  0.00    +0.000 NA
ATOM     30  N   UNL     1      -2.183  14.238  20.707  0.00  0.00    +0.000 NA
ENDBRANCH  23  26
ENDBRANCH   3  20
TORSDOF 6
ENDMDL
