MODEL 1
REMARK VINA RESULT:      -9.0      0.000      0.000
REMARK  Name = 
REMARK  3 active torsions:
REMARK  status: ('A' for Active; 'I' for Inactive)
REMARK    1  A    between atoms: C_2  and  C_14
REMARK    2  A    between atoms: N_3  and  C_4
REMARK    3  A    between atoms: C_16  and  C_17
REMARK                            x       y       z     vdW  Elec       q    Type
REMARK                         _______ _______ _______ _____ _____    ______ ____
ROOT
ATOM      1  C   UNL     1       2.642   6.237  18.683  0.00  0.00    +0.000 A 
ATOM      2  C   UNL     1       3.644   6.308  17.711  0.00  0.00    +0.000 A 
ATOM      3  C   UNL     1       4.258   5.137  17.299  0.00  0.00    +0.000 A 
ATOM      4  N   UNL     1       3.896   3.935  17.804  0.00  0.00    +0.000 NA
ATOM      5  C   UNL     1       2.949   3.859  18.754  0.00  0.00    +0.000 A 
ATOM      6  C   UNL     1       2.655   2.609  19.287  0.00  0.00    +0.000 A 
ATOM      7  C   UNL     1       1.696   2.432  20.289  0.00  0.00    +0.000 A 
ATOM      8  C   UNL     1       0.997   3.528  20.763  0.00  0.00    +0.000 A 
ATOM      9  C   UNL     1       1.269   4.789  20.238  0.00  0.00    +0.000 A 
ATOM     10  C   UNL     1       2.263   4.986  19.240  0.00  0.00    +0.000 A 
ENDROOT
BRANCH   3  11
ATOM     11  C   UNL     1       5.355   5.113  16.311  0.00  0.00    +0.000 A 
ATOM     12  C   UNL     1       5.272   4.381  15.117  0.00  0.00    +0.000 A 
ATOM     13  C   UNL     1       6.340   4.395  14.232  0.00  0.00    +0.000 A 
ATOM     14  N   UNL     1       7.479   5.082  14.445  0.00  0.00    +0.000 NA
ATOM     15  C   UNL     1       7.547   5.799  15.585  0.00  0.00    +0.000 A 
ATOM     16  C   UNL     1       6.531   5.844  16.527  0.00  0.00    +0.000 A 
ENDBRANCH   3  11
BRANCH   1  18
ATOM     17  O   UNL     1       2.100   7.653  20.441  0.00  0.00    +0.000 OA
ATOM     18  C   UNL     1       2.105   7.515  19.222  0.00  0.00    +0.000 C 
ATOM     19  N   UNL     1       1.672   8.454  18.295  0.00  0.00    +0.000 N 
ATOM     20  H   UNL     1       1.618   8.179  17.323  0.00  0.00    +0.000 HD
BRANCH  19  21
ATOM     21  C   UNL     1       1.185   9.748  18.609  0.00  0.00    +0.000 A 
ATOM     22  C   UNL     1      -0.090   9.973  19.136  0.00  0.00    +0.000 A 
ATOM     23  C   UNL     1      -0.549  11.262  19.390  0.00  0.00    +0.000 A 
ATOM     24  C   UNL     1       0.266  12.354  19.124  0.00  0.00    +0.000 A 
ATOM     25  C   UNL     1       1.560  12.150  18.639  0.00  0.00    +0.000 A 
ATOM     26  C   UNL     1       2.020  10.853  18.379  0.00  0.00    +0.000 A 
ATOM     27  O   UNL     1       2.425  13.183  18.378  0.00  0.00    +0.000 OA
ATOM     28  C   UNL     1       1.974  14.413  18.965  0.00  0.00    +0.000 C 
ATOM     29  C   UNL     1       0.486  14.619  18.731  0.00  0.00    +0.000 C 
ATOM     30  O   UNL     1      -0.270  13.589  19.371  0.00  0.00    +0.000 OA
ENDBRANCH  19  21
ENDBRANCH   1  18
TORSDOF 3
ENDMDL
MODEL 2
REMARK VINA RESULT:      -8.9      0.788      1.581
REMARK  Name = 
REMARK  3 active torsions:
REMARK  status: ('A' for Active; 'I' for Inactive)
REMARK    1  A    between atoms: C_2  and  C_14
REMARK    2  A    between atoms: N_3  and  C_4
REMARK    3  A    between atoms: C_16  and  C_17
REMARK                            x       y       z     vdW  Elec       q    Type
REMARK                         _______ _______ _______ _____ _____    ______ ____
ROOT
ATOM      1  C   UNL     1       2.698   6.258  18.561  0.00  0.00    +0.000 A 
ATOM      2  C   UNL     1       3.693   6.291  17.580  0.00  0.00    +0.000 A 
ATOM      3  C   UNL     1       4.293   5.103  17.198  0.00  0.00    +0.000 A 
ATOM      4  N   UNL     1       3.923   3.919  17.740  0.00  0.00    +0.000 NA
ATOM      5  C   UNL     1       2.982   3.881  18.699  0.00  0.00    +0.000 A 
ATOM      6  C   UNL     1       2.680   2.650  19.270  0.00  0.00    +0.000 A 
ATOM      7  C   UNL     1       1.727   2.512  20.284  0.00  0.00    +0.000 A 
ATOM      8  C   UNL     1       1.042   3.628  20.731  0.00  0.00    +0.000 A 
ATOM      9  C   UNL     1       1.323   4.871  20.168  0.00  0.00    +0.000 A 
ATOM     10  C   UNL     1       2.311   5.028  19.157  0.00  0.00    +0.000 A 
ENDROOT
BRANCH   3  11
ATOM     11  C   UNL     1       5.382   5.039  16.202  0.00  0.00    +0.000 A 
ATOM     12  C   UNL     1       5.242   4.361  14.982  0.00  0.00    +0.000 A 
ATOM     13  C   UNL     1       6.305   4.334  14.092  0.00  0.00    +0.000 A 
ATOM     14  N   UNL     1       7.491   4.929  14.323  0.00  0.00    +0.000 NA
ATOM     15  C   UNL     1       7.614   5.594  15.490  0.00  0.00    +0.000 A 
ATOM     16  C   UNL     1       6.608   5.675  16.439  0.00  0.00    +0.000 A 
ENDBRANCH   3  11
BRANCH   1  18
ATOM     17  O   UNL     1       2.113   7.701  20.283  0.00  0.00    +0.000 OA
ATOM     18  C   UNL     1       2.178   7.557  19.067  0.00  0.00    +0.000 C 
ATOM     19  N   UNL     1       1.829   8.506  18.115  0.00  0.00    +0.000 N 
ATOM     20  H   UNL     1       1.817   8.229  17.142  0.00  0.00    +0.000 HD
BRANCH  19  21
ATOM     21  C   UNL     1       1.371   9.818  18.398  0.00  0.00    +0.000 A 
ATOM     22  C   UNL     1       2.164  10.955  18.216  0.00  0.00    +0.000 A 
ATOM     23  C   UNL     1       1.694  12.223  18.547  0.00  0.00    +0.000 A 
ATOM     24  C   UNL     1       0.416  12.376  19.065  0.00  0.00    +0.000 A 
ATOM     25  C   UNL     1      -0.409  11.259  19.215  0.00  0.00    +0.000 A 
ATOM     26  C   UNL     1       0.065   9.983  18.885  0.00  0.00    +0.000 A 
ATOM     27  O   UNL     1      -1.690  11.342  19.698  0.00  0.00    +0.000 OA
ATOM     28  C   UNL     1      -2.167  12.697  19.702  0.00  0.00    +0.000 C 
ATOM     29  C   UNL     1      -1.111  13.648  20.241  0.00  0.00    +0.000 C 
ATOM     30  O   UNL     1       0.040  13.650  19.396  0.00  0.00    +0.000 OA
ENDBRANCH  19  21
ENDBRANCH   1  18
TORSDOF 3
ENDMDL
MODEL 3
REMARK VINA RESULT:      -8.7      1.909      2.143
REMARK  Name = 
REMARK  3 active torsions:
REMARK  status: ('A' for Active; 'I' for Inactive)
REMARK    1  A    between atoms: C_2  and  C_14
REMARK    2  A    between atoms: N_3  and  C_4
REMARK    3  A    between atoms: C_16  and  C_17
REMARK                            x       y       z     vdW  Elec       q    Type
REMARK                         _______ _______ _______ _____ _____    ______ ____
ROOT
ATOM      1  C   UNL     1       2.595   6.269  18.846  0.00  0.00    +0.000 A 
ATOM      2  C   UNL     1       3.589   6.351  17.868  0.00  0.00    +0.000 A 
ATOM      3  C   UNL     1       4.266   5.199  17.506  0.00  0.00    +0.000 A 
ATOM      4  N   UNL     1       3.973   4.002  18.067  0.00  0.00    +0.000 NA
ATOM      5  C   UNL     1       3.033   3.918  19.024  0.00  0.00    +0.000 A 
ATOM      6  C   UNL     1       2.811   2.679  19.615  0.00  0.00    +0.000 A 
ATOM      7  C   UNL     1       1.865   2.496  20.629  0.00  0.00    +0.000 A 
ATOM      8  C   UNL     1       1.107   3.572  21.056  0.00  0.00    +0.000 A 
ATOM      9  C   UNL     1       1.308   4.821  20.473  0.00  0.00    +0.000 A 
ATOM     10  C   UNL     1       2.287   5.026  19.462  0.00  0.00    +0.000 A 
ENDROOT
BRANCH   3  11
ATOM     11  C   UNL     1       5.360   5.190  16.515  0.00  0.00    +0.000 A 
ATOM     12  C   UNL     1       5.294   4.436  15.333  0.00  0.00    +0.000 A 
ATOM     13  C   UNL     1       6.359   4.467  14.445  0.00  0.00    +0.000 A 
ATOM     14  N   UNL     1       7.479   5.190  14.642  0.00  0.00    +0.000 NA
ATOM     15  C   UNL     1       7.529   5.926  15.770  0.00  0.00    +0.000 A 
ATOM     16  C   UNL     1       6.516   5.958  16.715  0.00  0.00    +0.000 A 
ENDBRANCH   3  11
BRANCH   1  18
ATOM     17  O   UNL     1       1.810   8.427  18.502  0.00  0.00    +0.000 OA
ATOM     18  C   UNL     1       1.989   7.539  19.329  0.00  0.00    +0.000 C 
ATOM     19  N   UNL     1       1.657   7.603  20.676  0.00  0.00    +0.000 N 
ATOM     20  H   UNL     1       1.960   6.850  21.282  0.00  0.00    +0.000 HD
BRANCH  19  21
ATOM     21  C   UNL     1       1.020   8.700  21.311  0.00  0.00    +0.000 A 
ATOM     22  C   UNL     1       0.257   8.566  22.474  0.00  0.00    +0.000 A 
ATOM     23  C   UNL     1      -0.390   9.659  23.042  0.00  0.00    +0.000 A 
ATOM     24  C   UNL     1      -0.279  10.912  22.457  0.00  0.00    +0.000 A 
ATOM     25  C   UNL     1       0.515  11.078  21.319  0.00  0.00    +0.000 A 
ATOM     26  C   UNL     1       1.162   9.976  20.745  0.00  0.00    +0.000 A 
ATOM     27  O   UNL     1       0.687  12.292  20.705  0.00  0.00    +0.000 OA
ATOM     28  C   UNL     1       0.249  13.375  21.540  0.00  0.00    +0.000 C 
ATOM     29  C   UNL     1      -1.088  13.059  22.190  0.00  0.00    +0.000 C 
ATOM     30  O   UNL     1      -0.970  11.930  23.058  0.00  0.00    +0.000 OA
ENDBRANCH  19  21
ENDBRANCH   1  18
TORSDOF 3
ENDMDL
MODEL 4
REMARK VINA RESULT:      -8.6      2.914      8.565
REMARK  Name = 
REMARK  3 active torsions:
REMARK  status: ('A' for Active; 'I' for Inactive)
REMARK    1  A    between atoms: C_2  and  C_14
REMARK    2  A    between atoms: N_3  and  C_4
REMARK    3  A    between atoms: C_16  and  C_17
REMARK                            x       y       z     vdW  Elec       q    Type
REMARK                         _______ _______ _______ _____ _____    ______ ____
ROOT
ATOM      1  C   UNL     1       1.162  10.327  19.404  0.00  0.00    +0.000 A 
ATOM      2  C   UNL     1       1.365  11.608  18.885  0.00  0.00    +0.000 A 
ATOM      3  C   UNL     1       0.922  12.700  19.611  0.00  0.00    +0.000 A 
ATOM      4  N   UNL     1       0.317  12.551  20.813  0.00  0.00    +0.000 NA
ATOM      5  C   UNL     1       0.098  11.321  21.309  0.00  0.00    +0.000 A 
ATOM      6  C   UNL     1      -0.584  11.215  22.517  0.00  0.00    +0.000 A 
ATOM      7  C   UNL     1      -0.871   9.980  23.105  0.00  0.00    +0.000 A 
ATOM      8  C   UNL     1      -0.454   8.816  22.483  0.00  0.00    +0.000 A 
ATOM      9  C   UNL     1       0.237   8.898  21.276  0.00  0.00    +0.000 A 
ATOM     10  C   UNL     1       0.509  10.148  20.653  0.00  0.00    +0.000 A 
ENDROOT
BRANCH   3  11
ATOM     11  C   UNL     1       1.052  14.090  19.129  0.00  0.00    +0.000 A 
ATOM     12  C   UNL     1      -0.034  14.978  19.103  0.00  0.00    +0.000 A 
ATOM     13  C   UNL     1       0.152  16.269  18.633  0.00  0.00    +0.000 A 
ATOM     14  N   UNL     1       1.333  16.742  18.190  0.00  0.00    +0.000 NA
ATOM     15  C   UNL     1       2.378  15.890  18.234  0.00  0.00    +0.000 A 
ATOM     16  C   UNL     1       2.287  14.583  18.686  0.00  0.00    +0.000 A 
ENDBRANCH   3  11
BRANCH   1  18
ATOM     17  O   UNL     1       0.971   9.108  17.437  0.00  0.00    +0.000 OA
ATOM     18  C   UNL     1       1.504   9.164  18.540  0.00  0.00    +0.000 C 
ATOM     19  N   UNL     1       2.416   8.251  19.052  0.00  0.00    +0.000 N 
ATOM     20  H   UNL     1       2.697   8.343  20.019  0.00  0.00    +0.000 HD
BRANCH  19  21
ATOM     21  C   UNL     1       2.911   7.115  18.361  0.00  0.00    +0.000 A 
ATOM     22  C   UNL     1       2.371   5.835  18.518  0.00  0.00    +0.000 A 
ATOM     23  C   UNL     1       2.913   4.738  17.856  0.00  0.00    +0.000 A 
ATOM     24  C   UNL     1       4.005   4.903  17.017  0.00  0.00    +0.000 A 
ATOM     25  C   UNL     1       4.533   6.179  16.811  0.00  0.00    +0.000 A 
ATOM     26  C   UNL     1       3.991   7.284  17.481  0.00  0.00    +0.000 A 
ATOM     27  O   UNL     1       5.596   6.417  15.977  0.00  0.00    +0.000 OA
ATOM     28  C   UNL     1       5.860   5.293  15.122  0.00  0.00    +0.000 C 
ATOM     29  C   UNL     1       5.809   3.989  15.901  0.00  0.00    +0.000 C 
ATOM     30  O   UNL     1       4.499   3.770  16.428  0.00  0.00    +0.000 OA
ENDBRANCH  19  21
ENDBRANCH   1  18
TORSDOF 3
ENDMDL
MODEL 5
REMARK VINA RESULT:      -8.5      1.212      2.026
REMARK  Name = 
REMARK  3 active torsions:
REMARK  status: ('A' for Active; 'I' for Inactive)
REMARK    1  A    between atoms: C_2  and  C_14
REMARK    2  A    between atoms: N_3  and  C_4
REMARK    3  A    between atoms: C_16  and  C_17
REMARK                            x       y       z     vdW  Elec       q    Type
REMARK                         _______ _______ _______ _____ _____    ______ ____
ROOT
ATOM      1  C   UNL     1       2.649   6.081  18.799  0.00  0.00    +0.000 A 
ATOM      2  C   UNL     1       3.675   6.212  17.859  0.00  0.00    +0.000 A 
ATOM      3  C   UNL     1       4.229   5.068  17.311  0.00  0.00    +0.000 A 
ATOM      4  N   UNL     1       3.786   3.836  17.653  0.00  0.00    +0.000 NA
ATOM      5  C   UNL     1       2.815   3.699  18.572  0.00  0.00    +0.000 A 
ATOM      6  C   UNL     1       2.437   2.411  18.937  0.00  0.00    +0.000 A 
ATOM      7  C   UNL     1       1.447   2.169  19.894  0.00  0.00    +0.000 A 
ATOM      8  C   UNL     1       0.802   3.236  20.493  0.00  0.00    +0.000 A 
ATOM      9  C   UNL     1       1.159   4.535  20.137  0.00  0.00    +0.000 A 
ATOM     10  C   UNL     1       2.185   4.795  19.187  0.00  0.00    +0.000 A 
ENDROOT
BRANCH   3  11
ATOM     11  C   UNL     1       5.345   5.102  16.344  0.00  0.00    +0.000 A 
ATOM     12  C   UNL     1       6.495   5.877  16.555  0.00  0.00    +0.000 A 
ATOM     13  C   UNL     1       7.506   5.868  15.606  0.00  0.00    +0.000 A 
ATOM     14  N   UNL     1       7.460   5.148  14.468  0.00  0.00    +0.000 NA
ATOM     15  C   UNL     1       6.360   4.391  14.279  0.00  0.00    +0.000 A 
ATOM     16  C   UNL     1       5.300   4.336  15.171  0.00  0.00    +0.000 A 
ENDBRANCH   3  11
BRANCH   1  18
ATOM     17  O   UNL     1       2.275   7.344  20.710  0.00  0.00    +0.000 OA
ATOM     18  C   UNL     1       2.176   7.311  19.488  0.00  0.00    +0.000 C 
ATOM     19  N   UNL     1       1.679   8.328  18.684  0.00  0.00    +0.000 N 
ATOM     20  H   UNL     1       1.540   8.138  17.700  0.00  0.00    +0.000 HD
BRANCH  19  21
ATOM     21  C   UNL     1       1.236   9.594  19.147  0.00  0.00    +0.000 A 
ATOM     22  C   UNL     1       1.568  10.794  18.510  0.00  0.00    +0.000 A 
ATOM     23  C   UNL     1       1.151  12.020  19.020  0.00  0.00    +0.000 A 
ATOM     24  C   UNL     1       0.388  12.067  20.178  0.00  0.00    +0.000 A 
ATOM     25  C   UNL     1       0.008  10.878  20.806  0.00  0.00    +0.000 A 
ATOM     26  C   UNL     1       0.431   9.644  20.295  0.00  0.00    +0.000 A 
ATOM     27  O   UNL     1      -0.765  10.852  21.939  0.00  0.00    +0.000 OA
ATOM     28  C   UNL     1      -1.389  12.121  22.183  0.00  0.00    +0.000 C 
ATOM     29  C   UNL     1      -0.404  13.263  21.989  0.00  0.00    +0.000 C 
ATOM     30  O   UNL     1       0.045  13.311  20.633  0.00  0.00    +0.000 OA
ENDBRANCH  19  21
ENDBRANCH   1  18
TORSDOF 3
ENDMDL
MODEL 6
REMARK VINA RESULT:      -8.4      2.801      8.735
REMARK  Name = 
REMARK  3 active torsions:
REMARK  status: ('A' for Active; 'I' for Inactive)
REMARK    1  A    between atoms: C_2  and  C_14
REMARK    2  A    between atoms: N_3  and  C_4
REMARK    3  A    between atoms: C_16  and  C_17
REMARK                            x       y       z     vdW  Elec       q    Type
REMARK                         _______ _______ _______ _____ _____    ______ ____
ROOT
ATOM      1  C   UNL     1       1.255  10.412  19.579  0.00  0.00    +0.000 A 
ATOM      2  C   UNL     1       1.673  11.598  18.970  0.00  0.00    +0.000 A 
ATOM      3  C   UNL     1       1.333  12.805  19.557  0.00  0.00    +0.000 A 
ATOM      4  N   UNL     1       0.623  12.856  20.708  0.00  0.00    +0.000 NA
ATOM      5  C   UNL     1       0.199  11.720  21.290  0.00  0.00    +0.000 A 
ATOM      6  C   UNL     1      -0.579  11.824  22.437  0.00  0.00    +0.000 A 
ATOM      7  C   UNL     1      -1.078  10.701  23.103  0.00  0.00    +0.000 A 
ATOM      8  C   UNL     1      -0.782   9.437  22.624  0.00  0.00    +0.000 A 
ATOM      9  C   UNL     1       0.003   9.308  21.480  0.00  0.00    +0.000 A 
ATOM     10  C   UNL     1       0.492  10.444  20.777  0.00  0.00    +0.000 A 
ENDROOT
BRANCH   3  11
ATOM     11  C   UNL     1       1.689  14.112  18.968  0.00  0.00    +0.000 A 
ATOM     12  C   UNL     1       0.884  15.249  19.125  0.00  0.00    +0.000 A 
ATOM     13  C   UNL     1       1.273  16.446  18.543  0.00  0.00    +0.000 A 
ATOM     14  N   UNL     1       2.399  16.596  17.819  0.00  0.00    +0.000 NA
ATOM     15  C   UNL     1       3.179  15.504  17.685  0.00  0.00    +0.000 A 
ATOM     16  C   UNL     1       2.872  14.267  18.231  0.00  0.00    +0.000 A 
ENDBRANCH   3  11
BRANCH   1  18
ATOM     17  O   UNL     1       1.081   9.055  17.703  0.00  0.00    +0.000 OA
ATOM     18  C   UNL     1       1.497   9.136  18.854  0.00  0.00    +0.000 C 
ATOM     19  N   UNL     1       2.194   8.149  19.538  0.00  0.00    +0.000 N 
ATOM     20  H   UNL     1       2.384   8.288  20.522  0.00  0.00    +0.000 HD
BRANCH  19  21
ATOM     21  C   UNL     1       2.572   6.892  18.999  0.00  0.00    +0.000 A 
ATOM     22  C   UNL     1       3.483   6.759  17.947  0.00  0.00    +0.000 A 
ATOM     23  C   UNL     1       3.795   5.511  17.416  0.00  0.00    +0.000 A 
ATOM     24  C   UNL     1       3.201   4.369  17.934  0.00  0.00    +0.000 A 
ATOM     25  C   UNL     1       2.321   4.474  19.013  0.00  0.00    +0.000 A 
ATOM     26  C   UNL     1       2.004   5.730  19.545  0.00  0.00    +0.000 A 
ATOM     27  O   UNL     1       1.718   3.383  19.588  0.00  0.00    +0.000 OA
ATOM     28  C   UNL     1       2.345   2.157  19.182  0.00  0.00    +0.000 C 
ATOM     29  C   UNL     1       2.614   2.149  17.685  0.00  0.00    +0.000 C 
ATOM     30  O   UNL     1       3.536   3.183  17.336  0.00  0.00    +0.000 OA
ENDBRANCH  19  21
ENDBRANCH   1  18
TORSDOF 3
ENDMDL
MODEL 7
REMARK VINA RESULT:      -8.3      3.254      8.458
REMARK  Name = 
REMARK  3 active torsions:
REMARK  status: ('A' for Active; 'I' for Inactive)
REMARK    1  A    between atoms: C_2  and  C_14
REMARK    2  A    between atoms: N_3  and  C_4
REMARK    3  A    between atoms: C_16  and  C_17
REMARK                            x       y       z     vdW  Elec       q    Type
REMARK                         _______ _______ _______ _____ _____    ______ ____
ROOT
ATOM      1  C   UNL     1       0.909   9.341  18.922  0.00  0.00    +0.000 A 
ATOM      2  C   UNL     1      -0.083   9.745  18.026  0.00  0.00    +0.000 A 
ATOM      3  C   UNL     1      -1.258  10.279  18.527  0.00  0.00    +0.000 A 
ATOM      4  N   UNL     1      -1.453  10.430  19.858  0.00  0.00    +0.000 NA
ATOM      5  C   UNL     1      -0.512  10.024  20.729  0.00  0.00    +0.000 A 
ATOM      6  C   UNL     1      -0.784  10.141  22.087  0.00  0.00    +0.000 A 
ATOM      7  C   UNL     1       0.126   9.733  23.067  0.00  0.00    +0.000 A 
ATOM      8  C   UNL     1       1.348   9.207  22.685  0.00  0.00    +0.000 A 
ATOM      9  C   UNL     1       1.644   9.087  21.329  0.00  0.00    +0.000 A 
ATOM     10  C   UNL     1       0.715   9.471  20.323  0.00  0.00    +0.000 A 
ENDROOT
BRANCH   3  11
ATOM     11  C   UNL     1      -2.382  10.695  17.665  0.00  0.00    +0.000 A 
ATOM     12  C   UNL     1      -3.509  11.359  18.172  0.00  0.00    +0.000 A 
ATOM     13  C   UNL     1      -4.534  11.719  17.309  0.00  0.00    +0.000 A 
ATOM     14  N   UNL     1      -4.520  11.471  15.985  0.00  0.00    +0.000 NA
ATOM     15  C   UNL     1      -3.427  10.848  15.500  0.00  0.00    +0.000 A 
ATOM     16  C   UNL     1      -2.355  10.451  16.285  0.00  0.00    +0.000 A 
ENDBRANCH   3  11
BRANCH   1  18
ATOM     17  O   UNL     1       2.832   9.262  17.622  0.00  0.00    +0.000 OA
ATOM     18  C   UNL     1       2.095   8.630  18.372  0.00  0.00    +0.000 C 
ATOM     19  N   UNL     1       2.278   7.313  18.772  0.00  0.00    +0.000 N 
ATOM     20  H   UNL     1       1.541   6.864  19.300  0.00  0.00    +0.000 HD
BRANCH  19  21
ATOM     21  C   UNL     1       3.374   6.491  18.405  0.00  0.00    +0.000 A 
ATOM     22  C   UNL     1       3.923   5.530  19.258  0.00  0.00    +0.000 A 
ATOM     23  C   UNL     1       5.027   4.773  18.878  0.00  0.00    +0.000 A 
ATOM     24  C   UNL     1       5.601   4.963  17.629  0.00  0.00    +0.000 A 
ATOM     25  C   UNL     1       5.043   5.887  16.743  0.00  0.00    +0.000 A 
ATOM     26  C   UNL     1       3.934   6.652  17.128  0.00  0.00    +0.000 A 
ATOM     27  O   UNL     1       5.546   6.107  15.486  0.00  0.00    +0.000 OA
ATOM     28  C   UNL     1       6.459   5.071  15.093  0.00  0.00    +0.000 C 
ATOM     29  C   UNL     1       7.417   4.727  16.221  0.00  0.00    +0.000 C 
ATOM     30  O   UNL     1       6.703   4.203  17.343  0.00  0.00    +0.000 OA
ENDBRANCH  19  21
ENDBRANCH   1  18
TORSDOF 3
ENDMDL
MODEL 8
REMARK VINA RESULT:      -8.3      3.125      8.903
REMARK  Name = 
REMARK  3 active torsions:
REMARK  status: ('A' for Active; 'I' for Inactive)
REMARK    1  A    between atoms: C_2  and  C_14
REMARK    2  A    between atoms: N_3  and  C_4
REMARK    3  A    between atoms: C_16  and  C_17
REMARK                            x       y       z     vdW  Elec       q    Type
REMARK                         _______ _______ _______ _____ _____    ______ ____
ROOT
ATOM      1  C   UNL     1       0.983  11.143  19.856  0.00  0.00    +0.000 A 
ATOM      2  C   UNL     1       1.577  12.175  19.126  0.00  0.00    +0.000 A 
ATOM      3  C   UNL     1       1.390  13.482  19.543  0.00  0.00    +0.000 A 
ATOM      4  N   UNL     1       0.662  13.773  20.647  0.00  0.00    +0.000 NA
ATOM      5  C   UNL     1       0.068  12.787  21.343  0.00  0.00    +0.000 A 
ATOM      6  C   UNL     1      -0.721  13.139  22.432  0.00  0.00    +0.000 A 
ATOM      7  C   UNL     1      -1.389  12.187  23.207  0.00  0.00    +0.000 A 
ATOM      8  C   UNL     1      -1.256  10.844  22.901  0.00  0.00    +0.000 A 
ATOM      9  C   UNL     1      -0.464  10.468  21.818  0.00  0.00    +0.000 A 
ATOM     10  C   UNL     1       0.197  11.429  21.004  0.00  0.00    +0.000 A 
ENDROOT
BRANCH   3  11
ATOM     11  C   UNL     1       1.940  14.643  18.815  0.00  0.00    +0.000 A 
ATOM     12  C   UNL     1       1.322  15.902  18.838  0.00  0.00    +0.000 A 
ATOM     13  C   UNL     1       1.887  16.952  18.129  0.00  0.00    +0.000 A 
ATOM     14  N   UNL     1       3.017  16.843  17.403  0.00  0.00    +0.000 NA
ATOM     15  C   UNL     1       3.616  15.635  17.399  0.00  0.00    +0.000 A 
ATOM     16  C   UNL     1       3.125  14.530  18.076  0.00  0.00    +0.000 A 
ENDBRANCH   3  11
BRANCH   1  18
ATOM     17  O   UNL     1       0.511   9.552  18.231  0.00  0.00    +0.000 OA
ATOM     18  C   UNL     1       1.067   9.763  19.304  0.00  0.00    +0.000 C 
ATOM     19  N   UNL     1       1.787   8.835  20.045  0.00  0.00    +0.000 N 
ATOM     20  H   UNL     1       2.100   9.098  20.970  0.00  0.00    +0.000 HD
BRANCH  19  21
ATOM     21  C   UNL     1       2.029   7.492  19.658  0.00  0.00    +0.000 A 
ATOM     22  C   UNL     1       2.605   7.146  18.432  0.00  0.00    +0.000 A 
ATOM     23  C   UNL     1       2.786   5.814  18.071  0.00  0.00    +0.000 A 
ATOM     24  C   UNL     1       2.397   4.801  18.936  0.00  0.00    +0.000 A 
ATOM     25  C   UNL     1       1.860   5.124  20.184  0.00  0.00    +0.000 A 
ATOM     26  C   UNL     1       1.674   6.465  20.546  0.00  0.00    +0.000 A 
ATOM     27  O   UNL     1       1.477   4.173  21.096  0.00  0.00    +0.000 OA
ATOM     28  C   UNL     1       1.995   2.877  20.757  0.00  0.00    +0.000 C 
ATOM     29  C   UNL     1       1.825   2.589  19.274  0.00  0.00    +0.000 C 
ATOM     30  O   UNL     1       2.579   3.519  18.494  0.00  0.00    +0.000 OA
ENDBRANCH  19  21
ENDBRANCH   1  18
TORSDOF 3
ENDMDL
MODEL 9
REMARK VINA RESULT:      -8.3      1.899      2.648
REMARK  Name = 
REMARK  3 active torsions:
REMARK  status: ('A' for Active; 'I' for Inactive)
REMARK    1  A    between atoms: C_2  and  C_14
REMARK    2  A    between atoms: N_3  and  C_4
REMARK    3  A    between atoms: C_16  and  C_17
REMARK                            x       y       z     vdW  Elec       q    Type
REMARK                         _______ _______ _______ _____ _____    ______ ____
ROOT
ATOM      1  C   UNL     1       2.717   6.393  18.408  0.00  0.00    +0.000 A 
ATOM      2  C   UNL     1       3.667   6.350  17.385  0.00  0.00    +0.000 A 
ATOM      3  C   UNL     1       4.467   5.226  17.263  0.00  0.00    +0.000 A 
ATOM      4  N   UNL     1       4.334   4.171  18.100  0.00  0.00    +0.000 NA
ATOM      5  C   UNL     1       3.437   4.212  19.101  0.00  0.00    +0.000 A 
ATOM      6  C   UNL     1       3.380   3.131  19.973  0.00  0.00    +0.000 A 
ATOM      7  C   UNL     1       2.491   3.089  21.051  0.00  0.00    +0.000 A 
ATOM      8  C   UNL     1       1.622   4.145  21.258  0.00  0.00    +0.000 A 
ATOM      9  C   UNL     1       1.656   5.236  20.393  0.00  0.00    +0.000 A 
ATOM     10  C   UNL     1       2.576   5.304  19.310  0.00  0.00    +0.000 A 
ENDROOT
BRANCH   3  11
ATOM     11  C   UNL     1       5.528   5.104  16.243  0.00  0.00    +0.000 A 
ATOM     12  C   UNL     1       6.814   5.632  16.433  0.00  0.00    +0.000 A 
ATOM     13  C   UNL     1       7.764   5.488  15.433  0.00  0.00    +0.000 A 
ATOM     14  N   UNL     1       7.533   4.858  14.265  0.00  0.00    +0.000 NA
ATOM     15  C   UNL     1       6.301   4.337  14.095  0.00  0.00    +0.000 A 
ATOM     16  C   UNL     1       5.288   4.432  15.036  0.00  0.00    +0.000 A 
ENDBRANCH   3  11
BRANCH   1  18
ATOM     17  O   UNL     1       1.512   8.216  17.624  0.00  0.00    +0.000 OA
ATOM     18  C   UNL     1       1.977   7.667  18.617  0.00  0.00    +0.000 C 
ATOM     19  N   UNL     1       1.858   8.115  19.926  0.00  0.00    +0.000 N 
ATOM     20  H   UNL     1       2.383   7.637  20.647  0.00  0.00    +0.000 HD
BRANCH  19  21
ATOM     21  C   UNL     1       1.143   9.270  20.333  0.00  0.00    +0.000 A 
ATOM     22  C   UNL     1       1.158  10.466  19.610  0.00  0.00    +0.000 A 
ATOM     23  C   UNL     1       0.479  11.593  20.065  0.00  0.00    +0.000 A 
ATOM     24  C   UNL     1      -0.234  11.540  21.254  0.00  0.00    +0.000 A 
ATOM     25  C   UNL     1      -0.298  10.343  21.971  0.00  0.00    +0.000 A 
ATOM     26  C   UNL     1       0.389   9.211  21.515  0.00  0.00    +0.000 A 
ATOM     27  O   UNL     1      -1.003  10.216  23.140  0.00  0.00    +0.000 OA
ATOM     28  C   UNL     1      -1.903  11.317  23.339  0.00  0.00    +0.000 C 
ATOM     29  C   UNL     1      -1.224  12.642  23.026  0.00  0.00    +0.000 C 
ATOM     30  O   UNL     1      -0.847  12.699  21.649  0.00  0.00    +0.000 OA
ENDBRANCH  19  21
ENDBRANCH   1  18
TORSDOF 3
ENDMDL
