MODEL 1
REMARK VINA RESULT:      -8.9      0.000      0.000
REMARK  Name = 
REMARK  5 active torsions:
REMARK  status: ('A' for Active; 'I' for Inactive)
REMARK    1  A    between atoms: C_2  and  C_15
REMARK    2  A    between atoms: N_3  and  C_4
REMARK    3  A    between atoms: C_4  and  C_5
REMARK    4  A    between atoms: C_5  and  C_6
REMARK    5  A    between atoms: C_15  and  C_16
REMARK                            x       y       z     vdW  Elec       q    Type
REMARK                         _______ _______ _______ _____ _____    ______ ____
ROOT
ATOM      1  O   UNL     1       2.361   7.273  18.075  0.00  0.00    +0.000 OA
ATOM      2  C   UNL     1       2.457   6.514  19.041  0.00  0.00    +0.000 C 
ATOM      3  N   UNL     1       2.186   6.958  20.318  0.00  0.00    +0.000 N 
ATOM      4  H   UNL     1       2.045   6.288  21.065  0.00  0.00    +0.000 HD
ENDROOT
BRANCH   2   5
ATOM      5  C   UNL     1       2.954   5.031  18.897  0.00  0.00    +0.000 C 
ATOM      6  C   UNL     1       1.947   4.335  17.921  0.00  0.00    +0.000 C 
ATOM      7  C   UNL     1       2.131   2.822  17.817  0.00  0.00    +0.000 C 
ATOM      8  C   UNL     1       2.000   2.152  19.177  0.00  0.00    +0.000 C 
ATOM      9  C   UNL     1       2.941   2.766  20.199  0.00  0.00    +0.000 C 
ATOM     10  C   UNL     1       2.827   4.294  20.265  0.00  0.00    +0.000 C 
BRANCH   5  11
ATOM     11  C   UNL     1       4.380   5.018  18.284  0.00  0.00    +0.000 A 
ATOM     12  C   UNL     1       4.572   4.669  16.929  0.00  0.00    +0.000 A 
ATOM     13  C   UNL     1       5.852   4.554  16.370  0.00  0.00    +0.000 A 
ATOM     14  C   UNL     1       6.978   4.782  17.153  0.00  0.00    +0.000 A 
ATOM     15  C   UNL     1       6.808   5.158  18.476  0.00  0.00    +0.000 A 
ATOM     16  F   UNL     1       7.885   5.373  19.244  0.00  0.00    +0.000 F 
ATOM     17  C   UNL     1       5.537   5.302  19.030  0.00  0.00    +0.000 A 
ENDBRANCH   5  11
ENDBRANCH   2   5
BRANCH   3  18
ATOM     18  C   UNL     1       1.664   8.289  20.584  0.00  0.00    +0.000 C 
BRANCH  18  19
ATOM     19  C   UNL     1       0.350   8.282  21.380  0.00  0.00    +0.000 C 
BRANCH  19  20
ATOM     20  C   UNL     1      -0.067   9.654  21.799  0.00  0.00    +0.000 A 
ATOM     21  N   UNL     1       0.026  10.169  23.011  0.00  0.00    +0.000 NA
ATOM     22  N   UNL     1      -0.447  11.455  22.981  0.00  0.00    +0.000 NA
ATOM     23  C   UNL     1      -0.827  11.714  21.748  0.00  0.00    +0.000 A 
ATOM     24  C   UNL     1      -1.378  12.872  21.135  0.00  0.00    +0.000 A 
ATOM     25  C   UNL     1      -1.697  12.841  19.826  0.00  0.00    +0.000 A 
ATOM     26  C   UNL     1      -1.490  11.645  19.022  0.00  0.00    +0.000 A 
ATOM     27  C   UNL     1      -0.958  10.552  19.598  0.00  0.00    +0.000 A 
ATOM     28  N   UNL     1      -0.625  10.595  20.955  0.00  0.00    +0.000 N 
ENDBRANCH  19  20
ENDBRANCH  18  19
ENDBRANCH   3  18
TORSDOF 5
ENDMDL
MODEL 2
REMARK VINA RESULT:      -8.9      0.947      1.320
REMARK  Name = 
REMARK  5 active torsions:
REMARK  status: ('A' for Active; 'I' for Inactive)
REMARK    1  A    between atoms: C_2  and  C_15
REMARK    2  A    between atoms: N_3  and  C_4
REMARK    3  A    between atoms: C_4  and  C_5
REMARK    4  A    between atoms: C_5  and  C_6
REMARK    5  A    between atoms: C_15  and  C_16
REMARK                            x       y       z     vdW  Elec       q    Type
REMARK                         _______ _______ _______ _____ _____    ______ ____
ROOT
ATOM      1  O   UNL     1       2.717   7.335  18.344  0.00  0.00    +0.000 OA
ATOM      2  C   UNL     1       2.550   6.504  19.239  0.00  0.00    +0.000 C 
ATOM      3  N   UNL     1       2.091   6.888  20.481  0.00  0.00    +0.000 N 
ATOM      4  H   UNL     1       1.742   6.189  21.127  0.00  0.00    +0.000 HD
ENDROOT
BRANCH   2   5
ATOM      5  C   UNL     1       2.908   4.986  19.052  0.00  0.00    +0.000 C 
ATOM      6  C   UNL     1       1.788   4.393  18.132  0.00  0.00    +0.000 C 
ATOM      7  C   UNL     1       1.835   2.871  18.005  0.00  0.00    +0.000 C 
ATOM      8  C   UNL     1       1.726   2.196  19.364  0.00  0.00    +0.000 C 
ATOM      9  C   UNL     1       2.775   2.713  20.333  0.00  0.00    +0.000 C 
ATOM     10  C   UNL     1       2.797   4.244  20.420  0.00  0.00    +0.000 C 
BRANCH   5  11
ATOM     11  C   UNL     1       4.288   4.860  18.355  0.00  0.00    +0.000 A 
ATOM     12  C   UNL     1       5.479   5.039  19.093  0.00  0.00    +0.000 A 
ATOM     13  C   UNL     1       6.738   5.027  18.477  0.00  0.00    +0.000 A 
ATOM     14  C   UNL     1       6.840   4.841  17.103  0.00  0.00    +0.000 A 
ATOM     15  C   UNL     1       5.685   4.631  16.368  0.00  0.00    +0.000 A 
ATOM     16  F   UNL     1       5.769   4.458  15.041  0.00  0.00    +0.000 F 
ATOM     17  C   UNL     1       4.432   4.613  16.979  0.00  0.00    +0.000 A 
ENDBRANCH   5  11
ENDBRANCH   2   5
BRANCH   3  18
ATOM     18  C   UNL     1       1.670   8.250  20.769  0.00  0.00    +0.000 C 
BRANCH  18  19
ATOM     19  C   UNL     1       0.285   8.334  21.427  0.00  0.00    +0.000 C 
BRANCH  19  20
ATOM     20  C   UNL     1      -0.089   9.736  21.784  0.00  0.00    +0.000 A 
ATOM     21  N   UNL     1      -0.012  10.292  22.979  0.00  0.00    +0.000 NA
ATOM     22  N   UNL     1      -0.431  11.593  22.888  0.00  0.00    +0.000 NA
ATOM     23  C   UNL     1      -0.763  11.821  21.636  0.00  0.00    +0.000 A 
ATOM     24  C   UNL     1      -1.248  12.978  20.965  0.00  0.00    +0.000 A 
ATOM     25  C   UNL     1      -1.528  12.912  19.649  0.00  0.00    +0.000 A 
ATOM     26  C   UNL     1      -1.345  11.679  18.894  0.00  0.00    +0.000 A 
ATOM     27  C   UNL     1      -0.876  10.588  19.525  0.00  0.00    +0.000 A 
ATOM     28  N   UNL     1      -0.583  10.667  20.889  0.00  0.00    +0.000 N 
ENDBRANCH  19  20
ENDBRANCH  18  19
ENDBRANCH   3  18
TORSDOF 5
ENDMDL
MODEL 3
REMARK VINA RESULT:      -8.8      1.609      2.502
REMARK  Name = 
REMARK  5 active torsions:
REMARK  status: ('A' for Active; 'I' for Inactive)
REMARK    1  A    between atoms: C_2  and  C_15
REMARK    2  A    between atoms: N_3  and  C_4
REMARK    3  A    between atoms: C_4  and  C_5
REMARK    4  A    between atoms: C_5  and  C_6
REMARK    5  A    between atoms: C_15  and  C_16
REMARK                            x       y       z     vdW  Elec       q    Type
REMARK                         _______ _______ _______ _____ _____    ______ ____
ROOT
ATOM      1  O   UNL     1       3.851   7.869  17.290  0.00  0.00    +0.000 OA
ATOM      2  C   UNL     1       3.009   7.328  18.010  0.00  0.00    +0.000 C 
ATOM      3  N   UNL     1       1.934   8.041  18.496  0.00  0.00    +0.000 N 
ATOM      4  H   UNL     1       1.139   7.549  18.888  0.00  0.00    +0.000 HD
ENDROOT
BRANCH   2   5
ATOM      5  C   UNL     1       3.136   5.832  18.472  0.00  0.00    +0.000 C 
ATOM      6  C   UNL     1       1.992   5.058  17.734  0.00  0.00    +0.000 C 
ATOM      7  C   UNL     1       1.808   3.620  18.216  0.00  0.00    +0.000 C 
ATOM      8  C   UNL     1       1.518   3.567  19.709  0.00  0.00    +0.000 C 
ATOM      9  C   UNL     1       2.577   4.300  20.513  0.00  0.00    +0.000 C 
ATOM     10  C   UNL     1       2.833   5.722  19.998  0.00  0.00    +0.000 C 
BRANCH   5  11
ATOM     11  C   UNL     1       4.517   5.272  18.043  0.00  0.00    +0.000 A 
ATOM     12  C   UNL     1       5.647   5.446  18.871  0.00  0.00    +0.000 A 
ATOM     13  C   UNL     1       6.927   5.038  18.471  0.00  0.00    +0.000 A 
ATOM     14  C   UNL     1       7.113   4.447  17.226  0.00  0.00    +0.000 A 
ATOM     15  C   UNL     1       6.011   4.238  16.413  0.00  0.00    +0.000 A 
ATOM     16  F   UNL     1       6.177   3.677  15.207  0.00  0.00    +0.000 F 
ATOM     17  C   UNL     1       4.731   4.616  16.818  0.00  0.00    +0.000 A 
ENDBRANCH   5  11
ENDBRANCH   2   5
BRANCH   3  18
ATOM     18  C   UNL     1       1.668   9.415  18.101  0.00  0.00    +0.000 C 
BRANCH  18  19
ATOM     19  C   UNL     1       0.174   9.773  18.103  0.00  0.00    +0.000 C 
BRANCH  19  20
ATOM     20  C   UNL     1      -0.180  10.725  19.199  0.00  0.00    +0.000 A 
ATOM     21  N   UNL     1      -0.394  12.022  19.076  0.00  0.00    +0.000 NA
ATOM     22  N   UNL     1      -0.709  12.535  20.308  0.00  0.00    +0.000 NA
ATOM     23  C   UNL     1      -0.684  11.545  21.173  0.00  0.00    +0.000 A 
ATOM     24  C   UNL     1      -0.935  11.484  22.571  0.00  0.00    +0.000 A 
ATOM     25  C   UNL     1      -0.812  10.307  23.216  0.00  0.00    +0.000 A 
ATOM     26  C   UNL     1      -0.425   9.092  22.512  0.00  0.00    +0.000 A 
ATOM     27  C   UNL     1      -0.199   9.146  21.188  0.00  0.00    +0.000 A 
ATOM     28  N   UNL     1      -0.334  10.370  20.525  0.00  0.00    +0.000 N 
ENDBRANCH  19  20
ENDBRANCH  18  19
ENDBRANCH   3  18
TORSDOF 5
ENDMDL
MODEL 4
REMARK VINA RESULT:      -8.8      1.384      2.074
REMARK  Name = 
REMARK  5 active torsions:
REMARK  status: ('A' for Active; 'I' for Inactive)
REMARK    1  A    between atoms: C_2  and  C_15
REMARK    2  A    between atoms: N_3  and  C_4
REMARK    3  A    between atoms: C_4  and  C_5
REMARK    4  A    between atoms: C_5  and  C_6
REMARK    5  A    between atoms: C_15  and  C_16
REMARK                            x       y       z     vdW  Elec       q    Type
REMARK                         _______ _______ _______ _____ _____    ______ ____
ROOT
ATOM      1  O   UNL     1       2.341   6.988  20.145  0.00  0.00    +0.000 OA
ATOM      2  C   UNL     1       2.722   6.584  19.044  0.00  0.00    +0.000 C 
ATOM      3  N   UNL     1       2.725   7.420  17.948  0.00  0.00    +0.000 N 
ATOM      4  H   UNL     1       3.243   7.159  17.117  0.00  0.00    +0.000 HD
ENDROOT
BRANCH   2   5
ATOM      5  C   UNL     1       3.157   5.095  18.802  0.00  0.00    +0.000 C 
ATOM      6  C   UNL     1       2.137   4.514  17.765  0.00  0.00    +0.000 C 
ATOM      7  C   UNL     1       2.259   3.005  17.557  0.00  0.00    +0.000 C 
ATOM      8  C   UNL     1       2.076   2.248  18.864  0.00  0.00    +0.000 C 
ATOM      9  C   UNL     1       3.025   2.746  19.940  0.00  0.00    +0.000 C 
ATOM     10  C   UNL     1       2.975   4.269  20.113  0.00  0.00    +0.000 C 
BRANCH   5  11
ATOM     11  C   UNL     1       4.591   5.063  18.210  0.00  0.00    +0.000 A 
ATOM     12  C   UNL     1       4.798   4.700  16.861  0.00  0.00    +0.000 A 
ATOM     13  C   UNL     1       6.085   4.568  16.320  0.00  0.00    +0.000 A 
ATOM     14  C   UNL     1       7.202   4.791  17.118  0.00  0.00    +0.000 A 
ATOM     15  C   UNL     1       7.018   5.179  18.435  0.00  0.00    +0.000 A 
ATOM     16  F   UNL     1       8.086   5.390  19.217  0.00  0.00    +0.000 F 
ATOM     17  C   UNL     1       5.740   5.341  18.970  0.00  0.00    +0.000 A 
ENDBRANCH   5  11
ENDBRANCH   2   5
BRANCH   3  18
ATOM     18  C   UNL     1       2.399   8.834  18.047  0.00  0.00    +0.000 C 
BRANCH  18  19
ATOM     19  C   UNL     1       0.891   9.107  18.154  0.00  0.00    +0.000 C 
BRANCH  19  20
ATOM     20  C   UNL     1       0.585  10.250  19.067  0.00  0.00    +0.000 A 
ATOM     21  N   UNL     1       0.670  11.535  18.776  0.00  0.00    +0.000 NA
ATOM     22  N   UNL     1       0.288  12.261  19.873  0.00  0.00    +0.000 NA
ATOM     23  C   UNL     1      -0.027  11.412  20.827  0.00  0.00    +0.000 A 
ATOM     24  C   UNL     1      -0.494  11.591  22.158  0.00  0.00    +0.000 A 
ATOM     25  C   UNL     1      -0.720  10.512  22.932  0.00  0.00    +0.000 A 
ATOM     26  C   UNL     1      -0.497   9.161  22.435  0.00  0.00    +0.000 A 
ATOM     27  C   UNL     1      -0.067   8.990  21.173  0.00  0.00    +0.000 A 
ATOM     28  N   UNL     1       0.160  10.115  20.375  0.00  0.00    +0.000 N 
ENDBRANCH  19  20
ENDBRANCH  18  19
ENDBRANCH   3  18
TORSDOF 5
ENDMDL
MODEL 5
REMARK VINA RESULT:      -8.8      1.723      2.031
REMARK  Name = 
REMARK  5 active torsions:
REMARK  status: ('A' for Active; 'I' for Inactive)
REMARK    1  A    between atoms: C_2  and  C_15
REMARK    2  A    between atoms: N_3  and  C_4
REMARK    3  A    between atoms: C_4  and  C_5
REMARK    4  A    between atoms: C_5  and  C_6
REMARK    5  A    between atoms: C_15  and  C_16
REMARK                            x       y       z     vdW  Elec       q    Type
REMARK                         _______ _______ _______ _____ _____    ______ ____
ROOT
ATOM      1  O   UNL     1       2.156   6.699  20.024  0.00  0.00    +0.000 OA
ATOM      2  C   UNL     1       2.733   6.353  18.991  0.00  0.00    +0.000 C 
ATOM      3  N   UNL     1       2.932   7.247  17.961  0.00  0.00    +0.000 N 
ATOM      4  H   UNL     1       3.594   7.029  17.225  0.00  0.00    +0.000 HD
ENDROOT
BRANCH   2   5
ATOM      5  C   UNL     1       3.211   4.877  18.752  0.00  0.00    +0.000 C 
ATOM      6  C   UNL     1       2.180   4.248  17.756  0.00  0.00    +0.000 C 
ATOM      7  C   UNL     1       2.347   2.742  17.561  0.00  0.00    +0.000 C 
ATOM      8  C   UNL     1       2.232   1.995  18.882  0.00  0.00    +0.000 C 
ATOM      9  C   UNL     1       3.197   2.540  19.920  0.00  0.00    +0.000 C 
ATOM     10  C   UNL     1       3.100   4.062  20.078  0.00  0.00    +0.000 C 
BRANCH   5  11
ATOM     11  C   UNL     1       4.626   4.887  18.114  0.00  0.00    +0.000 A 
ATOM     12  C   UNL     1       4.798   4.551  16.753  0.00  0.00    +0.000 A 
ATOM     13  C   UNL     1       6.069   4.457  16.170  0.00  0.00    +0.000 A 
ATOM     14  C   UNL     1       7.206   4.691  16.936  0.00  0.00    +0.000 A 
ATOM     15  C   UNL     1       7.055   5.053  18.264  0.00  0.00    +0.000 A 
ATOM     16  F   UNL     1       8.144   5.274  19.015  0.00  0.00    +0.000 F 
ATOM     17  C   UNL     1       5.793   5.177  18.842  0.00  0.00    +0.000 A 
ENDBRANCH   5  11
ENDBRANCH   2   5
BRANCH   3  18
ATOM     18  C   UNL     1       2.587   8.656  18.075  0.00  0.00    +0.000 C 
BRANCH  18  19
ATOM     19  C   UNL     1       1.195   8.991  17.520  0.00  0.00    +0.000 C 
BRANCH  19  20
ATOM     20  C   UNL     1       0.465   9.975  18.374  0.00  0.00    +0.000 A 
ATOM     21  N   UNL     1       0.946  10.614  19.425  0.00  0.00    +0.000 NA
ATOM     22  N   UNL     1      -0.029  11.439  19.923  0.00  0.00    +0.000 NA
ATOM     23  C   UNL     1      -1.098  11.296  19.171  0.00  0.00    +0.000 A 
ATOM     24  C   UNL     1      -2.386  11.898  19.206  0.00  0.00    +0.000 A 
ATOM     25  C   UNL     1      -3.313  11.535  18.298  0.00  0.00    +0.000 A 
ATOM     26  C   UNL     1      -3.026  10.537  17.277  0.00  0.00    +0.000 A 
ATOM     27  C   UNL     1      -1.805   9.975  17.235  0.00  0.00    +0.000 A 
ATOM     28  N   UNL     1      -0.847  10.361  18.178  0.00  0.00    +0.000 N 
ENDBRANCH  19  20
ENDBRANCH  18  19
ENDBRANCH   3  18
TORSDOF 5
ENDMDL
MODEL 6
REMARK VINA RESULT:      -8.7      1.678      2.458
REMARK  Name = 
REMARK  5 active torsions:
REMARK  status: ('A' for Active; 'I' for Inactive)
REMARK    1  A    between atoms: C_2  and  C_15
REMARK    2  A    between atoms: N_3  and  C_4
REMARK    3  A    between atoms: C_4  and  C_5
REMARK    4  A    between atoms: C_5  and  C_6
REMARK    5  A    between atoms: C_15  and  C_16
REMARK                            x       y       z     vdW  Elec       q    Type
REMARK                         _______ _______ _______ _____ _____    ______ ____
ROOT
ATOM      1  O   UNL     1       2.322   7.057  20.224  0.00  0.00    +0.000 OA
ATOM      2  C   UNL     1       2.617   6.592  19.121  0.00  0.00    +0.000 C 
ATOM      3  N   UNL     1       2.625   7.392  17.998  0.00  0.00    +0.000 N 
ATOM      4  H   UNL     1       3.081   7.068  17.153  0.00  0.00    +0.000 HD
ENDROOT
BRANCH   2   5
ATOM      5  C   UNL     1       2.930   5.068  18.909  0.00  0.00    +0.000 C 
ATOM      6  C   UNL     1       1.806   4.527  17.963  0.00  0.00    +0.000 C 
ATOM      7  C   UNL     1       1.808   3.008  17.806  0.00  0.00    +0.000 C 
ATOM      8  C   UNL     1       1.660   2.310  19.150  0.00  0.00    +0.000 C 
ATOM      9  C   UNL     1       2.711   2.775  20.143  0.00  0.00    +0.000 C 
ATOM     10  C   UNL     1       2.779   4.303  20.260  0.00  0.00    +0.000 C 
BRANCH   5  11
ATOM     11  C   UNL     1       4.316   4.913  18.228  0.00  0.00    +0.000 A 
ATOM     12  C   UNL     1       5.502   5.083  18.976  0.00  0.00    +0.000 A 
ATOM     13  C   UNL     1       6.767   5.045  18.373  0.00  0.00    +0.000 A 
ATOM     14  C   UNL     1       6.880   4.841  17.002  0.00  0.00    +0.000 A 
ATOM     15  C   UNL     1       5.729   4.640  16.258  0.00  0.00    +0.000 A 
ATOM     16  F   UNL     1       5.824   4.450  14.935  0.00  0.00    +0.000 F 
ATOM     17  C   UNL     1       4.470   4.647  16.857  0.00  0.00    +0.000 A 
ENDBRANCH   5  11
ENDBRANCH   2   5
BRANCH   3  18
ATOM     18  C   UNL     1       2.408   8.829  18.064  0.00  0.00    +0.000 C 
BRANCH  18  19
ATOM     19  C   UNL     1       0.924   9.222  18.066  0.00  0.00    +0.000 C 
BRANCH  19  20
ATOM     20  C   UNL     1       0.633  10.336  19.019  0.00  0.00    +0.000 A 
ATOM     21  N   UNL     1       0.745  11.629  18.776  0.00  0.00    +0.000 NA
ATOM     22  N   UNL     1       0.369  12.322  19.898  0.00  0.00    +0.000 NA
ATOM     23  C   UNL     1       0.031  11.444  20.817  0.00  0.00    +0.000 A 
ATOM     24  C   UNL     1      -0.441  11.582  22.151  0.00  0.00    +0.000 A 
ATOM     25  C   UNL     1      -0.693  10.479  22.883  0.00  0.00    +0.000 A 
ATOM     26  C   UNL     1      -0.493   9.144  22.338  0.00  0.00    +0.000 A 
ATOM     27  C   UNL     1      -0.057   9.011  21.073  0.00  0.00    +0.000 A 
ATOM     28  N   UNL     1       0.197  10.161  20.319  0.00  0.00    +0.000 N 
ENDBRANCH  19  20
ENDBRANCH  18  19
ENDBRANCH   3  18
TORSDOF 5
ENDMDL
MODEL 7
REMARK VINA RESULT:      -8.7      1.835      2.310
REMARK  Name = 
REMARK  5 active torsions:
REMARK  status: ('A' for Active; 'I' for Inactive)
REMARK    1  A    between atoms: C_2  and  C_15
REMARK    2  A    between atoms: N_3  and  C_4
REMARK    3  A    between atoms: C_4  and  C_5
REMARK    4  A    between atoms: C_5  and  C_6
REMARK    5  A    between atoms: C_15  and  C_16
REMARK                            x       y       z     vdW  Elec       q    Type
REMARK                         _______ _______ _______ _____ _____    ______ ____
ROOT
ATOM      1  O   UNL     1       2.160   6.855  20.093  0.00  0.00    +0.000 OA
ATOM      2  C   UNL     1       2.679   6.417  19.065  0.00  0.00    +0.000 C 
ATOM      3  N   UNL     1       2.870   7.233  17.969  0.00  0.00    +0.000 N 
ATOM      4  H   UNL     1       3.492   6.938  17.225  0.00  0.00    +0.000 HD
ENDROOT
BRANCH   2   5
ATOM      5  C   UNL     1       3.088   4.909  18.907  0.00  0.00    +0.000 C 
ATOM      6  C   UNL     1       2.097   4.305  17.855  0.00  0.00    +0.000 C 
ATOM      7  C   UNL     1       2.191   2.786  17.720  0.00  0.00    +0.000 C 
ATOM      8  C   UNL     1       1.937   2.093  19.050  0.00  0.00    +0.000 C 
ATOM      9  C   UNL     1       2.853   2.618  20.141  0.00  0.00    +0.000 C 
ATOM     10  C   UNL     1       2.833   4.149  20.245  0.00  0.00    +0.000 C 
BRANCH   5  11
ATOM     11  C   UNL     1       4.543   4.819  18.377  0.00  0.00    +0.000 A 
ATOM     12  C   UNL     1       5.624   5.241  19.182  0.00  0.00    +0.000 A 
ATOM     13  C   UNL     1       6.940   5.263  18.700  0.00  0.00    +0.000 A 
ATOM     14  C   UNL     1       7.211   4.868  17.395  0.00  0.00    +0.000 A 
ATOM     15  C   UNL     1       6.168   4.420  16.601  0.00  0.00    +0.000 A 
ATOM     16  F   UNL     1       6.415   4.043  15.338  0.00  0.00    +0.000 F 
ATOM     17  C   UNL     1       4.861   4.368  17.084  0.00  0.00    +0.000 A 
ENDBRANCH   5  11
ENDBRANCH   2   5
BRANCH   3  18
ATOM     18  C   UNL     1       2.587   8.659  18.001  0.00  0.00    +0.000 C 
BRANCH  18  19
ATOM     19  C   UNL     1       1.166   9.010  17.538  0.00  0.00    +0.000 C 
BRANCH  19  20
ATOM     20  C   UNL     1       0.486   9.966  18.464  0.00  0.00    +0.000 A 
ATOM     21  N   UNL     1       1.005  10.516  19.545  0.00  0.00    +0.000 NA
ATOM     22  N   UNL     1       0.070  11.345  20.109  0.00  0.00    +0.000 NA
ATOM     23  C   UNL     1      -1.013  11.293  19.366  0.00  0.00    +0.000 A 
ATOM     24  C   UNL     1      -2.276  11.941  19.458  0.00  0.00    +0.000 A 
ATOM     25  C   UNL     1      -3.228  11.673  18.543  0.00  0.00    +0.000 A 
ATOM     26  C   UNL     1      -2.993  10.731  17.456  0.00  0.00    +0.000 A 
ATOM     27  C   UNL     1      -1.796  10.126  17.361  0.00  0.00    +0.000 A 
ATOM     28  N   UNL     1      -0.812  10.414  18.312  0.00  0.00    +0.000 N 
ENDBRANCH  19  20
ENDBRANCH  18  19
ENDBRANCH   3  18
TORSDOF 5
ENDMDL
MODEL 8
REMARK VINA RESULT:      -8.7      2.054      2.752
REMARK  Name = 
REMARK  5 active torsions:
REMARK  status: ('A' for Active; 'I' for Inactive)
REMARK    1  A    between atoms: C_2  and  C_15
REMARK    2  A    between atoms: N_3  and  C_4
REMARK    3  A    between atoms: C_4  and  C_5
REMARK    4  A    between atoms: C_5  and  C_6
REMARK    5  A    between atoms: C_15  and  C_16
REMARK                            x       y       z     vdW  Elec       q    Type
REMARK                         _______ _______ _______ _____ _____    ______ ____
ROOT
ATOM      1  O   UNL     1       2.994   7.700  17.440  0.00  0.00    +0.000 OA
ATOM      2  C   UNL     1       2.499   7.202  18.453  0.00  0.00    +0.000 C 
ATOM      3  N   UNL     1       1.807   7.981  19.356  0.00  0.00    +0.000 N 
ATOM      4  H   UNL     1       1.217   7.541  20.053  0.00  0.00    +0.000 HD
ENDROOT
BRANCH   2   5
ATOM      5  C   UNL     1       2.677   5.685  18.815  0.00  0.00    +0.000 C 
ATOM      6  C   UNL     1       1.619   4.913  17.957  0.00  0.00    +0.000 C 
ATOM      7  C   UNL     1       1.483   3.436  18.325  0.00  0.00    +0.000 C 
ATOM      8  C   UNL     1       1.112   3.260  19.790  0.00  0.00    +0.000 C 
ATOM      9  C   UNL     1       2.085   3.982  20.706  0.00  0.00    +0.000 C 
ATOM     10  C   UNL     1       2.295   5.449  20.309  0.00  0.00    +0.000 C 
BRANCH   5  11
ATOM     11  C   UNL     1       4.108   5.224  18.431  0.00  0.00    +0.000 A 
ATOM     12  C   UNL     1       5.194   5.471  19.299  0.00  0.00    +0.000 A 
ATOM     13  C   UNL     1       6.512   5.155  18.941  0.00  0.00    +0.000 A 
ATOM     14  C   UNL     1       6.781   4.586  17.701  0.00  0.00    +0.000 A 
ATOM     15  C   UNL     1       5.724   4.307  16.850  0.00  0.00    +0.000 A 
ATOM     16  F   UNL     1       5.970   3.766  15.648  0.00  0.00    +0.000 F 
ATOM     17  C   UNL     1       4.408   4.592  17.212  0.00  0.00    +0.000 A 
ENDBRANCH   5  11
ENDBRANCH   2   5
BRANCH   3  18
ATOM     18  C   UNL     1       1.522   9.387  19.113  0.00  0.00    +0.000 C 
BRANCH  18  19
ATOM     19  C   UNL     1       0.527   9.619  17.967  0.00  0.00    +0.000 C 
BRANCH  19  20
ATOM     20  C   UNL     1      -0.667  10.406  18.402  0.00  0.00    +0.000 A 
ATOM     21  N   UNL     1      -0.791  11.093  19.522  0.00  0.00    +0.000 NA
ATOM     22  N   UNL     1      -2.027  11.686  19.541  0.00  0.00    +0.000 NA
ATOM     23  C   UNL     1      -2.647  11.354  18.430  0.00  0.00    +0.000 A 
ATOM     24  C   UNL     1      -3.931  11.680  17.912  0.00  0.00    +0.000 A 
ATOM     25  C   UNL     1      -4.318  11.166  16.728  0.00  0.00    +0.000 A 
ATOM     26  C   UNL     1      -3.449  10.281  15.963  0.00  0.00    +0.000 A 
ATOM     27  C   UNL     1      -2.231   9.982  16.447  0.00  0.00    +0.000 A 
ATOM     28  N   UNL     1      -1.835  10.523  17.673  0.00  0.00    +0.000 N 
ENDBRANCH  19  20
ENDBRANCH  18  19
ENDBRANCH   3  18
TORSDOF 5
ENDMDL
MODEL 9
REMARK VINA RESULT:      -8.6      4.176      7.230
REMARK  Name = 
REMARK  5 active torsions:
REMARK  status: ('A' for Active; 'I' for Inactive)
REMARK    1  A    between atoms: C_2  and  C_15
REMARK    2  A    between atoms: N_3  and  C_4
REMARK    3  A    between atoms: C_4  and  C_5
REMARK    4  A    between atoms: C_5  and  C_6
REMARK    5  A    between atoms: C_15  and  C_16
REMARK                            x       y       z     vdW  Elec       q    Type
REMARK                         _______ _______ _______ _____ _____    ______ ____
ROOT
ATOM      1  O   UNL     1       5.292   3.198  19.903  0.00  0.00    +0.000 OA
ATOM      2  C   UNL     1       4.705   4.214  19.526  0.00  0.00    +0.000 C 
ATOM      3  N   UNL     1       5.381   5.408  19.388  0.00  0.00    +0.000 N 
ATOM      4  H   UNL     1       4.957   6.169  18.869  0.00  0.00    +0.000 HD
ENDROOT
BRANCH   2   5
ATOM      5  C   UNL     1       3.159   4.238  19.250  0.00  0.00    +0.000 C 
ATOM      6  C   UNL     1       2.501   3.447  20.430  0.00  0.00    +0.000 C 
ATOM      7  C   UNL     1       1.012   3.169  20.234  0.00  0.00    +0.000 C 
ATOM      8  C   UNL     1       0.756   2.389  18.953  0.00  0.00    +0.000 C 
ATOM      9  C   UNL     1       1.365   3.080  17.744  0.00  0.00    +0.000 C 
ATOM     10  C   UNL     1       2.842   3.437  17.949  0.00  0.00    +0.000 C 
BRANCH   5  11
ATOM     11  C   UNL     1       2.654   5.705  19.248  0.00  0.00    +0.000 A 
ATOM     12  C   UNL     1       2.725   6.483  18.072  0.00  0.00    +0.000 A 
ATOM     13  C   UNL     1       2.368   7.838  18.060  0.00  0.00    +0.000 A 
ATOM     14  C   UNL     1       1.933   8.455  19.228  0.00  0.00    +0.000 A 
ATOM     15  C   UNL     1       1.826   7.699  20.384  0.00  0.00    +0.000 A 
ATOM     16  F   UNL     1       1.416   8.284  21.518  0.00  0.00    +0.000 F 
ATOM     17  C   UNL     1       2.152   6.343  20.395  0.00  0.00    +0.000 A 
ENDBRANCH   5  11
ENDBRANCH   2   5
BRANCH   3  18
ATOM     18  C   UNL     1       6.822   5.512  19.558  0.00  0.00    +0.000 C 
BRANCH  18  19
ATOM     19  C   UNL     1       7.518   6.269  18.417  0.00  0.00    +0.000 C 
BRANCH  19  20
ATOM     20  C   UNL     1       6.633   6.439  17.225  0.00  0.00    +0.000 A 
ATOM     21  N   UNL     1       5.953   7.522  16.898  0.00  0.00    +0.000 NA
ATOM     22  N   UNL     1       5.278   7.282  15.729  0.00  0.00    +0.000 NA
ATOM     23  C   UNL     1       5.553   6.052  15.353  0.00  0.00    +0.000 A 
ATOM     24  C   UNL     1       5.150   5.278  14.230  0.00  0.00    +0.000 A 
ATOM     25  C   UNL     1       5.582   4.007  14.112  0.00  0.00    +0.000 A 
ATOM     26  C   UNL     1       6.455   3.405  15.111  0.00  0.00    +0.000 A 
ATOM     27  C   UNL     1       6.846   4.140  16.167  0.00  0.00    +0.000 A 
ATOM     28  N   UNL     1       6.397   5.460  16.279  0.00  0.00    +0.000 N 
ENDBRANCH  19  20
ENDBRANCH  18  19
ENDBRANCH   3  18
TORSDOF 5
ENDMDL
