MODEL 1
REMARK VINA RESULT:      -8.7      0.000      0.000
REMARK  Name = 
REMARK  7 active torsions:
REMARK  status: ('A' for Active; 'I' for Inactive)
REMARK    1  A    between atoms: C_1  and  C_2
REMARK    2  A    between atoms: C_9  and  N_10
REMARK    3  A    between atoms: C_11  and  C_13
REMARK    4  A    between atoms: C_13  and  N_14
REMARK    5  A    between atoms: N_14  and  C_15
REMARK    6  A    between atoms: C_18  and  C_19
REMARK    7  A    between atoms: C_20  and  C_21
REMARK                            x       y       z     vdW  Elec       q    Type
REMARK                         _______ _______ _______ _____ _____    ______ ____
ROOT
ATOM      1  N   UNL     1       2.387   5.246  21.056  0.00  0.00    +0.000 N 
ATOM      2  C   UNL     1       1.653   4.091  20.837  0.00  0.00    +0.000 C 
ATOM      3  O   UNL     1       0.625   4.038  20.165  0.00  0.00    +0.000 OA
ATOM      4  H   UNL     1       3.180   5.219  21.683  0.00  0.00    +0.000 HD
ENDROOT
BRANCH   1  13
ATOM      5  C   UNL     1       0.222  12.582  18.786  0.00  0.00    +0.000 C 
ATOM      6  C   UNL     1       0.328  11.367  19.681  0.00  0.00    +0.000 C 
ATOM      7  O   UNL     1      -0.208  11.382  20.787  0.00  0.00    +0.000 OA
ATOM      8  N   UNL     1       1.030  10.301  19.147  0.00  0.00    +0.000 N 
ATOM      9  C   UNL     1       1.783  10.318  17.881  0.00  0.00    +0.000 C 
ATOM     10  C   UNL     1       2.352   8.912  17.661  0.00  0.00    +0.000 C 
ATOM     11  C   UNL     1       2.040   8.242  18.961  0.00  0.00    +0.000 A 
ATOM     12  C   UNL     1       2.419   6.968  19.364  0.00  0.00    +0.000 A 
ATOM     13  C   UNL     1       1.964   6.503  20.599  0.00  0.00    +0.000 A 
ATOM     14  C   UNL     1       1.147   7.306  21.409  0.00  0.00    +0.000 A 
ATOM     15  C   UNL     1       0.778   8.592  20.991  0.00  0.00    +0.000 A 
ATOM     16  C   UNL     1       1.241   9.055  19.769  0.00  0.00    +0.000 A 
ENDBRANCH   1  13
BRANCH   2  17
ATOM     17  C   UNL     1       2.287   2.826  21.435  0.00  0.00    +0.000 C 
BRANCH  17  18
ATOM     18  N   UNL     1       3.469   2.464  20.652  0.00  0.00    +0.000 N 
ATOM     19  H   UNL     1       4.289   2.303  21.238  0.00  0.00    +0.000 HD
BRANCH  18  20
ATOM     20  C   UNL     1       3.796   3.103  19.459  0.00  0.00    +0.000 A 
ATOM     21  C   UNL     1       3.196   2.844  18.229  0.00  0.00    +0.000 A 
ATOM     22  C   UNL     1       3.675   3.435  17.051  0.00  0.00    +0.000 A 
ATOM     23  C   UNL     1       4.798   4.277  17.060  0.00  0.00    +0.000 A 
ATOM     24  C   UNL     1       5.309   4.820  15.752  0.00  0.00    +0.000 C 
ATOM     25  C   UNL     1       5.425   4.552  18.288  0.00  0.00    +0.000 A 
ATOM     26  C   UNL     1       4.904   3.962  19.463  0.00  0.00    +0.000 A 
BRANCH  25  27
ATOM     27  C   UNL     1       6.650   5.426  18.449  0.00  0.00    +0.000 C 
ATOM     28  F   UNL     1       7.050   5.643  19.731  0.00  0.00    +0.000 F 
ATOM     29  F   UNL     1       7.738   4.909  17.809  0.00  0.00    +0.000 F 
ATOM     30  F   UNL     1       6.467   6.667  17.912  0.00  0.00    +0.000 F 
ENDBRANCH  25  27
ENDBRANCH  18  20
ENDBRANCH  17  18
ENDBRANCH   2  17
TORSDOF 5
ENDMDL
MODEL 2
REMARK VINA RESULT:      -8.7      1.495      2.372
REMARK  Name = 
REMARK  7 active torsions:
REMARK  status: ('A' for Active; 'I' for Inactive)
REMARK    1  A    between atoms: C_1  and  C_2
REMARK    2  A    between atoms: C_9  and  N_10
REMARK    3  A    between atoms: C_11  and  C_13
REMARK    4  A    between atoms: C_13  and  N_14
REMARK    5  A    between atoms: N_14  and  C_15
REMARK    6  A    between atoms: C_18  and  C_19
REMARK    7  A    between atoms: C_20  and  C_21
REMARK                            x       y       z     vdW  Elec       q    Type
REMARK                         _______ _______ _______ _____ _____    ______ ____
ROOT
ATOM      1  N   UNL     1       2.558   6.561  20.408  0.00  0.00    +0.000 N 
ATOM      2  C   UNL     1       1.946   5.323  20.516  0.00  0.00    +0.000 C 
ATOM      3  O   UNL     1       0.728   5.148  20.522  0.00  0.00    +0.000 OA
ATOM      4  H   UNL     1       3.565   6.626  20.487  0.00  0.00    +0.000 HD
ENDROOT
BRANCH   1  13
ATOM      5  C   UNL     1      -1.885  13.180  20.063  0.00  0.00    +0.000 C 
ATOM      6  C   UNL     1      -1.019  12.046  19.558  0.00  0.00    +0.000 C 
ATOM      7  O   UNL     1      -0.756  11.973  18.361  0.00  0.00    +0.000 OA
ATOM      8  N   UNL     1      -0.570  11.170  20.531  0.00  0.00    +0.000 N 
ATOM      9  C   UNL     1      -0.983  11.173  21.945  0.00  0.00    +0.000 C 
ATOM     10  C   UNL     1      -0.196  10.069  22.661  0.00  0.00    +0.000 C 
ATOM     11  C   UNL     1       0.469   9.370  21.518  0.00  0.00    +0.000 A 
ATOM     12  C   UNL     1       1.239   8.215  21.572  0.00  0.00    +0.000 A 
ATOM     13  C   UNL     1       1.831   7.761  20.391  0.00  0.00    +0.000 A 
ATOM     14  C   UNL     1       1.648   8.455  19.186  0.00  0.00    +0.000 A 
ATOM     15  C   UNL     1       0.864   9.617  19.148  0.00  0.00    +0.000 A 
ATOM     16  C   UNL     1       0.269  10.058  20.319  0.00  0.00    +0.000 A 
ENDBRANCH   1  13
BRANCH   2  17
ATOM     17  C   UNL     1       2.926   4.141  20.533  0.00  0.00    +0.000 C 
BRANCH  17  18
ATOM     18  N   UNL     1       2.993   3.552  19.194  0.00  0.00    +0.000 N 
ATOM     19  H   UNL     1       2.884   2.537  19.210  0.00  0.00    +0.000 HD
BRANCH  18  20
ATOM     20  C   UNL     1       3.926   3.964  18.246  0.00  0.00    +0.000 A 
ATOM     21  C   UNL     1       3.815   3.743  16.875  0.00  0.00    +0.000 A 
ATOM     22  C   UNL     1       4.863   4.071  16.002  0.00  0.00    +0.000 A 
ATOM     23  C   UNL     1       6.074   4.597  16.479  0.00  0.00    +0.000 A 
ATOM     24  C   UNL     1       7.188   4.858  15.500  0.00  0.00    +0.000 C 
ATOM     25  C   UNL     1       6.213   4.826  17.860  0.00  0.00    +0.000 A 
ATOM     26  C   UNL     1       5.130   4.508  18.712  0.00  0.00    +0.000 A 
BRANCH  25  27
ATOM     27  C   UNL     1       7.462   5.371  18.517  0.00  0.00    +0.000 C 
ATOM     28  F   UNL     1       7.905   6.563  18.034  0.00  0.00    +0.000 F 
ATOM     29  F   UNL     1       7.298   5.559  19.858  0.00  0.00    +0.000 F 
ATOM     30  F   UNL     1       8.520   4.517  18.395  0.00  0.00    +0.000 F 
ENDBRANCH  25  27
ENDBRANCH  18  20
ENDBRANCH  17  18
ENDBRANCH   2  17
TORSDOF 5
ENDMDL
MODEL 3
REMARK VINA RESULT:      -8.6      0.811      1.083
REMARK  Name = 
REMARK  7 active torsions:
REMARK  status: ('A' for Active; 'I' for Inactive)
REMARK    1  A    between atoms: C_1  and  C_2
REMARK    2  A    between atoms: C_9  and  N_10
REMARK    3  A    between atoms: C_11  and  C_13
REMARK    4  A    between atoms: C_13  and  N_14
REMARK    5  A    between atoms: N_14  and  C_15
REMARK    6  A    between atoms: C_18  and  C_19
REMARK    7  A    between atoms: C_20  and  C_21
REMARK                            x       y       z     vdW  Elec       q    Type
REMARK                         _______ _______ _______ _____ _____    ______ ____
ROOT
ATOM      1  N   UNL     1       2.558   5.739  20.737  0.00  0.00    +0.000 N 
ATOM      2  C   UNL     1       1.919   4.516  20.621  0.00  0.00    +0.000 C 
ATOM      3  O   UNL     1       0.766   4.368  20.220  0.00  0.00    +0.000 OA
ATOM      4  H   UNL     1       3.482   5.781  21.147  0.00  0.00    +0.000 HD
ENDROOT
BRANCH   1  13
ATOM      5  C   UNL     1      -0.932  12.836  19.674  0.00  0.00    +0.000 C 
ATOM      6  C   UNL     1      -0.556  11.552  20.381  0.00  0.00    +0.000 C 
ATOM      7  O   UNL     1      -0.985  11.335  21.511  0.00  0.00    +0.000 OA
ATOM      8  N   UNL     1       0.255  10.696  19.656  0.00  0.00    +0.000 N 
ATOM      9  C   UNL     1       0.879  11.001  18.356  0.00  0.00    +0.000 C 
ATOM     10  C   UNL     1       1.641   9.751  17.902  0.00  0.00    +0.000 C 
ATOM     11  C   UNL     1       1.557   8.878  19.114  0.00  0.00    +0.000 A 
ATOM     12  C   UNL     1       2.166   7.644  19.306  0.00  0.00    +0.000 A 
ATOM     13  C   UNL     1       1.903   6.956  20.492  0.00  0.00    +0.000 A 
ATOM     14  C   UNL     1       1.046   7.500  21.460  0.00  0.00    +0.000 A 
ATOM     15  C   UNL     1       0.442   8.748  21.253  0.00  0.00    +0.000 A 
ATOM     16  C   UNL     1       0.715   9.434  20.080  0.00  0.00    +0.000 A 
ENDBRANCH   1  13
BRANCH   2  17
ATOM     17  C   UNL     1       2.813   3.311  20.951  0.00  0.00    +0.000 C 
BRANCH  17  18
ATOM     18  N   UNL     1       3.253   2.683  19.704  0.00  0.00    +0.000 N 
ATOM     19  H   UNL     1       3.686   1.772  19.859  0.00  0.00    +0.000 HD
BRANCH  18  20
ATOM     20  C   UNL     1       3.889   3.400  18.694  0.00  0.00    +0.000 A 
ATOM     21  C   UNL     1       3.485   3.423  17.361  0.00  0.00    +0.000 A 
ATOM     22  C   UNL     1       4.259   4.062  16.381  0.00  0.00    +0.000 A 
ATOM     23  C   UNL     1       5.486   4.667  16.698  0.00  0.00    +0.000 A 
ATOM     24  C   UNL     1       6.306   5.270  15.589  0.00  0.00    +0.000 C 
ATOM     25  C   UNL     1       5.918   4.654  18.036  0.00  0.00    +0.000 A 
ATOM     26  C   UNL     1       5.105   4.024  19.006  0.00  0.00    +0.000 A 
BRANCH  25  27
ATOM     27  C   UNL     1       7.222   5.250  18.521  0.00  0.00    +0.000 C 
ATOM     28  F   UNL     1       8.338   4.525  18.238  0.00  0.00    +0.000 F 
ATOM     29  F   UNL     1       7.448   6.488  17.996  0.00  0.00    +0.000 F 
ATOM     30  F   UNL     1       7.235   5.420  19.875  0.00  0.00    +0.000 F 
ENDBRANCH  25  27
ENDBRANCH  18  20
ENDBRANCH  17  18
ENDBRANCH   2  17
TORSDOF 5
ENDMDL
MODEL 4
REMARK VINA RESULT:      -8.5      1.650      2.244
REMARK  Name = 
REMARK  7 active torsions:
REMARK  status: ('A' for Active; 'I' for Inactive)
REMARK    1  A    between atoms: C_1  and  C_2
REMARK    2  A    between atoms: C_9  and  N_10
REMARK    3  A    between atoms: C_11  and  C_13
REMARK    4  A    between atoms: C_13  and  N_14
REMARK    5  A    between atoms: N_14  and  C_15
REMARK    6  A    between atoms: C_18  and  C_19
REMARK    7  A    between atoms: C_20  and  C_21
REMARK                            x       y       z     vdW  Elec       q    Type
REMARK                         _______ _______ _______ _____ _____    ______ ____
ROOT
ATOM      1  N   UNL     1       2.746   5.356  20.396  0.00  0.00    +0.000 N 
ATOM      2  C   UNL     1       2.340   4.229  19.701  0.00  0.00    +0.000 C 
ATOM      3  O   UNL     1       1.469   4.224  18.833  0.00  0.00    +0.000 OA
ATOM      4  H   UNL     1       3.417   5.262  21.148  0.00  0.00    +0.000 HD
ENDROOT
BRANCH   1  13
ATOM      5  C   UNL     1      -0.562  12.596  19.834  0.00  0.00    +0.000 C 
ATOM      6  C   UNL     1      -0.223  11.254  20.447  0.00  0.00    +0.000 C 
ATOM      7  O   UNL     1      -0.668  10.965  21.555  0.00  0.00    +0.000 OA
ATOM      8  N   UNL     1       0.574  10.435  19.667  0.00  0.00    +0.000 N 
ATOM      9  C   UNL     1       1.217  10.819  18.398  0.00  0.00    +0.000 C 
ATOM     10  C   UNL     1       1.953   9.587  17.859  0.00  0.00    +0.000 C 
ATOM     11  C   UNL     1       1.836   8.630  19.001  0.00  0.00    +0.000 A 
ATOM     12  C   UNL     1       2.414   7.371  19.107  0.00  0.00    +0.000 A 
ATOM     13  C   UNL     1       2.123   6.603  20.236  0.00  0.00    +0.000 A 
ATOM     14  C   UNL     1       1.270   7.095  21.236  0.00  0.00    +0.000 A 
ATOM     15  C   UNL     1       0.699   8.370  21.117  0.00  0.00    +0.000 A 
ATOM     16  C   UNL     1       0.999   9.134  20.000  0.00  0.00    +0.000 A 
ENDBRANCH   1  13
BRANCH   2  17
ATOM     17  C   UNL     1       3.145   2.965  20.037  0.00  0.00    +0.000 C 
BRANCH  17  18
ATOM     18  N   UNL     1       4.134   2.730  18.983  0.00  0.00    +0.000 N 
ATOM     19  H   UNL     1       4.580   1.816  19.064  0.00  0.00    +0.000 HD
BRANCH  18  20
ATOM     20  C   UNL     1       5.029   3.714  18.570  0.00  0.00    +0.000 A 
ATOM     21  C   UNL     1       5.802   4.494  19.426  0.00  0.00    +0.000 A 
ATOM     22  C   UNL     1       6.578   5.555  18.937  0.00  0.00    +0.000 A 
ATOM     23  C   UNL     1       6.574   5.896  17.574  0.00  0.00    +0.000 A 
ATOM     24  C   UNL     1       7.369   7.092  17.122  0.00  0.00    +0.000 C 
ATOM     25  C   UNL     1       5.798   5.126  16.689  0.00  0.00    +0.000 A 
ATOM     26  C   UNL     1       5.046   4.047  17.208  0.00  0.00    +0.000 A 
BRANCH  25  27
ATOM     27  C   UNL     1       5.685   5.385  15.202  0.00  0.00    +0.000 C 
ATOM     28  F   UNL     1       6.863   5.430  14.524  0.00  0.00    +0.000 F 
ATOM     29  F   UNL     1       4.936   4.435  14.571  0.00  0.00    +0.000 F 
ATOM     30  F   UNL     1       5.068   6.572  14.934  0.00  0.00    +0.000 F 
ENDBRANCH  25  27
ENDBRANCH  18  20
ENDBRANCH  17  18
ENDBRANCH   2  17
TORSDOF 5
ENDMDL
MODEL 5
REMARK VINA RESULT:      -8.4      2.828      4.059
REMARK  Name = 
REMARK  7 active torsions:
REMARK  status: ('A' for Active; 'I' for Inactive)
REMARK    1  A    between atoms: C_1  and  C_2
REMARK    2  A    between atoms: C_9  and  N_10
REMARK    3  A    between atoms: C_11  and  C_13
REMARK    4  A    between atoms: C_13  and  N_14
REMARK    5  A    between atoms: N_14  and  C_15
REMARK    6  A    between atoms: C_18  and  C_19
REMARK    7  A    between atoms: C_20  and  C_21
REMARK                            x       y       z     vdW  Elec       q    Type
REMARK                         _______ _______ _______ _____ _____    ______ ____
ROOT
ATOM      1  N   UNL     1       3.675   6.325  17.858  0.00  0.00    +0.000 N 
ATOM      2  C   UNL     1       5.013   6.507  17.553  0.00  0.00    +0.000 C 
ATOM      3  O   UNL     1       5.640   7.544  17.765  0.00  0.00    +0.000 OA
ATOM      4  H   UNL     1       3.215   5.467  17.583  0.00  0.00    +0.000 HD
ENDROOT
BRANCH   1  13
ATOM      5  C   UNL     1      -1.217  12.082  20.425  0.00  0.00    +0.000 C 
ATOM      6  C   UNL     1      -0.338  11.319  19.459  0.00  0.00    +0.000 C 
ATOM      7  O   UNL     1      -0.205  11.730  18.309  0.00  0.00    +0.000 OA
ATOM      8  N   UNL     1       0.274  10.194  19.982  0.00  0.00    +0.000 N 
ATOM      9  C   UNL     1       0.021   9.622  21.316  0.00  0.00    +0.000 C 
ATOM     10  C   UNL     1       0.956   8.419  21.490  0.00  0.00    +0.000 C 
ATOM     11  C   UNL     1       1.536   8.275  20.119  0.00  0.00    +0.000 A 
ATOM     12  C   UNL     1       2.384   7.272  19.666  0.00  0.00    +0.000 A 
ATOM     13  C   UNL     1       2.870   7.360  18.359  0.00  0.00    +0.000 A 
ATOM     14  C   UNL     1       2.509   8.433  17.532  0.00  0.00    +0.000 A 
ATOM     15  C   UNL     1       1.649   9.435  18.003  0.00  0.00    +0.000 A 
ATOM     16  C   UNL     1       1.158   9.338  19.296  0.00  0.00    +0.000 A 
ENDBRANCH   1  13
BRANCH   2  17
ATOM     17  C   UNL     1       5.705   5.251  17.001  0.00  0.00    +0.000 C 
BRANCH  17  18
ATOM     18  N   UNL     1       5.602   4.173  17.986  0.00  0.00    +0.000 N 
ATOM     19  H   UNL     1       6.392   3.529  17.942  0.00  0.00    +0.000 HD
BRANCH  18  20
ATOM     20  C   UNL     1       4.403   3.514  18.246  0.00  0.00    +0.000 A 
ATOM     21  C   UNL     1       3.759   2.659  17.355  0.00  0.00    +0.000 A 
ATOM     22  C   UNL     1       2.487   2.141  17.641  0.00  0.00    +0.000 A 
ATOM     23  C   UNL     1       1.800   2.494  18.814  0.00  0.00    +0.000 A 
ATOM     24  C   UNL     1       0.407   1.965  19.028  0.00  0.00    +0.000 C 
ATOM     25  C   UNL     1       2.428   3.360  19.727  0.00  0.00    +0.000 A 
ATOM     26  C   UNL     1       3.721   3.846  19.424  0.00  0.00    +0.000 A 
BRANCH  25  27
ATOM     27  C   UNL     1       1.805   3.839  21.021  0.00  0.00    +0.000 C 
ATOM     28  F   UNL     1       1.392   2.859  21.870  0.00  0.00    +0.000 F 
ATOM     29  F   UNL     1       2.659   4.615  21.747  0.00  0.00    +0.000 F 
ATOM     30  F   UNL     1       0.704   4.615  20.802  0.00  0.00    +0.000 F 
ENDBRANCH  25  27
ENDBRANCH  18  20
ENDBRANCH  17  18
ENDBRANCH   2  17
TORSDOF 5
ENDMDL
MODEL 6
REMARK VINA RESULT:      -8.4      3.038      3.988
REMARK  Name = 
REMARK  7 active torsions:
REMARK  status: ('A' for Active; 'I' for Inactive)
REMARK    1  A    between atoms: C_1  and  C_2
REMARK    2  A    between atoms: C_9  and  N_10
REMARK    3  A    between atoms: C_11  and  C_13
REMARK    4  A    between atoms: C_13  and  N_14
REMARK    5  A    between atoms: N_14  and  C_15
REMARK    6  A    between atoms: C_18  and  C_19
REMARK    7  A    between atoms: C_20  and  C_21
REMARK                            x       y       z     vdW  Elec       q    Type
REMARK                         _______ _______ _______ _____ _____    ______ ____
ROOT
ATOM      1  N   UNL     1       3.091   5.182  18.668  0.00  0.00    +0.000 N 
ATOM      2  C   UNL     1       4.411   4.875  18.953  0.00  0.00    +0.000 C 
ATOM      3  O   UNL     1       5.149   5.561  19.657  0.00  0.00    +0.000 OA
ATOM      4  H   UNL     1       2.575   4.603  18.018  0.00  0.00    +0.000 HD
ENDROOT
BRANCH   1  13
ATOM      5  C   UNL     1       0.018  12.044  21.340  0.00  0.00    +0.000 C 
ATOM      6  C   UNL     1       0.497  10.610  21.392  0.00  0.00    +0.000 C 
ATOM      7  O   UNL     1       0.434   9.989  22.450  0.00  0.00    +0.000 OA
ATOM      8  N   UNL     1       0.964  10.101  20.193  0.00  0.00    +0.000 N 
ATOM      9  C   UNL     1       1.164  10.873  18.953  0.00  0.00    +0.000 C 
ATOM     10  C   UNL     1       1.639   9.897  17.871  0.00  0.00    +0.000 C 
ATOM     11  C   UNL     1       1.877   8.648  18.659  0.00  0.00    +0.000 A 
ATOM     12  C   UNL     1       2.416   7.453  18.201  0.00  0.00    +0.000 A 
ATOM     13  C   UNL     1       2.490   6.378  19.090  0.00  0.00    +0.000 A 
ATOM     14  C   UNL     1       2.032   6.508  20.409  0.00  0.00    +0.000 A 
ATOM     15  C   UNL     1       1.495   7.723  20.858  0.00  0.00    +0.000 A 
ATOM     16  C   UNL     1       1.434   8.791  19.977  0.00  0.00    +0.000 A 
ENDBRANCH   1  13
BRANCH   2  17
ATOM     17  C   UNL     1       4.874   3.525  18.384  0.00  0.00    +0.000 C 
BRANCH  17  18
ATOM     18  N   UNL     1       4.630   3.502  16.940  0.00  0.00    +0.000 N 
ATOM     19  H   UNL     1       4.162   2.646  16.639  0.00  0.00    +0.000 HD
BRANCH  18  20
ATOM     20  C   UNL     1       5.580   3.932  16.018  0.00  0.00    +0.000 A 
ATOM     21  C   UNL     1       6.528   4.924  16.259  0.00  0.00    +0.000 A 
ATOM     22  C   UNL     1       7.361   5.394  15.233  0.00  0.00    +0.000 A 
ATOM     23  C   UNL     1       7.246   4.911  13.919  0.00  0.00    +0.000 A 
ATOM     24  C   UNL     1       8.118   5.509  12.847  0.00  0.00    +0.000 C 
ATOM     25  C   UNL     1       6.294   3.912  13.650  0.00  0.00    +0.000 A 
ATOM     26  C   UNL     1       5.485   3.440  14.709  0.00  0.00    +0.000 A 
BRANCH  25  27
ATOM     27  C   UNL     1       6.048   3.310  12.283  0.00  0.00    +0.000 C 
ATOM     28  F   UNL     1       7.158   3.110  11.522  0.00  0.00    +0.000 F 
ATOM     29  F   UNL     1       5.434   2.094  12.359  0.00  0.00    +0.000 F 
ATOM     30  F   UNL     1       5.223   4.087  11.522  0.00  0.00    +0.000 F 
ENDBRANCH  25  27
ENDBRANCH  18  20
ENDBRANCH  17  18
ENDBRANCH   2  17
TORSDOF 5
ENDMDL
MODEL 7
REMARK VINA RESULT:      -8.2      4.061      5.701
REMARK  Name = 
REMARK  7 active torsions:
REMARK  status: ('A' for Active; 'I' for Inactive)
REMARK    1  A    between atoms: C_1  and  C_2
REMARK    2  A    between atoms: C_9  and  N_10
REMARK    3  A    between atoms: C_11  and  C_13
REMARK    4  A    between atoms: C_13  and  N_14
REMARK    5  A    between atoms: N_14  and  C_15
REMARK    6  A    between atoms: C_18  and  C_19
REMARK    7  A    between atoms: C_20  and  C_21
REMARK                            x       y       z     vdW  Elec       q    Type
REMARK                         _______ _______ _______ _____ _____    ______ ____
ROOT
ATOM      1  N   UNL     1      -0.006  10.454  19.945  0.00  0.00    +0.000 N 
ATOM      2  C   UNL     1       0.185   9.390  20.811  0.00  0.00    +0.000 C 
ATOM      3  O   UNL     1      -0.719   8.682  21.253  0.00  0.00    +0.000 OA
ATOM      4  H   UNL     1       0.783  11.033  19.688  0.00  0.00    +0.000 HD
ENDROOT
BRANCH   1  13
ATOM      5  C   UNL     1      -7.096  13.339  17.693  0.00  0.00    +0.000 C 
ATOM      6  C   UNL     1      -5.859  13.173  18.548  0.00  0.00    +0.000 C 
ATOM      7  O   UNL     1      -5.734  13.848  19.567  0.00  0.00    +0.000 OA
ATOM      8  N   UNL     1      -4.954  12.228  18.098  0.00  0.00    +0.000 N 
ATOM      9  C   UNL     1      -5.032  11.509  16.814  0.00  0.00    +0.000 C 
ATOM     10  C   UNL     1      -3.856  10.527  16.761  0.00  0.00    +0.000 C 
ATOM     11  C   UNL     1      -3.062  10.925  17.964  0.00  0.00    +0.000 A 
ATOM     12  C   UNL     1      -1.826  10.430  18.358  0.00  0.00    +0.000 A 
ATOM     13  C   UNL     1      -1.283  10.890  19.560  0.00  0.00    +0.000 A 
ATOM     14  C   UNL     1      -1.972  11.827  20.344  0.00  0.00    +0.000 A 
ATOM     15  C   UNL     1      -3.217  12.320  19.930  0.00  0.00    +0.000 A 
ATOM     16  C   UNL     1      -3.747  11.871  18.731  0.00  0.00    +0.000 A 
ENDBRANCH   1  13
BRANCH   2  17
ATOM     17  C   UNL     1       1.660   9.089  21.115  0.00  0.00    +0.000 C 
BRANCH  17  18
ATOM     18  N   UNL     1       1.811   7.662  21.404  0.00  0.00    +0.000 N 
ATOM     19  H   UNL     1       2.378   7.491  22.235  0.00  0.00    +0.000 HD
BRANCH  18  20
ATOM     20  C   UNL     1       2.051   6.722  20.405  0.00  0.00    +0.000 A 
ATOM     21  C   UNL     1       2.502   7.024  19.122  0.00  0.00    +0.000 A 
ATOM     22  C   UNL     1       2.589   6.034  18.133  0.00  0.00    +0.000 A 
ATOM     23  C   UNL     1       2.190   4.711  18.386  0.00  0.00    +0.000 A 
ATOM     24  C   UNL     1       2.236   3.711  17.262  0.00  0.00    +0.000 C 
ATOM     25  C   UNL     1       1.727   4.381  19.672  0.00  0.00    +0.000 A 
ATOM     26  C   UNL     1       1.673   5.395  20.656  0.00  0.00    +0.000 A 
BRANCH  25  27
ATOM     27  C   UNL     1       1.249   3.005  20.084  0.00  0.00    +0.000 C 
ATOM     28  F   UNL     1       0.199   2.513  19.373  0.00  0.00    +0.000 F 
ATOM     29  F   UNL     1       2.233   2.066  19.979  0.00  0.00    +0.000 F 
ATOM     30  F   UNL     1       0.850   2.971  21.389  0.00  0.00    +0.000 F 
ENDBRANCH  25  27
ENDBRANCH  18  20
ENDBRANCH  17  18
ENDBRANCH   2  17
TORSDOF 5
ENDMDL
MODEL 8
REMARK VINA RESULT:      -8.2      6.184      7.251
REMARK  Name = 
REMARK  7 active torsions:
REMARK  status: ('A' for Active; 'I' for Inactive)
REMARK    1  A    between atoms: C_1  and  C_2
REMARK    2  A    between atoms: C_9  and  N_10
REMARK    3  A    between atoms: C_11  and  C_13
REMARK    4  A    between atoms: C_13  and  N_14
REMARK    5  A    between atoms: N_14  and  C_15
REMARK    6  A    between atoms: C_18  and  C_19
REMARK    7  A    between atoms: C_20  and  C_21
REMARK                            x       y       z     vdW  Elec       q    Type
REMARK                         _______ _______ _______ _____ _____    ______ ____
ROOT
ATOM      1  N   UNL     1       8.877   8.493  18.887  0.00  0.00    +0.000 N 
ATOM      2  C   UNL     1       7.912   7.997  18.026  0.00  0.00    +0.000 C 
ATOM      3  O   UNL     1       7.229   8.689  17.273  0.00  0.00    +0.000 OA
ATOM      4  H   UNL     1       9.342   7.863  19.528  0.00  0.00    +0.000 HD
ENDROOT
BRANCH   1  13
ATOM      5  C   UNL     1       9.756  16.385  19.660  0.00  0.00    +0.000 C 
ATOM      6  C   UNL     1       9.560  15.060  18.957  0.00  0.00    +0.000 C 
ATOM      7  O   UNL     1       9.446  15.036  17.734  0.00  0.00    +0.000 OA
ATOM      8  N   UNL     1       9.543  13.951  19.784  0.00  0.00    +0.000 N 
ATOM      9  C   UNL     1       9.549  13.979  21.257  0.00  0.00    +0.000 C 
ATOM     10  C   UNL     1       9.579  12.527  21.749  0.00  0.00    +0.000 C 
ATOM     11  C   UNL     1       9.374  11.764  20.480  0.00  0.00    +0.000 A 
ATOM     12  C   UNL     1       9.215  10.391  20.340  0.00  0.00    +0.000 A 
ATOM     13  C   UNL     1       9.104   9.867  19.050  0.00  0.00    +0.000 A 
ATOM     14  C   UNL     1       9.150  10.710  17.929  0.00  0.00    +0.000 A 
ATOM     15  C   UNL     1       9.306  12.094  18.087  0.00  0.00    +0.000 A 
ATOM     16  C   UNL     1       9.405  12.612  19.370  0.00  0.00    +0.000 A 
ENDBRANCH   1  13
BRANCH   2  17
ATOM     17  C   UNL     1       7.816   6.463  18.012  0.00  0.00    +0.000 C 
BRANCH  17  18
ATOM     18  N   UNL     1       6.793   6.036  18.967  0.00  0.00    +0.000 N 
ATOM     19  H   UNL     1       7.185   5.499  19.742  0.00  0.00    +0.000 HD
BRANCH  18  20
ATOM     20  C   UNL     1       5.556   5.543  18.562  0.00  0.00    +0.000 A 
ATOM     21  C   UNL     1       4.578   6.291  17.910  0.00  0.00    +0.000 A 
ATOM     22  C   UNL     1       3.307   5.756  17.656  0.00  0.00    +0.000 A 
ATOM     23  C   UNL     1       2.959   4.463  18.081  0.00  0.00    +0.000 A 
ATOM     24  C   UNL     1       1.555   3.974  17.844  0.00  0.00    +0.000 C 
ATOM     25  C   UNL     1       3.928   3.689  18.744  0.00  0.00    +0.000 A 
ATOM     26  C   UNL     1       5.209   4.246  18.964  0.00  0.00    +0.000 A 
BRANCH  25  27
ATOM     27  C   UNL     1       3.692   2.290  19.271  0.00  0.00    +0.000 C 
ATOM     28  F   UNL     1       2.626   2.150  20.105  0.00  0.00    +0.000 F 
ATOM     29  F   UNL     1       3.491   1.389  18.268  0.00  0.00    +0.000 F 
ATOM     30  F   UNL     1       4.764   1.820  19.974  0.00  0.00    +0.000 F 
ENDBRANCH  25  27
ENDBRANCH  18  20
ENDBRANCH  17  18
ENDBRANCH   2  17
TORSDOF 5
ENDMDL
MODEL 9
REMARK VINA RESULT:      -8.2      3.400      5.489
REMARK  Name = 
REMARK  7 active torsions:
REMARK  status: ('A' for Active; 'I' for Inactive)
REMARK    1  A    between atoms: C_1  and  C_2
REMARK    2  A    between atoms: C_9  and  N_10
REMARK    3  A    between atoms: C_11  and  C_13
REMARK    4  A    between atoms: C_13  and  N_14
REMARK    5  A    between atoms: N_14  and  C_15
REMARK    6  A    between atoms: C_18  and  C_19
REMARK    7  A    between atoms: C_20  and  C_21
REMARK                            x       y       z     vdW  Elec       q    Type
REMARK                         _______ _______ _______ _____ _____    ______ ____
ROOT
ATOM      1  N   UNL     1       0.801  10.383  19.917  0.00  0.00    +0.000 N 
ATOM      2  C   UNL     1       0.641  10.005  21.239  0.00  0.00    +0.000 C 
ATOM      3  O   UNL     1       0.463  10.789  22.170  0.00  0.00    +0.000 OA
ATOM      4  H   UNL     1       1.019   9.680  19.221  0.00  0.00    +0.000 HD
ENDROOT
BRANCH   1  13
ATOM      5  C   UNL     1       1.083  18.145  18.090  0.00  0.00    +0.000 C 
ATOM      6  C   UNL     1       0.471  16.826  18.507  0.00  0.00    +0.000 C 
ATOM      7  O   UNL     1      -0.731  16.768  18.755  0.00  0.00    +0.000 OA
ATOM      8  N   UNL     1       1.350  15.758  18.557  0.00  0.00    +0.000 N 
ATOM      9  C   UNL     1       2.812  15.842  18.388  0.00  0.00    +0.000 C 
ATOM     10  C   UNL     1       3.370  14.416  18.465  0.00  0.00    +0.000 C 
ATOM     11  C   UNL     1       2.168  13.634  18.890  0.00  0.00    +0.000 A 
ATOM     12  C   UNL     1       2.114  12.284  19.214  0.00  0.00    +0.000 A 
ATOM     13  C   UNL     1       0.871  11.728  19.523  0.00  0.00    +0.000 A 
ATOM     14  C   UNL     1      -0.289  12.516  19.505  0.00  0.00    +0.000 A 
ATOM     15  C   UNL     1      -0.218  13.878  19.180  0.00  0.00    +0.000 A 
ATOM     16  C   UNL     1       1.020  14.429  18.887  0.00  0.00    +0.000 A 
ENDBRANCH   1  13
BRANCH   2  17
ATOM     17  C   UNL     1       0.607   8.484  21.454  0.00  0.00    +0.000 C 
BRANCH  17  18
ATOM     18  N   UNL     1       1.935   7.930  21.183  0.00  0.00    +0.000 N 
ATOM     19  H   UNL     1       2.656   8.651  21.136  0.00  0.00    +0.000 HD
BRANCH  18  20
ATOM     20  C   UNL     1       2.143   6.921  20.246  0.00  0.00    +0.000 A 
ATOM     21  C   UNL     1       2.549   7.130  18.930  0.00  0.00    +0.000 A 
ATOM     22  C   UNL     1       2.604   6.072  18.012  0.00  0.00    +0.000 A 
ATOM     23  C   UNL     1       2.218   4.770  18.373  0.00  0.00    +0.000 A 
ATOM     24  C   UNL     1       2.228   3.692  17.322  0.00  0.00    +0.000 C 
ATOM     25  C   UNL     1       1.801   4.533  19.695  0.00  0.00    +0.000 A 
ATOM     26  C   UNL     1       1.778   5.616  20.604  0.00  0.00    +0.000 A 
BRANCH  25  27
ATOM     27  C   UNL     1       1.342   3.190  20.221  0.00  0.00    +0.000 C 
ATOM     28  F   UNL     1       2.231   2.171  20.079  0.00  0.00    +0.000 F 
ATOM     29  F   UNL     1       1.045   3.233  21.551  0.00  0.00    +0.000 F 
ATOM     30  F   UNL     1       0.201   2.762  19.606  0.00  0.00    +0.000 F 
ENDBRANCH  25  27
ENDBRANCH  18  20
ENDBRANCH  17  18
ENDBRANCH   2  17
TORSDOF 5
ENDMDL
