MODEL 1
REMARK VINA RESULT:      -8.7      0.000      0.000
REMARK  Name = 
REMARK  4 active torsions:
REMARK  status: ('A' for Active; 'I' for Inactive)
REMARK    1  A    between atoms: C_1  and  O_2
REMARK    2  A    between atoms: O_2  and  C_3
REMARK    3  A    between atoms: C_7  and  C_8
REMARK    4  A    between atoms: C_12  and  C_14
REMARK                            x       y       z     vdW  Elec       q    Type
REMARK                         _______ _______ _______ _____ _____    ______ ____
ROOT
ATOM      1  C   UNL     1       2.054   7.677  19.462  0.00  0.00    +0.000 C 
ATOM      2  C   UNL     1       2.650   7.947  18.291  0.00  0.00    +0.000 C 
ATOM      3  C   UNL     1       3.450   6.794  17.807  0.00  0.00    +0.000 C 
ATOM      4  N   UNL     1       3.234   5.814  18.843  0.00  0.00    +0.000 N 
ATOM      5  C   UNL     1       3.574   4.491  18.803  0.00  0.00    +0.000 C 
ATOM      6  O   UNL     1       2.893   3.659  19.409  0.00  0.00    +0.000 OA
ATOM      7  C   UNL     1       2.350   6.281  19.893  0.00  0.00    +0.000 C 
ENDROOT
BRANCH   5   8
ATOM      8  C   UNL     1       4.814   4.073  18.173  0.00  0.00    +0.000 A 
ATOM      9  N   UNL     1       5.944   3.957  18.978  0.00  0.00    +0.000 N 
ATOM     10  C   UNL     1       6.745   5.023  18.610  0.00  0.00    +0.000 A 
ATOM     11  C   UNL     1       7.585   5.827  19.373  0.00  0.00    +0.000 A 
ATOM     12  C   UNL     1       8.090   6.964  18.747  0.00  0.00    +0.000 A 
ATOM     13  C   UNL     1       7.847   7.217  17.395  0.00  0.00    +0.000 A 
ATOM     14  C   UNL     1       7.066   6.345  16.627  0.00  0.00    +0.000 A 
ATOM     15  C   UNL     1       6.436   5.269  17.271  0.00  0.00    +0.000 A 
ATOM     16  C   UNL     1       5.368   4.382  16.933  0.00  0.00    +0.000 A 
ATOM     17 CL   UNL     1       4.726   4.354  15.359  0.00  0.00    +0.000 Cl
ATOM     18  H   UNL     1       5.879   3.660  19.944  0.00  0.00    +0.000 HD
ENDBRANCH   5   8
BRANCH   1  23
ATOM     19  C   UNL     1      -0.302  10.472  20.389  0.00  0.00    +0.000 A 
ATOM     20  C   UNL     1      -0.325  10.365  21.778  0.00  0.00    +0.000 A 
ATOM     21  C   UNL     1       0.430   9.378  22.412  0.00  0.00    +0.000 A 
ATOM     22  C   UNL     1       1.211   8.497  21.664  0.00  0.00    +0.000 A 
ATOM     23  C   UNL     1       1.256   8.598  20.267  0.00  0.00    +0.000 A 
ATOM     24  C   UNL     1       0.493   9.596  19.648  0.00  0.00    +0.000 A 
BRANCH  19  26
ATOM     25  C   UNL     1      -1.303  10.988  18.300  0.00  0.00    +0.000 C 
ATOM     26  O   UNL     1      -1.001  11.372  19.633  0.00  0.00    +0.000 OA
ENDBRANCH  19  26
ENDBRANCH   1  23
TORSDOF 3
ENDMDL
MODEL 2
REMARK VINA RESULT:      -8.5      1.556      2.403
REMARK  Name = 
REMARK  4 active torsions:
REMARK  status: ('A' for Active; 'I' for Inactive)
REMARK    1  A    between atoms: C_1  and  O_2
REMARK    2  A    between atoms: O_2  and  C_3
REMARK    3  A    between atoms: C_7  and  C_8
REMARK    4  A    between atoms: C_12  and  C_14
REMARK                            x       y       z     vdW  Elec       q    Type
REMARK                         _______ _______ _______ _____ _____    ______ ____
ROOT
ATOM      1  C   UNL     1       1.836   8.222  19.200  0.00  0.00    +0.000 C 
ATOM      2  C   UNL     1       2.170   7.809  17.969  0.00  0.00    +0.000 C 
ATOM      3  C   UNL     1       2.767   6.449  17.993  0.00  0.00    +0.000 C 
ATOM      4  N   UNL     1       2.728   6.122  19.397  0.00  0.00    +0.000 N 
ATOM      5  C   UNL     1       2.967   4.899  19.960  0.00  0.00    +0.000 C 
ATOM      6  O   UNL     1       2.388   4.575  21.001  0.00  0.00    +0.000 OA
ATOM      7  C   UNL     1       2.133   7.165  20.208  0.00  0.00    +0.000 C 
ENDROOT
BRANCH   5   8
ATOM      8  C   UNL     1       4.005   4.038  19.425  0.00  0.00    +0.000 A 
ATOM      9  N   UNL     1       5.325   4.462  19.541  0.00  0.00    +0.000 N 
ATOM     10  C   UNL     1       5.695   4.805  18.253  0.00  0.00    +0.000 A 
ATOM     11  C   UNL     1       6.521   5.823  17.791  0.00  0.00    +0.000 A 
ATOM     12  C   UNL     1       6.521   6.045  16.416  0.00  0.00    +0.000 A 
ATOM     13  C   UNL     1       5.810   5.214  15.547  0.00  0.00    +0.000 A 
ATOM     14  C   UNL     1       5.053   4.141  16.032  0.00  0.00    +0.000 A 
ATOM     15  C   UNL     1       4.930   3.985  17.421  0.00  0.00    +0.000 A 
ATOM     16  C   UNL     1       4.049   3.252  18.275  0.00  0.00    +0.000 A 
ATOM     17 CL   UNL     1       2.968   2.108  17.633  0.00  0.00    +0.000 Cl
ATOM     18  H   UNL     1       5.641   5.003  20.337  0.00  0.00    +0.000 HD
ENDBRANCH   5   8
BRANCH   1  23
ATOM     19  C   UNL     1       0.309  11.002  21.240  0.00  0.00    +0.000 A 
ATOM     20  C   UNL     1       0.291  12.045  20.318  0.00  0.00    +0.000 A 
ATOM     21  C   UNL     1       0.781  11.840  19.027  0.00  0.00    +0.000 A 
ATOM     22  C   UNL     1       1.286  10.595  18.652  0.00  0.00    +0.000 A 
ATOM     23  C   UNL     1       1.299   9.530  19.564  0.00  0.00    +0.000 A 
ATOM     24  C   UNL     1       0.802   9.754  20.855  0.00  0.00    +0.000 A 
BRANCH  19  26
ATOM     25  C   UNL     1      -0.376   9.821  23.182  0.00  0.00    +0.000 C 
ATOM     26  O   UNL     1      -0.117  11.060  22.539  0.00  0.00    +0.000 OA
ENDBRANCH  19  26
ENDBRANCH   1  23
TORSDOF 3
ENDMDL
MODEL 3
REMARK VINA RESULT:      -8.2      1.827      2.985
REMARK  Name = 
REMARK  4 active torsions:
REMARK  status: ('A' for Active; 'I' for Inactive)
REMARK    1  A    between atoms: C_1  and  O_2
REMARK    2  A    between atoms: O_2  and  C_3
REMARK    3  A    between atoms: C_7  and  C_8
REMARK    4  A    between atoms: C_12  and  C_14
REMARK                            x       y       z     vdW  Elec       q    Type
REMARK                         _______ _______ _______ _____ _____    ______ ____
ROOT
ATOM      1  C   UNL     1       0.545   9.389  20.000  0.00  0.00    +0.000 C 
ATOM      2  C   UNL     1       0.833   8.660  21.088  0.00  0.00    +0.000 C 
ATOM      3  C   UNL     1       1.811   7.585  20.781  0.00  0.00    +0.000 C 
ATOM      4  N   UNL     1       2.060   7.790  19.375  0.00  0.00    +0.000 N 
ATOM      5  C   UNL     1       3.041   7.205  18.623  0.00  0.00    +0.000 C 
ATOM      6  O   UNL     1       3.532   7.813  17.667  0.00  0.00    +0.000 OA
ATOM      7  C   UNL     1       1.331   8.915  18.825  0.00  0.00    +0.000 C 
ENDROOT
BRANCH   5   8
ATOM      8  C   UNL     1       3.407   5.818  18.849  0.00  0.00    +0.000 A 
ATOM      9  N   UNL     1       4.666   5.557  19.381  0.00  0.00    +0.000 N 
ATOM     10  C   UNL     1       5.382   5.013  18.330  0.00  0.00    +0.000 A 
ATOM     11  C   UNL     1       6.722   5.147  17.985  0.00  0.00    +0.000 A 
ATOM     12  C   UNL     1       7.093   4.649  16.738  0.00  0.00    +0.000 A 
ATOM     13  C   UNL     1       6.185   3.958  15.933  0.00  0.00    +0.000 A 
ATOM     14  C   UNL     1       4.861   3.763  16.342  0.00  0.00    +0.000 A 
ATOM     15  C   UNL     1       4.432   4.375  17.531  0.00  0.00    +0.000 A 
ATOM     16  C   UNL     1       3.157   4.666  18.106  0.00  0.00    +0.000 A 
ATOM     17 CL   UNL     1       1.732   4.031  17.431  0.00  0.00    +0.000 Cl
ATOM     18  H   UNL     1       5.104   6.187  20.042  0.00  0.00    +0.000 HD
ENDBRANCH   5   8
BRANCH   1  23
ATOM     19  C   UNL     1      -2.174  11.633  18.659  0.00  0.00    +0.000 A 
ATOM     20  C   UNL     1      -2.343  12.525  19.716  0.00  0.00    +0.000 A 
ATOM     21  C   UNL     1      -1.568  12.392  20.869  0.00  0.00    +0.000 A 
ATOM     22  C   UNL     1      -0.621  11.372  20.970  0.00  0.00    +0.000 A 
ATOM     23  C   UNL     1      -0.429  10.474  19.911  0.00  0.00    +0.000 A 
ATOM     24  C   UNL     1      -1.215  10.623  18.761  0.00  0.00    +0.000 A 
BRANCH  19  26
ATOM     25  C   UNL     1      -3.042  10.370  16.847  0.00  0.00    +0.000 C 
ATOM     26  O   UNL     1      -2.871  11.628  17.483  0.00  0.00    +0.000 OA
ENDBRANCH  19  26
ENDBRANCH   1  23
TORSDOF 3
ENDMDL
MODEL 4
REMARK VINA RESULT:      -8.1      2.577      4.240
REMARK  Name = 
REMARK  4 active torsions:
REMARK  status: ('A' for Active; 'I' for Inactive)
REMARK    1  A    between atoms: C_1  and  O_2
REMARK    2  A    between atoms: O_2  and  C_3
REMARK    3  A    between atoms: C_7  and  C_8
REMARK    4  A    between atoms: C_12  and  C_14
REMARK                            x       y       z     vdW  Elec       q    Type
REMARK                         _______ _______ _______ _____ _____    ______ ____
ROOT
ATOM      1  C   UNL     1       1.122   8.812  19.996  0.00  0.00    +0.000 C 
ATOM      2  C   UNL     1       1.345   7.829  20.881  0.00  0.00    +0.000 C 
ATOM      3  C   UNL     1       2.160   6.737  20.290  0.00  0.00    +0.000 C 
ATOM      4  N   UNL     1       2.389   7.217  18.949  0.00  0.00    +0.000 N 
ATOM      5  C   UNL     1       3.258   6.697  18.031  0.00  0.00    +0.000 C 
ATOM      6  O   UNL     1       3.795   7.437  17.201  0.00  0.00    +0.000 OA
ATOM      7  C   UNL     1       1.799   8.518  18.702  0.00  0.00    +0.000 C 
ENDROOT
BRANCH   5   8
ATOM      8  C   UNL     1       3.441   5.261  17.929  0.00  0.00    +0.000 A 
ATOM      9  N   UNL     1       2.316   4.478  17.689  0.00  0.00    +0.000 N 
ATOM     10  C   UNL     1       2.087   3.821  18.885  0.00  0.00    +0.000 A 
ATOM     11  C   UNL     1       0.895   3.467  19.507  0.00  0.00    +0.000 A 
ATOM     12  C   UNL     1       0.994   3.008  20.818  0.00  0.00    +0.000 A 
ATOM     13  C   UNL     1       2.235   2.814  21.428  0.00  0.00    +0.000 A 
ATOM     14  C   UNL     1       3.425   3.099  20.748  0.00  0.00    +0.000 A 
ATOM     15  C   UNL     1       3.344   3.691  19.478  0.00  0.00    +0.000 A 
ATOM     16  C   UNL     1       4.264   4.384  18.633  0.00  0.00    +0.000 A 
ATOM     17 CL   UNL     1       5.923   4.426  19.003  0.00  0.00    +0.000 Cl
ATOM     18  H   UNL     1       1.548   4.812  17.120  0.00  0.00    +0.000 HD
ENDBRANCH   5   8
BRANCH   1  23
ATOM     19  C   UNL     1      -0.547  11.734  21.698  0.00  0.00    +0.000 A 
ATOM     20  C   UNL     1      -1.239  12.314  20.637  0.00  0.00    +0.000 A 
ATOM     21  C   UNL     1      -1.159  11.750  19.363  0.00  0.00    +0.000 A 
ATOM     22  C   UNL     1      -0.392  10.605  19.145  0.00  0.00    +0.000 A 
ATOM     23  C   UNL     1       0.300  10.001  20.204  0.00  0.00    +0.000 A 
ATOM     24  C   UNL     1       0.207  10.581  21.476  0.00  0.00    +0.000 A 
BRANCH  19  26
ATOM     25  C   UNL     1      -1.392  13.255  23.312  0.00  0.00    +0.000 C 
ATOM     26  O   UNL     1      -0.517  12.185  22.989  0.00  0.00    +0.000 OA
ENDBRANCH  19  26
ENDBRANCH   1  23
TORSDOF 3
ENDMDL
MODEL 5
REMARK VINA RESULT:      -8.0      1.006      1.688
REMARK  Name = 
REMARK  4 active torsions:
REMARK  status: ('A' for Active; 'I' for Inactive)
REMARK    1  A    between atoms: C_1  and  O_2
REMARK    2  A    between atoms: O_2  and  C_3
REMARK    3  A    between atoms: C_7  and  C_8
REMARK    4  A    between atoms: C_12  and  C_14
REMARK                            x       y       z     vdW  Elec       q    Type
REMARK                         _______ _______ _______ _____ _____    ______ ____
ROOT
ATOM      1  C   UNL     1       2.006   8.065  18.972  0.00  0.00    +0.000 C 
ATOM      2  C   UNL     1       2.605   8.019  17.773  0.00  0.00    +0.000 C 
ATOM      3  C   UNL     1       3.365   6.756  17.591  0.00  0.00    +0.000 C 
ATOM      4  N   UNL     1       3.122   6.069  18.836  0.00  0.00    +0.000 N 
ATOM      5  C   UNL     1       3.418   4.766  19.123  0.00  0.00    +0.000 C 
ATOM      6  O   UNL     1       2.712   4.132  19.913  0.00  0.00    +0.000 OA
ATOM      7  C   UNL     1       2.257   6.809  19.734  0.00  0.00    +0.000 C 
ENDROOT
BRANCH   5   8
ATOM      8  C   UNL     1       4.641   4.166  18.621  0.00  0.00    +0.000 A 
ATOM      9  N   UNL     1       5.756   4.174  19.453  0.00  0.00    +0.000 N 
ATOM     10  C   UNL     1       6.612   5.097  18.879  0.00  0.00    +0.000 A 
ATOM     11  C   UNL     1       7.484   6.007  19.466  0.00  0.00    +0.000 A 
ATOM     12  C   UNL     1       8.049   6.958  18.620  0.00  0.00    +0.000 A 
ATOM     13  C   UNL     1       7.830   6.924  17.241  0.00  0.00    +0.000 A 
ATOM     14  C   UNL     1       7.013   5.945  16.664  0.00  0.00    +0.000 A 
ATOM     15  C   UNL     1       6.326   5.063  17.513  0.00  0.00    +0.000 A 
ATOM     16  C   UNL     1       5.218   4.174  17.354  0.00  0.00    +0.000 A 
ATOM     17 CL   UNL     1       4.588   3.837  15.811  0.00  0.00    +0.000 Cl
ATOM     18  H   UNL     1       5.670   4.095  20.459  0.00  0.00    +0.000 HD
ENDBRANCH   5   8
BRANCH   1  23
ATOM     19  C   UNL     1       0.049  10.187  21.398  0.00  0.00    +0.000 A 
ATOM     20  C   UNL     1      -0.199  11.325  20.633  0.00  0.00    +0.000 A 
ATOM     21  C   UNL     1       0.274  11.399  19.322  0.00  0.00    +0.000 A 
ATOM     22  C   UNL     1       0.994  10.338  18.771  0.00  0.00    +0.000 A 
ATOM     23  C   UNL     1       1.242   9.181  19.522  0.00  0.00    +0.000 A 
ATOM     24  C   UNL     1       0.757   9.124  20.835  0.00  0.00    +0.000 A 
BRANCH  19  26
ATOM     25  C   UNL     1      -1.293  10.885  23.227  0.00  0.00    +0.000 C 
ATOM     26  O   UNL     1      -0.334   9.983  22.695  0.00  0.00    +0.000 OA
ENDBRANCH  19  26
ENDBRANCH   1  23
TORSDOF 3
ENDMDL
MODEL 6
REMARK VINA RESULT:      -8.0      2.544      3.976
REMARK  Name = 
REMARK  4 active torsions:
REMARK  status: ('A' for Active; 'I' for Inactive)
REMARK    1  A    between atoms: C_1  and  O_2
REMARK    2  A    between atoms: O_2  and  C_3
REMARK    3  A    between atoms: C_7  and  C_8
REMARK    4  A    between atoms: C_12  and  C_14
REMARK                            x       y       z     vdW  Elec       q    Type
REMARK                         _______ _______ _______ _____ _____    ______ ____
ROOT
ATOM      1  C   UNL     1       1.020   8.795  20.517  0.00  0.00    +0.000 C 
ATOM      2  C   UNL     1       1.293   7.732  21.288  0.00  0.00    +0.000 C 
ATOM      3  C   UNL     1       2.061   6.701  20.544  0.00  0.00    +0.000 C 
ATOM      4  N   UNL     1       2.206   7.307  19.243  0.00  0.00    +0.000 N 
ATOM      5  C   UNL     1       3.010   6.876  18.224  0.00  0.00    +0.000 C 
ATOM      6  O   UNL     1       3.497   7.691  17.436  0.00  0.00    +0.000 OA
ATOM      7  C   UNL     1       1.610   8.625  19.159  0.00  0.00    +0.000 C 
ENDROOT
BRANCH   5   8
ATOM      8  C   UNL     1       3.177   5.456  17.975  0.00  0.00    +0.000 A 
ATOM      9  N   UNL     1       2.029   4.686  17.814  0.00  0.00    +0.000 N 
ATOM     10  C   UNL     1       1.956   3.926  18.968  0.00  0.00    +0.000 A 
ATOM     11  C   UNL     1       0.854   3.507  19.705  0.00  0.00    +0.000 A 
ATOM     12  C   UNL     1       1.121   2.936  20.948  0.00  0.00    +0.000 A 
ATOM     13  C   UNL     1       2.431   2.702  21.372  0.00  0.00    +0.000 A 
ATOM     14  C   UNL     1       3.524   3.057  20.572  0.00  0.00    +0.000 A 
ATOM     15  C   UNL     1       3.279   3.757  19.380  0.00  0.00    +0.000 A 
ATOM     16  C   UNL     1       4.083   4.530  18.487  0.00  0.00    +0.000 A 
ATOM     17 CL   UNL     1       5.776   4.557  18.642  0.00  0.00    +0.000 Cl
ATOM     18  H   UNL     1       1.194   5.061  17.381  0.00  0.00    +0.000 HD
ENDBRANCH   5   8
BRANCH   1  23
ATOM     19  C   UNL     1      -1.073  11.918  20.225  0.00  0.00    +0.000 A 
ATOM     20  C   UNL     1      -1.353  12.190  21.562  0.00  0.00    +0.000 A 
ATOM     21  C   UNL     1      -0.858  11.351  22.561  0.00  0.00    +0.000 A 
ATOM     22  C   UNL     1      -0.081  10.240  22.229  0.00  0.00    +0.000 A 
ATOM     23  C   UNL     1       0.221   9.960  20.890  0.00  0.00    +0.000 A 
ATOM     24  C   UNL     1      -0.283  10.814  19.901  0.00  0.00    +0.000 A 
BRANCH  19  26
ATOM     25  C   UNL     1      -0.501  13.196  18.308  0.00  0.00    +0.000 C 
ATOM     26  O   UNL     1      -1.504  12.637  19.144  0.00  0.00    +0.000 OA
ENDBRANCH  19  26
ENDBRANCH   1  23
TORSDOF 3
ENDMDL
MODEL 7
REMARK VINA RESULT:      -8.0      1.769      2.277
REMARK  Name = 
REMARK  4 active torsions:
REMARK  status: ('A' for Active; 'I' for Inactive)
REMARK    1  A    between atoms: C_1  and  O_2
REMARK    2  A    between atoms: O_2  and  C_3
REMARK    3  A    between atoms: C_7  and  C_8
REMARK    4  A    between atoms: C_12  and  C_14
REMARK                            x       y       z     vdW  Elec       q    Type
REMARK                         _______ _______ _______ _____ _____    ______ ____
ROOT
ATOM      1  C   UNL     1       1.710   8.421  19.176  0.00  0.00    +0.000 C 
ATOM      2  C   UNL     1       2.119   8.031  17.960  0.00  0.00    +0.000 C 
ATOM      3  C   UNL     1       2.758   6.691  18.003  0.00  0.00    +0.000 C 
ATOM      4  N   UNL     1       2.660   6.349  19.401  0.00  0.00    +0.000 N 
ATOM      5  C   UNL     1       2.910   5.130  19.966  0.00  0.00    +0.000 C 
ATOM      6  O   UNL     1       2.291   4.776  20.973  0.00  0.00    +0.000 OA
ATOM      7  C   UNL     1       1.991   7.364  20.190  0.00  0.00    +0.000 C 
ENDROOT
BRANCH   5   8
ATOM      8  C   UNL     1       4.002   4.308  19.476  0.00  0.00    +0.000 A 
ATOM      9  N   UNL     1       5.291   4.828  19.549  0.00  0.00    +0.000 N 
ATOM     10  C   UNL     1       5.628   5.109  18.238  0.00  0.00    +0.000 A 
ATOM     11  C   UNL     1       6.378   6.150  17.701  0.00  0.00    +0.000 A 
ATOM     12  C   UNL     1       6.353   6.280  16.314  0.00  0.00    +0.000 A 
ATOM     13  C   UNL     1       5.696   5.346  15.509  0.00  0.00    +0.000 A 
ATOM     14  C   UNL     1       5.018   4.258  16.072  0.00  0.00    +0.000 A 
ATOM     15  C   UNL     1       4.916   4.186  17.470  0.00  0.00    +0.000 A 
ATOM     16  C   UNL     1       4.093   3.453  18.380  0.00  0.00    +0.000 A 
ATOM     17 CL   UNL     1       3.089   2.198  17.826  0.00  0.00    +0.000 Cl
ATOM     18  H   UNL     1       5.574   5.441  20.305  0.00  0.00    +0.000 HD
ENDBRANCH   5   8
BRANCH   1  23
ATOM     19  C   UNL     1       0.847  12.091  19.072  0.00  0.00    +0.000 A 
ATOM     20  C   UNL     1      -0.048  12.195  20.135  0.00  0.00    +0.000 A 
ATOM     21  C   UNL     1      -0.371  11.064  20.886  0.00  0.00    +0.000 A 
ATOM     22  C   UNL     1       0.199   9.827  20.581  0.00  0.00    +0.000 A 
ATOM     23  C   UNL     1       1.112   9.707  19.524  0.00  0.00    +0.000 A 
ATOM     24  C   UNL     1       1.426  10.854  18.782  0.00  0.00    +0.000 A 
BRANCH  19  26
ATOM     25  C   UNL     1       2.577  13.563  18.385  0.00  0.00    +0.000 C 
ATOM     26  O   UNL     1       1.241  13.103  18.242  0.00  0.00    +0.000 OA
ENDBRANCH  19  26
ENDBRANCH   1  23
TORSDOF 3
ENDMDL
MODEL 8
REMARK VINA RESULT:      -8.0      2.502      3.580
REMARK  Name = 
REMARK  4 active torsions:
REMARK  status: ('A' for Active; 'I' for Inactive)
REMARK    1  A    between atoms: C_1  and  O_2
REMARK    2  A    between atoms: O_2  and  C_3
REMARK    3  A    between atoms: C_7  and  C_8
REMARK    4  A    between atoms: C_12  and  C_14
REMARK                            x       y       z     vdW  Elec       q    Type
REMARK                         _______ _______ _______ _____ _____    ______ ____
ROOT
ATOM      1  C   UNL     1       2.733   7.534  18.743  0.00  0.00    +0.000 C 
ATOM      2  C   UNL     1       3.007   6.423  19.440  0.00  0.00    +0.000 C 
ATOM      3  C   UNL     1       4.146   5.675  18.849  0.00  0.00    +0.000 C 
ATOM      4  N   UNL     1       4.503   6.501  17.722  0.00  0.00    +0.000 N 
ATOM      5  C   UNL     1       5.623   6.388  16.946  0.00  0.00    +0.000 C 
ATOM      6  O   UNL     1       6.120   7.393  16.429  0.00  0.00    +0.000 OA
ATOM      7  C   UNL     1       3.687   7.694  17.609  0.00  0.00    +0.000 C 
ENDROOT
BRANCH   5   8
ATOM      8  C   UNL     1       6.147   5.078  16.604  0.00  0.00    +0.000 A 
ATOM      9  N   UNL     1       7.409   5.015  16.022  0.00  0.00    +0.000 N 
ATOM     10  C   UNL     1       7.168   4.667  14.705  0.00  0.00    +0.000 A 
ATOM     11  C   UNL     1       7.811   5.057  13.536  0.00  0.00    +0.000 A 
ATOM     12  C   UNL     1       7.190   4.704  12.340  0.00  0.00    +0.000 A 
ATOM     13  C   UNL     1       6.041   3.909  12.326  0.00  0.00    +0.000 A 
ATOM     14  C   UNL     1       5.460   3.459  13.517  0.00  0.00    +0.000 A 
ATOM     15  C   UNL     1       5.991   3.916  14.733  0.00  0.00    +0.000 A 
ATOM     16  C   UNL     1       5.526   3.944  16.085  0.00  0.00    +0.000 A 
ATOM     17 CL   UNL     1       4.119   3.105  16.537  0.00  0.00    +0.000 Cl
ATOM     18  H   UNL     1       8.139   5.675  16.263  0.00  0.00    +0.000 HD
ENDBRANCH   5   8
BRANCH   1  23
ATOM     19  C   UNL     1       0.107   9.549  20.552  0.00  0.00    +0.000 A 
ATOM     20  C   UNL     1      -0.448  10.283  19.506  0.00  0.00    +0.000 A 
ATOM     21  C   UNL     1       0.037  10.120  18.207  0.00  0.00    +0.000 A 
ATOM     22  C   UNL     1       1.075   9.224  17.949  0.00  0.00    +0.000 A 
ATOM     23  C   UNL     1       1.636   8.468  18.987  0.00  0.00    +0.000 A 
ATOM     24  C   UNL     1       1.135   8.643  20.283  0.00  0.00    +0.000 A 
BRANCH  19  26
ATOM     25  C   UNL     1      -0.584  10.903  22.374  0.00  0.00    +0.000 C 
ATOM     26  O   UNL     1      -0.251   9.618  21.870  0.00  0.00    +0.000 OA
ENDBRANCH  19  26
ENDBRANCH   1  23
TORSDOF 3
ENDMDL
MODEL 9
REMARK VINA RESULT:      -8.0      1.579      2.063
REMARK  Name = 
REMARK  4 active torsions:
REMARK  status: ('A' for Active; 'I' for Inactive)
REMARK    1  A    between atoms: C_1  and  O_2
REMARK    2  A    between atoms: O_2  and  C_3
REMARK    3  A    between atoms: C_7  and  C_8
REMARK    4  A    between atoms: C_12  and  C_14
REMARK                            x       y       z     vdW  Elec       q    Type
REMARK                         _______ _______ _______ _____ _____    ______ ____
ROOT
ATOM      1  C   UNL     1       1.557   8.504  19.177  0.00  0.00    +0.000 C 
ATOM      2  C   UNL     1       2.025   8.157  17.969  0.00  0.00    +0.000 C 
ATOM      3  C   UNL     1       2.744   6.859  18.014  0.00  0.00    +0.000 C 
ATOM      4  N   UNL     1       2.626   6.491  19.403  0.00  0.00    +0.000 N 
ATOM      5  C   UNL     1       2.934   5.281  19.959  0.00  0.00    +0.000 C 
ATOM      6  O   UNL     1       2.308   4.875  20.943  0.00  0.00    +0.000 OA
ATOM      7  C   UNL     1       1.872   7.451  20.185  0.00  0.00    +0.000 C 
ENDROOT
BRANCH   5   8
ATOM      8  C   UNL     1       4.089   4.534  19.492  0.00  0.00    +0.000 A 
ATOM      9  N   UNL     1       5.320   5.183  19.480  0.00  0.00    +0.000 N 
ATOM     10  C   UNL     1       5.589   5.394  18.140  0.00  0.00    +0.000 A 
ATOM     11  C   UNL     1       6.215   6.458  17.500  0.00  0.00    +0.000 A 
ATOM     12  C   UNL     1       6.137   6.478  16.110  0.00  0.00    +0.000 A 
ATOM     13  C   UNL     1       5.554   5.425  15.400  0.00  0.00    +0.000 A 
ATOM     14  C   UNL     1       5.006   4.323  16.066  0.00  0.00    +0.000 A 
ATOM     15  C   UNL     1       4.951   4.349  17.468  0.00  0.00    +0.000 A 
ATOM     16  C   UNL     1       4.233   3.610  18.459  0.00  0.00    +0.000 A 
ATOM     17 CL   UNL     1       3.345   2.224  18.037  0.00  0.00    +0.000 Cl
ATOM     18  H   UNL     1       5.561   5.877  20.177  0.00  0.00    +0.000 HD
ENDBRANCH   5   8
BRANCH   1  23
ATOM     19  C   UNL     1      -0.635  11.559  18.891  0.00  0.00    +0.000 A 
ATOM     20  C   UNL     1      -0.499  12.117  20.160  0.00  0.00    +0.000 A 
ATOM     21  C   UNL     1       0.309  11.493  21.112  0.00  0.00    +0.000 A 
ATOM     22  C   UNL     1       0.986  10.313  20.799  0.00  0.00    +0.000 A 
ATOM     23  C   UNL     1       0.871   9.746  19.523  0.00  0.00    +0.000 A 
ATOM     24  C   UNL     1       0.056  10.387  18.580  0.00  0.00    +0.000 A 
BRANCH  19  26
ATOM     25  C   UNL     1      -2.704  11.494  17.731  0.00  0.00    +0.000 C 
ATOM     26  O   UNL     1      -1.403  12.046  17.870  0.00  0.00    +0.000 OA
ENDBRANCH  19  26
ENDBRANCH   1  23
TORSDOF 3
ENDMDL
