MODEL 1
REMARK VINA RESULT:      -9.6      0.000      0.000
REMARK  Name = 
REMARK  6 active torsions:
REMARK  status: ('A' for Active; 'I' for Inactive)
REMARK    1  A    between atoms: C_1  and  C_2
REMARK    2  A    between atoms: C_2  and  S_3
REMARK    3  A    between atoms: S_3  and  C_6
REMARK    4  A    between atoms: C_11  and  C_12
REMARK    5  A    between atoms: N_14  and  C_15
REMARK    6  A    between atoms: C_18  and  N_19
REMARK                            x       y       z     vdW  Elec       q    Type
REMARK                         _______ _______ _______ _____ _____    ______ ____
ROOT
ATOM      1  C   UNL     1       2.057   8.189  18.928  0.00  0.00    +0.000 A 
ATOM      2  C   UNL     1       2.124   7.226  19.926  0.00  0.00    +0.000 A 
ATOM      3  C   UNL     1       2.939   6.109  19.772  0.00  0.00    +0.000 A 
ATOM      4  C   UNL     1       3.604   5.866  18.554  0.00  0.00    +0.000 A 
ATOM      5  C   UNL     1       3.681   6.920  17.632  0.00  0.00    +0.000 A 
ATOM      6 CL   UNL     1       4.684   6.815  16.230  0.00  0.00    +0.000 Cl
ATOM      7  C   UNL     1       2.918   8.081  17.827  0.00  0.00    +0.000 A 
ENDROOT
BRANCH   4   8
ATOM      8  N   UNL     1       3.759   4.475  18.126  0.00  0.00    +0.000 N 
ATOM      9  C   UNL     1       2.503   3.917  17.901  0.00  0.00    +0.000 C 
ATOM     10  O   UNL     1       1.720   4.073  16.983  0.00  0.00    +0.000 OA
ATOM     11  C   UNL     1       2.169   3.154  19.103  0.00  0.00    +0.000 A 
ATOM     12  C   UNL     1       0.940   3.106  19.736  0.00  0.00    +0.000 A 
ATOM     13  C   UNL     1       0.940   2.835  21.108  0.00  0.00    +0.000 A 
ATOM     14  C   UNL     1       2.145   2.589  21.797  0.00  0.00    +0.000 A 
ATOM     15  C   UNL     1       3.374   2.626  21.131  0.00  0.00    +0.000 A 
ATOM     16  C   UNL     1       3.350   2.937  19.781  0.00  0.00    +0.000 A 
ATOM     17  C   UNL     1       4.399   3.643  19.033  0.00  0.00    +0.000 C 
ATOM     18  O   UNL     1       5.582   3.579  19.317  0.00  0.00    +0.000 OA
ENDBRANCH   4   8
BRANCH   1  21
ATOM     19  C   UNL     1       0.230   9.518  19.977  0.00  0.00    +0.000 C 
ATOM     20  O   UNL     1       0.026   8.806  20.958  0.00  0.00    +0.000 OA
ATOM     21  N   UNL     1       1.147   9.269  18.976  0.00  0.00    +0.000 N 
ATOM     22  H   UNL     1       1.030   9.771  18.095  0.00  0.00    +0.000 HD
BRANCH  19  28
ATOM     23  C   UNL     1      -1.529  11.178  18.998  0.00  0.00    +0.000 A 
ATOM     24  C   UNL     1      -2.158  12.434  19.139  0.00  0.00    +0.000 A 
ATOM     25  C   UNL     1      -1.847  13.280  20.203  0.00  0.00    +0.000 A 
ATOM     26  C   UNL     1      -0.896  12.895  21.134  0.00  0.00    +0.000 A 
ATOM     27  C   UNL     1      -0.253  11.664  20.991  0.00  0.00    +0.000 A 
ATOM     28  C   UNL     1      -0.543  10.792  19.916  0.00  0.00    +0.000 A 
BRANCH  23  29
ATOM     29  S   UNL     1      -2.107  10.168  17.635  0.00  0.00    +0.000 S 
ATOM     30  O   UNL     1      -3.223   9.385  18.125  0.00  0.00    +0.000 OA
ATOM     31  O   UNL     1      -0.941   9.490  17.111  0.00  0.00    +0.000 OA
BRANCH  29  33
ATOM     32  C   UNL     1      -3.144  10.637  15.167  0.00  0.00    +0.000 C 
ATOM     33  C   UNL     1      -2.647  11.343  16.415  0.00  0.00    +0.000 C 
ENDBRANCH  29  33
ENDBRANCH  23  29
ENDBRANCH  19  28
ENDBRANCH   1  21
TORSDOF 5
ENDMDL
MODEL 2
REMARK VINA RESULT:      -9.2      2.183      2.787
REMARK  Name = 
REMARK  6 active torsions:
REMARK  status: ('A' for Active; 'I' for Inactive)
REMARK    1  A    between atoms: C_1  and  C_2
REMARK    2  A    between atoms: C_2  and  S_3
REMARK    3  A    between atoms: S_3  and  C_6
REMARK    4  A    between atoms: C_11  and  C_12
REMARK    5  A    between atoms: N_14  and  C_15
REMARK    6  A    between atoms: C_18  and  N_19
REMARK                            x       y       z     vdW  Elec       q    Type
REMARK                         _______ _______ _______ _____ _____    ______ ____
ROOT
ATOM      1  C   UNL     1       1.913   8.442  19.104  0.00  0.00    +0.000 A 
ATOM      2  C   UNL     1       1.889   7.395  20.016  0.00  0.00    +0.000 A 
ATOM      3  C   UNL     1       2.627   6.240  19.780  0.00  0.00    +0.000 A 
ATOM      4  C   UNL     1       3.301   6.054  18.556  0.00  0.00    +0.000 A 
ATOM      5  C   UNL     1       3.473   7.175  17.730  0.00  0.00    +0.000 A 
ATOM      6 CL   UNL     1       4.498   7.117  16.341  0.00  0.00    +0.000 Cl
ATOM      7  C   UNL     1       2.789   8.367  18.012  0.00  0.00    +0.000 A 
ENDROOT
BRANCH   4   8
ATOM      8  N   UNL     1       3.368   4.697  18.013  0.00  0.00    +0.000 N 
ATOM      9  C   UNL     1       2.088   4.152  17.969  0.00  0.00    +0.000 C 
ATOM     10  O   UNL     1       1.159   4.370  17.212  0.00  0.00    +0.000 OA
ATOM     11  C   UNL     1       1.958   3.306  19.154  0.00  0.00    +0.000 A 
ATOM     12  C   UNL     1       0.855   3.210  19.985  0.00  0.00    +0.000 A 
ATOM     13  C   UNL     1       1.089   2.843  21.313  0.00  0.00    +0.000 A 
ATOM     14  C   UNL     1       2.393   2.554  21.766  0.00  0.00    +0.000 A 
ATOM     15  C   UNL     1       3.489   2.642  20.903  0.00  0.00    +0.000 A 
ATOM     16  C   UNL     1       3.236   3.045  19.602  0.00  0.00    +0.000 A 
ATOM     17  C   UNL     1       4.147   3.805  18.735  0.00  0.00    +0.000 C 
ATOM     18  O   UNL     1       5.361   3.726  18.806  0.00  0.00    +0.000 OA
ENDBRANCH   4   8
BRANCH   1  21
ATOM     19  C   UNL     1       0.906  10.338  20.367  0.00  0.00    +0.000 C 
ATOM     20  O   UNL     1       1.411  10.114  21.466  0.00  0.00    +0.000 OA
ATOM     21  N   UNL     1       1.079   9.577  19.230  0.00  0.00    +0.000 N 
ATOM     22  H   UNL     1       0.404   9.699  18.473  0.00  0.00    +0.000 HD
BRANCH  19  28
ATOM     23  C   UNL     1       0.496  12.860  19.840  0.00  0.00    +0.000 A 
ATOM     24  C   UNL     1      -0.451  13.906  19.789  0.00  0.00    +0.000 A 
ATOM     25  C   UNL     1      -1.791  13.681  20.104  0.00  0.00    +0.000 A 
ATOM     26  C   UNL     1      -2.205  12.415  20.487  0.00  0.00    +0.000 A 
ATOM     27  C   UNL     1      -1.272  11.380  20.563  0.00  0.00    +0.000 A 
ATOM     28  C   UNL     1       0.094  11.584  20.258  0.00  0.00    +0.000 A 
BRANCH  23  29
ATOM     29  S   UNL     1       2.155  13.288  19.314  0.00  0.00    +0.000 S 
ATOM     30  O   UNL     1       2.547  12.324  18.306  0.00  0.00    +0.000 OA
ATOM     31  O   UNL     1       2.943  13.410  20.522  0.00  0.00    +0.000 OA
BRANCH  29  33
ATOM     32  C   UNL     1       3.211  15.269  17.784  0.00  0.00    +0.000 C 
ATOM     33  C   UNL     1       1.988  14.909  18.607  0.00  0.00    +0.000 C 
ENDBRANCH  29  33
ENDBRANCH  23  29
ENDBRANCH  19  28
ENDBRANCH   1  21
TORSDOF 5
ENDMDL
MODEL 3
REMARK VINA RESULT:      -9.2      2.061      2.752
REMARK  Name = 
REMARK  6 active torsions:
REMARK  status: ('A' for Active; 'I' for Inactive)
REMARK    1  A    between atoms: C_1  and  C_2
REMARK    2  A    between atoms: C_2  and  S_3
REMARK    3  A    between atoms: S_3  and  C_6
REMARK    4  A    between atoms: C_11  and  C_12
REMARK    5  A    between atoms: N_14  and  C_15
REMARK    6  A    between atoms: C_18  and  N_19
REMARK                            x       y       z     vdW  Elec       q    Type
REMARK                         _______ _______ _______ _____ _____    ______ ____
ROOT
ATOM      1  C   UNL     1       2.281   7.885  18.534  0.00  0.00    +0.000 A 
ATOM      2  C   UNL     1       2.358   7.035  19.630  0.00  0.00    +0.000 A 
ATOM      3  C   UNL     1       3.206   5.933  19.606  0.00  0.00    +0.000 A 
ATOM      4  C   UNL     1       3.896   5.581  18.429  0.00  0.00    +0.000 A 
ATOM      5  C   UNL     1       3.959   6.533  17.401  0.00  0.00    +0.000 A 
ATOM      6 CL   UNL     1       4.986   6.309  16.030  0.00  0.00    +0.000 Cl
ATOM      7  C   UNL     1       3.162   7.686  17.462  0.00  0.00    +0.000 A 
ENDROOT
BRANCH   4   8
ATOM      8  N   UNL     1       4.096   4.158  18.153  0.00  0.00    +0.000 N 
ATOM      9  C   UNL     1       2.891   3.592  17.743  0.00  0.00    +0.000 C 
ATOM     10  O   UNL     1       2.297   3.676  16.684  0.00  0.00    +0.000 OA
ATOM     11  C   UNL     1       2.321   2.936  18.919  0.00  0.00    +0.000 A 
ATOM     12  C   UNL     1       0.994   2.952  19.312  0.00  0.00    +0.000 A 
ATOM     13  C   UNL     1       0.732   2.798  20.676  0.00  0.00    +0.000 A 
ATOM     14  C   UNL     1       1.782   2.602  21.598  0.00  0.00    +0.000 A 
ATOM     15  C   UNL     1       3.114   2.574  21.173  0.00  0.00    +0.000 A 
ATOM     16  C   UNL     1       3.349   2.768  19.823  0.00  0.00    +0.000 A 
ATOM     17  C   UNL     1       4.535   3.400  19.229  0.00  0.00    +0.000 C 
ATOM     18  O   UNL     1       5.643   3.352  19.734  0.00  0.00    +0.000 OA
ENDBRANCH   4   8
BRANCH   1  21
ATOM     19  C   UNL     1       0.920   9.733  19.501  0.00  0.00    +0.000 C 
ATOM     20  O   UNL     1       1.259   9.614  20.677  0.00  0.00    +0.000 OA
ATOM     21  N   UNL     1       1.341   8.938  18.456  0.00  0.00    +0.000 N 
ATOM     22  H   UNL     1       0.789   8.956  17.597  0.00  0.00    +0.000 HD
BRANCH  19  28
ATOM     23  C   UNL     1       0.371  12.230  18.980  0.00  0.00    +0.000 A 
ATOM     24  C   UNL     1      -0.639  13.166  18.668  0.00  0.00    +0.000 A 
ATOM     25  C   UNL     1      -1.967  12.770  18.516  0.00  0.00    +0.000 A 
ATOM     26  C   UNL     1      -2.311  11.438  18.686  0.00  0.00    +0.000 A 
ATOM     27  C   UNL     1      -1.324  10.509  19.018  0.00  0.00    +0.000 A 
ATOM     28  C   UNL     1       0.029  10.887  19.187  0.00  0.00    +0.000 A 
BRANCH  23  29
ATOM     29  S   UNL     1       2.040  12.881  19.046  0.00  0.00    +0.000 S 
ATOM     30  O   UNL     1       2.812  12.184  18.038  0.00  0.00    +0.000 OA
ATOM     31  O   UNL     1       2.449  12.804  20.432  0.00  0.00    +0.000 OA
BRANCH  29  33
ATOM     32  C   UNL     1       3.092  15.113  17.907  0.00  0.00    +0.000 C 
ATOM     33  C   UNL     1       1.860  14.599  18.627  0.00  0.00    +0.000 C 
ENDBRANCH  29  33
ENDBRANCH  23  29
ENDBRANCH  19  28
ENDBRANCH   1  21
TORSDOF 5
ENDMDL
MODEL 4
REMARK VINA RESULT:      -9.2      1.929      2.241
REMARK  Name = 
REMARK  6 active torsions:
REMARK  status: ('A' for Active; 'I' for Inactive)
REMARK    1  A    between atoms: C_1  and  C_2
REMARK    2  A    between atoms: C_2  and  S_3
REMARK    3  A    between atoms: S_3  and  C_6
REMARK    4  A    between atoms: C_11  and  C_12
REMARK    5  A    between atoms: N_14  and  C_15
REMARK    6  A    between atoms: C_18  and  N_19
REMARK                            x       y       z     vdW  Elec       q    Type
REMARK                         _______ _______ _______ _____ _____    ______ ____
ROOT
ATOM      1  C   UNL     1       1.536   8.243  19.931  0.00  0.00    +0.000 A 
ATOM      2  C   UNL     1       1.855   7.147  20.722  0.00  0.00    +0.000 A 
ATOM      3  C   UNL     1       2.704   6.156  20.240  0.00  0.00    +0.000 A 
ATOM      4  C   UNL     1       3.146   6.175  18.902  0.00  0.00    +0.000 A 
ATOM      5  C   UNL     1       2.976   7.363  18.176  0.00  0.00    +0.000 A 
ATOM      6 CL   UNL     1       3.705   7.579  16.625  0.00  0.00    +0.000 Cl
ATOM      7  C   UNL     1       2.182   8.396  18.696  0.00  0.00    +0.000 A 
ENDROOT
BRANCH   4   8
ATOM      8  N   UNL     1       3.317   4.891  18.222  0.00  0.00    +0.000 N 
ATOM      9  C   UNL     1       2.079   4.266  18.094  0.00  0.00    +0.000 C 
ATOM     10  O   UNL     1       1.148   4.498  17.345  0.00  0.00    +0.000 OA
ATOM     11  C   UNL     1       1.994   3.292  19.182  0.00  0.00    +0.000 A 
ATOM     12  C   UNL     1       0.890   3.033  19.975  0.00  0.00    +0.000 A 
ATOM     13  C   UNL     1       1.131   2.545  21.262  0.00  0.00    +0.000 A 
ATOM     14  C   UNL     1       2.446   2.300  21.710  0.00  0.00    +0.000 A 
ATOM     15  C   UNL     1       3.545   2.554  20.883  0.00  0.00    +0.000 A 
ATOM     16  C   UNL     1       3.281   3.075  19.627  0.00  0.00    +0.000 A 
ATOM     17  C   UNL     1       4.147   3.983  18.863  0.00  0.00    +0.000 C 
ATOM     18  O   UNL     1       5.363   3.981  18.950  0.00  0.00    +0.000 OA
ENDBRANCH   4   8
BRANCH   1  21
ATOM     19  C   UNL     1       0.646  10.023  21.429  0.00  0.00    +0.000 C 
ATOM     20  O   UNL     1       1.531  10.003  22.282  0.00  0.00    +0.000 OA
ATOM     21  N   UNL     1       0.577   9.206  20.320  0.00  0.00    +0.000 N 
ATOM     22  H   UNL     1      -0.326   9.126  19.848  0.00  0.00    +0.000 HD
BRANCH  19  28
ATOM     23  C   UNL     1      -0.766  12.089  20.692  0.00  0.00    +0.000 A 
ATOM     24  C   UNL     1      -1.808  12.977  21.037  0.00  0.00    +0.000 A 
ATOM     25  C   UNL     1      -2.509  12.837  22.234  0.00  0.00    +0.000 A 
ATOM     26  C   UNL     1      -2.174  11.818  23.112  0.00  0.00    +0.000 A 
ATOM     27  C   UNL     1      -1.130  10.949  22.791  0.00  0.00    +0.000 A 
ATOM     28  C   UNL     1      -0.397  11.076  21.588  0.00  0.00    +0.000 A 
BRANCH  23  29
ATOM     29  S   UNL     1      -0.029  12.345  19.079  0.00  0.00    +0.000 S 
ATOM     30  O   UNL     1      -0.610  13.552  18.529  0.00  0.00    +0.000 OA
ATOM     31  O   UNL     1      -0.179  11.096  18.364  0.00  0.00    +0.000 OA
BRANCH  29  33
ATOM     32  C   UNL     1       2.512  12.539  18.134  0.00  0.00    +0.000 C 
ATOM     33  C   UNL     1       1.701  12.573  19.416  0.00  0.00    +0.000 C 
ENDBRANCH  29  33
ENDBRANCH  23  29
ENDBRANCH  19  28
ENDBRANCH   1  21
TORSDOF 5
ENDMDL
MODEL 5
REMARK VINA RESULT:      -9.1      1.705      2.705
REMARK  Name = 
REMARK  6 active torsions:
REMARK  status: ('A' for Active; 'I' for Inactive)
REMARK    1  A    between atoms: C_1  and  C_2
REMARK    2  A    between atoms: C_2  and  S_3
REMARK    3  A    between atoms: S_3  and  C_6
REMARK    4  A    between atoms: C_11  and  C_12
REMARK    5  A    between atoms: N_14  and  C_15
REMARK    6  A    between atoms: C_18  and  N_19
REMARK                            x       y       z     vdW  Elec       q    Type
REMARK                         _______ _______ _______ _____ _____    ______ ____
ROOT
ATOM      1  C   UNL     1       1.983   8.381  19.133  0.00  0.00    +0.000 A 
ATOM      2  C   UNL     1       2.015   7.331  20.041  0.00  0.00    +0.000 A 
ATOM      3  C   UNL     1       2.749   6.183  19.763  0.00  0.00    +0.000 A 
ATOM      4  C   UNL     1       3.361   6.007  18.506  0.00  0.00    +0.000 A 
ATOM      5  C   UNL     1       3.481   7.132  17.676  0.00  0.00    +0.000 A 
ATOM      6 CL   UNL     1       4.433   7.087  16.236  0.00  0.00    +0.000 Cl
ATOM      7  C   UNL     1       2.802   8.317  17.997  0.00  0.00    +0.000 A 
ENDROOT
BRANCH   4   8
ATOM      8  N   UNL     1       3.411   4.653  17.955  0.00  0.00    +0.000 N 
ATOM      9  C   UNL     1       2.126   4.117  17.923  0.00  0.00    +0.000 C 
ATOM     10  O   UNL     1       1.190   4.346  17.178  0.00  0.00    +0.000 OA
ATOM     11  C   UNL     1       2.004   3.266  19.106  0.00  0.00    +0.000 A 
ATOM     12  C   UNL     1       0.911   3.174  19.949  0.00  0.00    +0.000 A 
ATOM     13  C   UNL     1       1.157   2.799  21.273  0.00  0.00    +0.000 A 
ATOM     14  C   UNL     1       2.464   2.497  21.708  0.00  0.00    +0.000 A 
ATOM     15  C   UNL     1       3.551   2.581  20.832  0.00  0.00    +0.000 A 
ATOM     16  C   UNL     1       3.285   2.993  19.537  0.00  0.00    +0.000 A 
ATOM     17  C   UNL     1       4.191   3.751  18.663  0.00  0.00    +0.000 C 
ATOM     18  O   UNL     1       5.405   3.662  18.719  0.00  0.00    +0.000 OA
ENDBRANCH   4   8
BRANCH   1  21
ATOM     19  C   UNL     1       0.102   9.880  18.486  0.00  0.00    +0.000 C 
ATOM     20  O   UNL     1      -0.232   9.316  17.446  0.00  0.00    +0.000 OA
ATOM     21  N   UNL     1       1.148   9.509  19.306  0.00  0.00    +0.000 N 
ATOM     22  H   UNL     1       1.494  10.201  19.972  0.00  0.00    +0.000 HD
BRANCH  19  28
ATOM     23  C   UNL     1      -0.368  12.231  19.517  0.00  0.00    +0.000 A 
ATOM     24  C   UNL     1      -1.350  13.197  19.828  0.00  0.00    +0.000 A 
ATOM     25  C   UNL     1      -2.691  12.990  19.510  0.00  0.00    +0.000 A 
ATOM     26  C   UNL     1      -3.078  11.813  18.888  0.00  0.00    +0.000 A 
ATOM     27  C   UNL     1      -2.119  10.842  18.597  0.00  0.00    +0.000 A 
ATOM     28  C   UNL     1      -0.753  11.023  18.919  0.00  0.00    +0.000 A 
BRANCH  23  29
ATOM     29  S   UNL     1       1.321  12.686  19.904  0.00  0.00    +0.000 S 
ATOM     30  O   UNL     1       2.123  12.393  18.734  0.00  0.00    +0.000 OA
ATOM     31  O   UNL     1       1.636  12.041  21.160  0.00  0.00    +0.000 OA
BRANCH  29  33
ATOM     32  C   UNL     1       1.720  15.210  18.978  0.00  0.00    +0.000 C 
ATOM     33  C   UNL     1       1.249  14.438  20.196  0.00  0.00    +0.000 C 
ENDBRANCH  29  33
ENDBRANCH  23  29
ENDBRANCH  19  28
ENDBRANCH   1  21
TORSDOF 5
ENDMDL
MODEL 6
REMARK VINA RESULT:      -9.1      1.526      1.776
REMARK  Name = 
REMARK  6 active torsions:
REMARK  status: ('A' for Active; 'I' for Inactive)
REMARK    1  A    between atoms: C_1  and  C_2
REMARK    2  A    between atoms: C_2  and  S_3
REMARK    3  A    between atoms: S_3  and  C_6
REMARK    4  A    between atoms: C_11  and  C_12
REMARK    5  A    between atoms: N_14  and  C_15
REMARK    6  A    between atoms: C_18  and  N_19
REMARK                            x       y       z     vdW  Elec       q    Type
REMARK                         _______ _______ _______ _____ _____    ______ ____
ROOT
ATOM      1  C   UNL     1       1.566   8.221  19.854  0.00  0.00    +0.000 A 
ATOM      2  C   UNL     1       1.875   7.135  20.663  0.00  0.00    +0.000 A 
ATOM      3  C   UNL     1       2.732   6.139  20.207  0.00  0.00    +0.000 A 
ATOM      4  C   UNL     1       3.193   6.141  18.875  0.00  0.00    +0.000 A 
ATOM      5  C   UNL     1       3.032   7.319  18.131  0.00  0.00    +0.000 A 
ATOM      6 CL   UNL     1       3.783   7.516  16.588  0.00  0.00    +0.000 Cl
ATOM      7  C   UNL     1       2.230   8.358  18.626  0.00  0.00    +0.000 A 
ENDROOT
BRANCH   4   8
ATOM      8  N   UNL     1       3.375   4.848  18.214  0.00  0.00    +0.000 N 
ATOM      9  C   UNL     1       2.140   4.221  18.077  0.00  0.00    +0.000 C 
ATOM     10  O   UNL     1       1.219   4.442  17.311  0.00  0.00    +0.000 OA
ATOM     11  C   UNL     1       2.039   3.261  19.176  0.00  0.00    +0.000 A 
ATOM     12  C   UNL     1       0.924   3.011  19.955  0.00  0.00    +0.000 A 
ATOM     13  C   UNL     1       1.147   2.540  21.253  0.00  0.00    +0.000 A 
ATOM     14  C   UNL     1       2.455   2.303  21.722  0.00  0.00    +0.000 A 
ATOM     15  C   UNL     1       3.566   2.547  20.909  0.00  0.00    +0.000 A 
ATOM     16  C   UNL     1       3.320   3.051  19.642  0.00  0.00    +0.000 A 
ATOM     17  C   UNL     1       4.196   3.951  18.879  0.00  0.00    +0.000 C 
ATOM     18  O   UNL     1       5.410   3.951  18.984  0.00  0.00    +0.000 OA
ENDBRANCH   4   8
BRANCH   1  21
ATOM     19  C   UNL     1       0.638   9.997  21.332  0.00  0.00    +0.000 C 
ATOM     20  O   UNL     1       1.493   9.966  22.215  0.00  0.00    +0.000 OA
ATOM     21  N   UNL     1       0.600   9.187  20.216  0.00  0.00    +0.000 N 
ATOM     22  H   UNL     1      -0.286   9.116  19.714  0.00  0.00    +0.000 HD
BRANCH  19  28
ATOM     23  C   UNL     1      -0.860  11.964  20.497  0.00  0.00    +0.000 A 
ATOM     24  C   UNL     1      -1.883  12.878  20.829  0.00  0.00    +0.000 A 
ATOM     25  C   UNL     1      -2.481  12.865  22.088  0.00  0.00    +0.000 A 
ATOM     26  C   UNL     1      -2.060  11.950  23.040  0.00  0.00    +0.000 A 
ATOM     27  C   UNL     1      -1.034  11.057  22.730  0.00  0.00    +0.000 A 
ATOM     28  C   UNL     1      -0.404  11.056  21.463  0.00  0.00    +0.000 A 
BRANCH  23  29
ATOM     29  S   UNL     1      -0.261  12.046  18.810  0.00  0.00    +0.000 S 
ATOM     30  O   UNL     1       1.156  11.748  18.842  0.00  0.00    +0.000 OA
ATOM     31  O   UNL     1      -0.707  13.318  18.284  0.00  0.00    +0.000 OA
BRANCH  29  33
ATOM     32  C   UNL     1      -2.540  11.244  17.564  0.00  0.00    +0.000 C 
ATOM     33  C   UNL     1      -1.156  10.765  17.962  0.00  0.00    +0.000 C 
ENDBRANCH  29  33
ENDBRANCH  23  29
ENDBRANCH  19  28
ENDBRANCH   1  21
TORSDOF 5
ENDMDL
MODEL 7
REMARK VINA RESULT:      -9.0      1.115      1.253
REMARK  Name = 
REMARK  6 active torsions:
REMARK  status: ('A' for Active; 'I' for Inactive)
REMARK    1  A    between atoms: C_1  and  C_2
REMARK    2  A    between atoms: C_2  and  S_3
REMARK    3  A    between atoms: S_3  and  C_6
REMARK    4  A    between atoms: C_11  and  C_12
REMARK    5  A    between atoms: N_14  and  C_15
REMARK    6  A    between atoms: C_18  and  N_19
REMARK                            x       y       z     vdW  Elec       q    Type
REMARK                         _______ _______ _______ _____ _____    ______ ____
ROOT
ATOM      1  C   UNL     1       1.887   8.428  19.465  0.00  0.00    +0.000 A 
ATOM      2  C   UNL     1       2.025   7.327  20.302  0.00  0.00    +0.000 A 
ATOM      3  C   UNL     1       2.746   6.214  19.885  0.00  0.00    +0.000 A 
ATOM      4  C   UNL     1       3.234   6.125  18.565  0.00  0.00    +0.000 A 
ATOM      5  C   UNL     1       3.253   7.298  17.797  0.00  0.00    +0.000 A 
ATOM      6 CL   UNL     1       4.059   7.358  16.270  0.00  0.00    +0.000 Cl
ATOM      7  C   UNL     1       2.590   8.447  18.253  0.00  0.00    +0.000 A 
ENDROOT
BRANCH   4   8
ATOM      8  N   UNL     1       3.251   4.806  17.932  0.00  0.00    +0.000 N 
ATOM      9  C   UNL     1       1.968   4.266  17.950  0.00  0.00    +0.000 C 
ATOM     10  O   UNL     1       0.986   4.534  17.280  0.00  0.00    +0.000 OA
ATOM     11  C   UNL     1       1.922   3.345  19.084  0.00  0.00    +0.000 A 
ATOM     12  C   UNL     1       0.885   3.197  19.987  0.00  0.00    +0.000 A 
ATOM     13  C   UNL     1       1.215   2.744  21.268  0.00  0.00    +0.000 A 
ATOM     14  C   UNL     1       2.548   2.424  21.602  0.00  0.00    +0.000 A 
ATOM     15  C   UNL     1       3.576   2.566  20.665  0.00  0.00    +0.000 A 
ATOM     16  C   UNL     1       3.229   3.054  19.417  0.00  0.00    +0.000 A 
ATOM     17  C   UNL     1       4.076   3.868  18.534  0.00  0.00    +0.000 C 
ATOM     18  O   UNL     1       5.292   3.782  18.508  0.00  0.00    +0.000 OA
ENDBRANCH   4   8
BRANCH   1  21
ATOM     19  C   UNL     1      -0.047   9.495  20.616  0.00  0.00    +0.000 C 
ATOM     20  O   UNL     1      -0.508   8.496  21.165  0.00  0.00    +0.000 OA
ATOM     21  N   UNL     1       1.054   9.524  19.786  0.00  0.00    +0.000 N 
ATOM     22  H   UNL     1       1.169  10.340  19.183  0.00  0.00    +0.000 HD
BRANCH  19  28
ATOM     23  C   UNL     1      -1.361  11.686  20.086  0.00  0.00    +0.000 A 
ATOM     24  C   UNL     1      -1.946  12.857  20.615  0.00  0.00    +0.000 A 
ATOM     25  C   UNL     1      -1.927  13.117  21.984  0.00  0.00    +0.000 A 
ATOM     26  C   UNL     1      -1.315  12.221  22.847  0.00  0.00    +0.000 A 
ATOM     27  C   UNL     1      -0.713  11.072  22.331  0.00  0.00    +0.000 A 
ATOM     28  C   UNL     1      -0.709  10.791  20.944  0.00  0.00    +0.000 A 
BRANCH  23  29
ATOM     29  S   UNL     1      -1.552  11.452  18.319  0.00  0.00    +0.000 S 
ATOM     30  O   UNL     1      -1.006  10.149  17.998  0.00  0.00    +0.000 OA
ATOM     31  O   UNL     1      -0.992  12.630  17.692  0.00  0.00    +0.000 OA
BRANCH  29  33
ATOM     32  C   UNL     1      -3.826  10.100  17.698  0.00  0.00    +0.000 C 
ATOM     33  C   UNL     1      -3.309  11.481  18.059  0.00  0.00    +0.000 C 
ENDBRANCH  29  33
ENDBRANCH  23  29
ENDBRANCH  19  28
ENDBRANCH   1  21
TORSDOF 5
ENDMDL
MODEL 8
REMARK VINA RESULT:      -8.9      2.527      4.036
REMARK  Name = 
REMARK  6 active torsions:
REMARK  status: ('A' for Active; 'I' for Inactive)
REMARK    1  A    between atoms: C_1  and  C_2
REMARK    2  A    between atoms: C_2  and  S_3
REMARK    3  A    between atoms: S_3  and  C_6
REMARK    4  A    between atoms: C_11  and  C_12
REMARK    5  A    between atoms: N_14  and  C_15
REMARK    6  A    between atoms: C_18  and  N_19
REMARK                            x       y       z     vdW  Elec       q    Type
REMARK                         _______ _______ _______ _____ _____    ______ ____
ROOT
ATOM      1  C   UNL     1       2.128   6.649  19.101  0.00  0.00    +0.000 A 
ATOM      2  C   UNL     1       3.113   7.074  18.219  0.00  0.00    +0.000 A 
ATOM      3  C   UNL     1       3.771   6.157  17.406  0.00  0.00    +0.000 A 
ATOM      4  C   UNL     1       3.550   4.773  17.556  0.00  0.00    +0.000 A 
ATOM      5  C   UNL     1       2.436   4.369  18.306  0.00  0.00    +0.000 A 
ATOM      6 CL   UNL     1       1.927   2.718  18.339  0.00  0.00    +0.000 Cl
ATOM      7  C   UNL     1       1.722   5.308  19.065  0.00  0.00    +0.000 A 
ENDROOT
BRANCH   4   8
ATOM      8  N   UNL     1       4.684   3.873  17.342  0.00  0.00    +0.000 N 
ATOM      9  C   UNL     1       5.465   3.831  18.494  0.00  0.00    +0.000 C 
ATOM     10  O   UNL     1       5.273   3.277  19.561  0.00  0.00    +0.000 OA
ATOM     11  C   UNL     1       6.585   4.744  18.268  0.00  0.00    +0.000 A 
ATOM     12  C   UNL     1       7.118   5.639  19.179  0.00  0.00    +0.000 A 
ATOM     13  C   UNL     1       7.741   6.779  18.662  0.00  0.00    +0.000 A 
ATOM     14  C   UNL     1       7.844   6.979  17.270  0.00  0.00    +0.000 A 
ATOM     15  C   UNL     1       7.311   6.051  16.369  0.00  0.00    +0.000 A 
ATOM     16  C   UNL     1       6.664   4.951  16.907  0.00  0.00    +0.000 A 
ATOM     17  C   UNL     1       5.536   4.227  16.306  0.00  0.00    +0.000 C 
ATOM     18  O   UNL     1       5.366   4.130  15.104  0.00  0.00    +0.000 OA
ENDBRANCH   4   8
BRANCH   1  21
ATOM     19  C   UNL     1       1.259   8.858  19.856  0.00  0.00    +0.000 C 
ATOM     20  O   UNL     1       1.554   9.520  18.863  0.00  0.00    +0.000 OA
ATOM     21  N   UNL     1       1.526   7.517  20.040  0.00  0.00    +0.000 N 
ATOM     22  H   UNL     1       1.486   7.155  20.994  0.00  0.00    +0.000 HD
BRANCH  19  28
ATOM     23  C   UNL     1      -0.489  10.565  20.771  0.00  0.00    +0.000 A 
ATOM     24  C   UNL     1      -1.121  11.092  21.918  0.00  0.00    +0.000 A 
ATOM     25  C   UNL     1      -0.825  10.607  23.191  0.00  0.00    +0.000 A 
ATOM     26  C   UNL     1       0.114   9.598  23.342  0.00  0.00    +0.000 A 
ATOM     27  C   UNL     1       0.761   9.087  22.216  0.00  0.00    +0.000 A 
ATOM     28  C   UNL     1       0.486   9.569  20.915  0.00  0.00    +0.000 A 
BRANCH  23  29
ATOM     29  S   UNL     1      -1.048  11.228  19.202  0.00  0.00    +0.000 S 
ATOM     30  O   UNL     1      -1.428  10.103  18.373  0.00  0.00    +0.000 OA
ATOM     31  O   UNL     1      -0.007  12.124  18.748  0.00  0.00    +0.000 OA
BRANCH  29  33
ATOM     32  C   UNL     1      -3.648  11.864  18.734  0.00  0.00    +0.000 C 
ATOM     33  C   UNL     1      -2.467  12.212  19.621  0.00  0.00    +0.000 C 
ENDBRANCH  29  33
ENDBRANCH  23  29
ENDBRANCH  19  28
ENDBRANCH   1  21
TORSDOF 5
ENDMDL
MODEL 9
REMARK VINA RESULT:      -8.9      2.774      4.341
REMARK  Name = 
REMARK  6 active torsions:
REMARK  status: ('A' for Active; 'I' for Inactive)
REMARK    1  A    between atoms: C_1  and  C_2
REMARK    2  A    between atoms: C_2  and  S_3
REMARK    3  A    between atoms: S_3  and  C_6
REMARK    4  A    between atoms: C_11  and  C_12
REMARK    5  A    between atoms: N_14  and  C_15
REMARK    6  A    between atoms: C_18  and  N_19
REMARK                            x       y       z     vdW  Elec       q    Type
REMARK                         _______ _______ _______ _____ _____    ______ ____
ROOT
ATOM      1  C   UNL     1       2.208   6.940  19.130  0.00  0.00    +0.000 A 
ATOM      2  C   UNL     1       3.138   7.262  18.150  0.00  0.00    +0.000 A 
ATOM      3  C   UNL     1       3.715   6.263  17.373  0.00  0.00    +0.000 A 
ATOM      4  C   UNL     1       3.472   4.903  17.653  0.00  0.00    +0.000 A 
ATOM      5  C   UNL     1       2.404   4.594  18.508  0.00  0.00    +0.000 A 
ATOM      6 CL   UNL     1       1.860   2.968  18.714  0.00  0.00    +0.000 Cl
ATOM      7  C   UNL     1       1.768   5.613  19.234  0.00  0.00    +0.000 A 
ENDROOT
BRANCH   4   8
ATOM      8  N   UNL     1       4.566   3.955  17.437  0.00  0.00    +0.000 N 
ATOM      9  C   UNL     1       5.363   3.902  18.578  0.00  0.00    +0.000 C 
ATOM     10  O   UNL     1       5.167   3.374  19.657  0.00  0.00    +0.000 OA
ATOM     11  C   UNL     1       6.514   4.766  18.319  0.00  0.00    +0.000 A 
ATOM     12  C   UNL     1       7.096   5.654  19.206  0.00  0.00    +0.000 A 
ATOM     13  C   UNL     1       7.755   6.760  18.660  0.00  0.00    +0.000 A 
ATOM     14  C   UNL     1       7.844   6.932  17.262  0.00  0.00    +0.000 A 
ATOM     15  C   UNL     1       7.261   6.011  16.386  0.00  0.00    +0.000 A 
ATOM     16  C   UNL     1       6.580   4.946  16.953  0.00  0.00    +0.000 A 
ATOM     17  C   UNL     1       5.415   4.257  16.383  0.00  0.00    +0.000 C 
ATOM     18  O   UNL     1       5.222   4.148  15.184  0.00  0.00    +0.000 OA
ENDBRANCH   4   8
BRANCH   1  21
ATOM     19  C   UNL     1       0.994   9.039  19.699  0.00  0.00    +0.000 C 
ATOM     20  O   UNL     1       0.753   9.426  18.557  0.00  0.00    +0.000 OA
ATOM     21  N   UNL     1       1.695   7.898  20.033  0.00  0.00    +0.000 N 
ATOM     22  H   UNL     1       2.063   7.832  20.983  0.00  0.00    +0.000 HD
BRANCH  19  28
ATOM     23  C   UNL     1       0.170  11.230  20.851  0.00  0.00    +0.000 A 
ATOM     24  C   UNL     1      -0.419  11.796  22.002  0.00  0.00    +0.000 A 
ATOM     25  C   UNL     1      -0.809  11.000  23.079  0.00  0.00    +0.000 A 
ATOM     26  C   UNL     1      -0.606   9.630  23.031  0.00  0.00    +0.000 A 
ATOM     27  C   UNL     1      -0.004   9.063  21.907  0.00  0.00    +0.000 A 
ATOM     28  C   UNL     1       0.410   9.850  20.806  0.00  0.00    +0.000 A 
BRANCH  23  29
ATOM     29  S   UNL     1       0.526  12.373  19.518  0.00  0.00    +0.000 S 
ATOM     30  O   UNL     1      -0.423  12.104  18.458  0.00  0.00    +0.000 OA
ATOM     31  O   UNL     1       1.943  12.251  19.249  0.00  0.00    +0.000 OA
BRANCH  29  33
ATOM     32  C   UNL     1       1.342  14.946  19.829  0.00  0.00    +0.000 C 
ATOM     33  C   UNL     1       0.243  13.978  20.226  0.00  0.00    +0.000 C 
ENDBRANCH  29  33
ENDBRANCH  23  29
ENDBRANCH  19  28
ENDBRANCH   1  21
TORSDOF 5
ENDMDL
