MODEL 1
REMARK VINA RESULT:      -8.9      0.000      0.000
REMARK  Name = 
REMARK  7 active torsions:
REMARK  status: ('A' for Active; 'I' for Inactive)
REMARK    1  A    between atoms: C_1  and  N_2
REMARK    2  A    between atoms: C_9  and  C_10
REMARK    3  A    between atoms: C_14  and  C_15
REMARK    4  A    between atoms: N_17  and  C_18
REMARK    5  A    between atoms: C_18  and  C_19
REMARK    6  A    between atoms: N_21  and  C_22
REMARK    7  A    between atoms: C_22  and  C_23
REMARK                            x       y       z     vdW  Elec       q    Type
REMARK                         _______ _______ _______ _____ _____    ______ ____
ROOT
ATOM      1  C   UNL     1       2.305   8.076  18.569  0.00  0.00    +0.000 A 
ATOM      2  C   UNL     1       2.530   9.138  17.672  0.00  0.00    +0.000 A 
ATOM      3  C   UNL     1       1.904  10.374  17.838  0.00  0.00    +0.000 A 
ATOM      4  C   UNL     1       1.094  10.597  18.945  0.00  0.00    +0.000 A 
ATOM      5  C   UNL     1       0.914   9.586  19.889  0.00  0.00    +0.000 A 
ATOM      6  C   UNL     1       1.480   8.325  19.679  0.00  0.00    +0.000 A 
ENDROOT
BRANCH   1  15
ATOM      7  C   UNL     1       1.478   2.657  19.695  0.00  0.00    +0.000 C 
ATOM      8  N   UNL     1       2.616   3.071  18.931  0.00  0.00    +0.000 N 
ATOM      9  C   UNL     1       3.592   2.221  18.377  0.00  0.00    +0.000 A 
ATOM     10  O   UNL     1       3.653   1.007  18.458  0.00  0.00    +0.000 OA
ATOM     11  N   UNL     1       4.500   3.044  17.705  0.00  0.00    +0.000 N 
ATOM     12  C   UNL     1       4.103   4.361  17.826  0.00  0.00    +0.000 A 
ATOM     13  N   UNL     1       4.717   5.422  17.309  0.00  0.00    +0.000 NA
ATOM     14  C   UNL     1       4.088   6.593  17.582  0.00  0.00    +0.000 A 
ATOM     15  C   UNL     1       2.902   6.747  18.344  0.00  0.00    +0.000 A 
ATOM     16  C   UNL     1       2.316   5.577  18.861  0.00  0.00    +0.000 A 
ATOM     17  C   UNL     1       2.936   4.384  18.586  0.00  0.00    +0.000 A 
ATOM     18  H   UNL     1       5.315   2.735  17.204  0.00  0.00    +0.000 HD
ENDBRANCH   1  15
BRANCH   5  19
ATOM     19  C   UNL     1       0.111   9.879  21.102  0.00  0.00    +0.000 C 
ATOM     20  O   UNL     1      -0.277   8.954  21.818  0.00  0.00    +0.000 OA
ATOM     21  N   UNL     1      -0.210  11.195  21.317  0.00  0.00    +0.000 N 
ATOM     22  H   UNL     1      -0.101  11.878  20.579  0.00  0.00    +0.000 HD
BRANCH  21  23
ATOM     23  C   UNL     1      -1.091  11.591  22.406  0.00  0.00    +0.000 C 
BRANCH  23  24
ATOM     24  C   UNL     1      -2.489  11.958  21.896  0.00  0.00    +0.000 C 
ATOM     25  C   UNL     1      -2.409  12.900  20.673  0.00  0.00    +0.000 C 
ATOM     26  N   UNL     1      -3.745  13.235  20.126  0.00  0.00    +0.000 NA
ATOM     27  C   UNL     1      -4.505  13.851  21.242  0.00  0.00    +0.000 C 
ATOM     28  C   UNL     1      -4.560  12.966  22.501  0.00  0.00    +0.000 C 
ATOM     29  O   UNL     1      -3.244  12.595  22.956  0.00  0.00    +0.000 OA
BRANCH  26  30
ATOM     30  C   UNL     1      -4.430  12.040  19.574  0.00  0.00    +0.000 C 
BRANCH  30  31
ATOM     31  C   UNL     1      -3.769  11.517  18.315  0.00  0.00    +0.000 A 
ATOM     32  C   UNL     1      -4.372  11.685  17.061  0.00  0.00    +0.000 A 
ATOM     33  C   UNL     1      -3.878  11.002  15.948  0.00  0.00    +0.000 A 
ATOM     34  C   UNL     1      -2.762  10.175  16.072  0.00  0.00    +0.000 A 
ATOM     35  C   UNL     1      -2.101  10.078  17.294  0.00  0.00    +0.000 A 
ATOM     36  C   UNL     1      -2.593  10.757  18.408  0.00  0.00    +0.000 A 
ENDBRANCH  30  31
ENDBRANCH  26  30
ENDBRANCH  23  24
ENDBRANCH  21  23
ENDBRANCH   5  19
TORSDOF 6
ENDMDL
MODEL 2
REMARK VINA RESULT:      -8.8      2.142      2.758
REMARK  Name = 
REMARK  7 active torsions:
REMARK  status: ('A' for Active; 'I' for Inactive)
REMARK    1  A    between atoms: C_1  and  N_2
REMARK    2  A    between atoms: C_9  and  C_10
REMARK    3  A    between atoms: C_14  and  C_15
REMARK    4  A    between atoms: N_17  and  C_18
REMARK    5  A    between atoms: C_18  and  C_19
REMARK    6  A    between atoms: N_21  and  C_22
REMARK    7  A    between atoms: C_22  and  C_23
REMARK                            x       y       z     vdW  Elec       q    Type
REMARK                         _______ _______ _______ _____ _____    ______ ____
ROOT
ATOM      1  C   UNL     1       2.214   7.829  18.799  0.00  0.00    +0.000 A 
ATOM      2  C   UNL     1       2.087   8.803  17.790  0.00  0.00    +0.000 A 
ATOM      3  C   UNL     1       1.422  10.008  18.023  0.00  0.00    +0.000 A 
ATOM      4  C   UNL     1       0.934  10.296  19.291  0.00  0.00    +0.000 A 
ATOM      5  C   UNL     1       1.112   9.381  20.329  0.00  0.00    +0.000 A 
ATOM      6  C   UNL     1       1.709   8.142  20.073  0.00  0.00    +0.000 A 
ENDROOT
BRANCH   1  15
ATOM      7  C   UNL     1       1.654   2.378  19.934  0.00  0.00    +0.000 C 
ATOM      8  N   UNL     1       2.725   2.837  19.102  0.00  0.00    +0.000 N 
ATOM      9  C   UNL     1       3.693   2.026  18.480  0.00  0.00    +0.000 A 
ATOM     10  O   UNL     1       3.802   0.814  18.548  0.00  0.00    +0.000 OA
ATOM     11  N   UNL     1       4.526   2.884  17.758  0.00  0.00    +0.000 N 
ATOM     12  C   UNL     1       4.091   4.185  17.914  0.00  0.00    +0.000 A 
ATOM     13  N   UNL     1       4.633   5.270  17.368  0.00  0.00    +0.000 NA
ATOM     14  C   UNL     1       3.982   6.417  17.689  0.00  0.00    +0.000 A 
ATOM     15  C   UNL     1       2.842   6.524  18.526  0.00  0.00    +0.000 A 
ATOM     16  C   UNL     1       2.332   5.331  19.071  0.00  0.00    +0.000 A 
ATOM     17  C   UNL     1       2.975   4.162  18.747  0.00  0.00    +0.000 A 
ATOM     18  H   UNL     1       5.317   2.607  17.203  0.00  0.00    +0.000 HD
ENDBRANCH   1  15
BRANCH   5  19
ATOM     19  C   UNL     1       0.653   9.749  21.690  0.00  0.00    +0.000 C 
ATOM     20  O   UNL     1       1.316   9.411  22.673  0.00  0.00    +0.000 OA
ATOM     21  N   UNL     1      -0.549  10.406  21.771  0.00  0.00    +0.000 N 
ATOM     22  H   UNL     1      -1.176  10.429  20.979  0.00  0.00    +0.000 HD
BRANCH  21  23
ATOM     23  C   UNL     1      -1.158  10.713  23.056  0.00  0.00    +0.000 C 
BRANCH  23  24
ATOM     24  C   UNL     1      -2.114  11.907  22.958  0.00  0.00    +0.000 C 
ATOM     25  C   UNL     1      -1.369  13.241  23.194  0.00  0.00    +0.000 C 
ATOM     26  N   UNL     1      -2.258  14.419  23.058  0.00  0.00    +0.000 NA
ATOM     27  C   UNL     1      -3.356  14.224  24.037  0.00  0.00    +0.000 C 
ATOM     28  C   UNL     1      -4.087  12.880  23.870  0.00  0.00    +0.000 C 
ATOM     29  O   UNL     1      -3.179  11.762  23.929  0.00  0.00    +0.000 OA
BRANCH  26  30
ATOM     30  C   UNL     1      -2.764  14.569  21.671  0.00  0.00    +0.000 C 
BRANCH  30  31
ATOM     31  C   UNL     1      -1.653  14.780  20.662  0.00  0.00    +0.000 A 
ATOM     32  C   UNL     1      -1.276  13.758  19.780  0.00  0.00    +0.000 A 
ATOM     33  C   UNL     1      -0.109  13.880  19.024  0.00  0.00    +0.000 A 
ATOM     34  C   UNL     1       0.670  15.033  19.119  0.00  0.00    +0.000 A 
ATOM     35  C   UNL     1       0.252  16.091  19.921  0.00  0.00    +0.000 A 
ATOM     36  C   UNL     1      -0.912  15.973  20.679  0.00  0.00    +0.000 A 
ENDBRANCH  30  31
ENDBRANCH  26  30
ENDBRANCH  23  24
ENDBRANCH  21  23
ENDBRANCH   5  19
TORSDOF 6
ENDMDL
MODEL 3
REMARK VINA RESULT:      -8.7      1.590      2.130
REMARK  Name = 
REMARK  7 active torsions:
REMARK  status: ('A' for Active; 'I' for Inactive)
REMARK    1  A    between atoms: C_1  and  N_2
REMARK    2  A    between atoms: C_9  and  C_10
REMARK    3  A    between atoms: C_14  and  C_15
REMARK    4  A    between atoms: N_17  and  C_18
REMARK    5  A    between atoms: C_18  and  C_19
REMARK    6  A    between atoms: N_21  and  C_22
REMARK    7  A    between atoms: C_22  and  C_23
REMARK                            x       y       z     vdW  Elec       q    Type
REMARK                         _______ _______ _______ _____ _____    ______ ____
ROOT
ATOM      1  C   UNL     1       1.962   8.016  19.143  0.00  0.00    +0.000 A 
ATOM      2  C   UNL     1       1.687   8.843  18.036  0.00  0.00    +0.000 A 
ATOM      3  C   UNL     1       0.887   9.980  18.160  0.00  0.00    +0.000 A 
ATOM      4  C   UNL     1       0.404  10.355  19.407  0.00  0.00    +0.000 A 
ATOM      5  C   UNL     1       0.724   9.596  20.533  0.00  0.00    +0.000 A 
ATOM      6  C   UNL     1       1.461   8.415  20.394  0.00  0.00    +0.000 A 
ENDROOT
BRANCH   1  15
ATOM      7  C   UNL     1       2.482   2.891  21.329  0.00  0.00    +0.000 C 
ATOM      8  N   UNL     1       3.311   3.298  20.235  0.00  0.00    +0.000 N 
ATOM      9  C   UNL     1       4.280   2.503  19.593  0.00  0.00    +0.000 A 
ATOM     10  O   UNL     1       4.592   1.355  19.855  0.00  0.00    +0.000 OA
ATOM     11  N   UNL     1       4.832   3.290  18.579  0.00  0.00    +0.000 N 
ATOM     12  C   UNL     1       4.226   4.531  18.580  0.00  0.00    +0.000 A 
ATOM     13  N   UNL     1       4.488   5.539  17.752  0.00  0.00    +0.000 NA
ATOM     14  C   UNL     1       3.723   6.637  17.982  0.00  0.00    +0.000 A 
ATOM     15  C   UNL     1       2.737   6.772  18.992  0.00  0.00    +0.000 A 
ATOM     16  C   UNL     1       2.524   5.663  19.832  0.00  0.00    +0.000 A 
ATOM     17  C   UNL     1       3.283   4.542  19.605  0.00  0.00    +0.000 A 
ATOM     18  H   UNL     1       5.553   3.006  17.940  0.00  0.00    +0.000 HD
ENDBRANCH   1  15
BRANCH   5  19
ATOM     19  C   UNL     1       0.264  10.065  21.863  0.00  0.00    +0.000 C 
ATOM     20  O   UNL     1       0.826   9.662  22.884  0.00  0.00    +0.000 OA
ATOM     21  N   UNL     1      -0.831  10.891  21.871  0.00  0.00    +0.000 N 
ATOM     22  H   UNL     1      -1.413  10.983  21.050  0.00  0.00    +0.000 HD
BRANCH  21  23
ATOM     23  C   UNL     1      -1.445  11.320  23.120  0.00  0.00    +0.000 C 
BRANCH  23  24
ATOM     24  C   UNL     1      -2.437  12.467  22.897  0.00  0.00    +0.000 C 
ATOM     25  C   UNL     1      -2.568  12.809  21.395  0.00  0.00    +0.000 C 
ATOM     26  N   UNL     1      -3.558  13.883  21.142  0.00  0.00    +0.000 NA
ATOM     27  C   UNL     1      -3.106  15.055  21.932  0.00  0.00    +0.000 C 
ATOM     28  C   UNL     1      -2.909  14.740  23.427  0.00  0.00    +0.000 C 
ATOM     29  O   UNL     1      -2.002  13.639  23.630  0.00  0.00    +0.000 OA
BRANCH  26  30
ATOM     30  C   UNL     1      -4.934  13.461  21.502  0.00  0.00    +0.000 C 
BRANCH  30  31
ATOM     31  C   UNL     1      -5.533  12.500  20.495  0.00  0.00    +0.000 A 
ATOM     32  C   UNL     1      -5.100  12.489  19.162  0.00  0.00    +0.000 A 
ATOM     33  C   UNL     1      -5.813  11.773  18.199  0.00  0.00    +0.000 A 
ATOM     34  C   UNL     1      -6.941  11.039  18.565  0.00  0.00    +0.000 A 
ATOM     35  C   UNL     1      -7.322  10.969  19.902  0.00  0.00    +0.000 A 
ATOM     36  C   UNL     1      -6.614  11.684  20.866  0.00  0.00    +0.000 A 
ENDBRANCH  30  31
ENDBRANCH  26  30
ENDBRANCH  23  24
ENDBRANCH  21  23
ENDBRANCH   5  19
TORSDOF 6
ENDMDL
MODEL 4
REMARK VINA RESULT:      -8.7      1.098      1.456
REMARK  Name = 
REMARK  7 active torsions:
REMARK  status: ('A' for Active; 'I' for Inactive)
REMARK    1  A    between atoms: C_1  and  N_2
REMARK    2  A    between atoms: C_9  and  C_10
REMARK    3  A    between atoms: C_14  and  C_15
REMARK    4  A    between atoms: N_17  and  C_18
REMARK    5  A    between atoms: C_18  and  C_19
REMARK    6  A    between atoms: N_21  and  C_22
REMARK    7  A    between atoms: C_22  and  C_23
REMARK                            x       y       z     vdW  Elec       q    Type
REMARK                         _______ _______ _______ _____ _____    ______ ____
ROOT
ATOM      1  C   UNL     1       1.913   7.926  19.059  0.00  0.00    +0.000 A 
ATOM      2  C   UNL     1       1.659   8.693  17.906  0.00  0.00    +0.000 A 
ATOM      3  C   UNL     1       0.781   9.778  17.934  0.00  0.00    +0.000 A 
ATOM      4  C   UNL     1       0.193  10.163  19.132  0.00  0.00    +0.000 A 
ATOM      5  C   UNL     1       0.486   9.466  20.305  0.00  0.00    +0.000 A 
ATOM      6  C   UNL     1       1.305   8.333  20.259  0.00  0.00    +0.000 A 
ENDROOT
BRANCH   1  15
ATOM      7  C   UNL     1       2.547   2.879  21.393  0.00  0.00    +0.000 C 
ATOM      8  N   UNL     1       3.447   3.322  20.372  0.00  0.00    +0.000 N 
ATOM      9  C   UNL     1       4.518   2.580  19.838  0.00  0.00    +0.000 A 
ATOM     10  O   UNL     1       4.875   1.459  20.152  0.00  0.00    +0.000 OA
ATOM     11  N   UNL     1       5.111   3.385  18.862  0.00  0.00    +0.000 N 
ATOM     12  C   UNL     1       4.431   4.584  18.781  0.00  0.00    +0.000 A 
ATOM     13  N   UNL     1       4.706   5.594  17.958  0.00  0.00    +0.000 NA
ATOM     14  C   UNL     1       3.856   6.644  18.094  0.00  0.00    +0.000 A 
ATOM     15  C   UNL     1       2.774   6.731  19.007  0.00  0.00    +0.000 A 
ATOM     16  C   UNL     1       2.554   5.624  19.847  0.00  0.00    +0.000 A 
ATOM     17  C   UNL     1       3.399   4.551  19.715  0.00  0.00    +0.000 A 
ATOM     18  H   UNL     1       5.905   3.138  18.297  0.00  0.00    +0.000 HD
ENDBRANCH   1  15
BRANCH   5  19
ATOM     19  C   UNL     1      -0.091   9.949  21.583  0.00  0.00    +0.000 C 
ATOM     20  O   UNL     1      -0.482   9.137  22.425  0.00  0.00    +0.000 OA
ATOM     21  N   UNL     1      -0.215  11.308  21.721  0.00  0.00    +0.000 N 
ATOM     22  H   UNL     1      -0.131  11.916  20.918  0.00  0.00    +0.000 HD
BRANCH  21  23
ATOM     23  C   UNL     1      -0.874  11.894  22.878  0.00  0.00    +0.000 C 
BRANCH  23  24
ATOM     24  C   UNL     1      -2.274  12.414  22.529  0.00  0.00    +0.000 C 
ATOM     25  C   UNL     1      -2.271  13.159  21.174  0.00  0.00    +0.000 C 
ATOM     26  N   UNL     1      -3.620  13.632  20.784  0.00  0.00    +0.000 NA
ATOM     27  C   UNL     1      -4.086  14.507  21.889  0.00  0.00    +0.000 C 
ATOM     28  C   UNL     1      -4.050  13.818  23.265  0.00  0.00    +0.000 C 
ATOM     29  O   UNL     1      -2.741  13.301  23.575  0.00  0.00    +0.000 OA
BRANCH  26  30
ATOM     30  C   UNL     1      -4.549  12.502  20.534  0.00  0.00    +0.000 C 
BRANCH  30  31
ATOM     31  C   UNL     1      -4.518  12.027  19.095  0.00  0.00    +0.000 A 
ATOM     32  C   UNL     1      -3.395  11.369  18.577  0.00  0.00    +0.000 A 
ATOM     33  C   UNL     1      -3.284  11.148  17.203  0.00  0.00    +0.000 A 
ATOM     34  C   UNL     1      -4.306  11.551  16.344  0.00  0.00    +0.000 A 
ATOM     35  C   UNL     1      -5.466  12.120  16.861  0.00  0.00    +0.000 A 
ATOM     36  C   UNL     1      -5.580  12.345  18.233  0.00  0.00    +0.000 A 
ENDBRANCH  30  31
ENDBRANCH  26  30
ENDBRANCH  23  24
ENDBRANCH  21  23
ENDBRANCH   5  19
TORSDOF 6
ENDMDL
MODEL 5
REMARK VINA RESULT:      -8.5      1.860      2.506
REMARK  Name = 
REMARK  7 active torsions:
REMARK  status: ('A' for Active; 'I' for Inactive)
REMARK    1  A    between atoms: C_1  and  N_2
REMARK    2  A    between atoms: C_9  and  C_10
REMARK    3  A    between atoms: C_14  and  C_15
REMARK    4  A    between atoms: N_17  and  C_18
REMARK    5  A    between atoms: C_18  and  C_19
REMARK    6  A    between atoms: N_21  and  C_22
REMARK    7  A    between atoms: C_22  and  C_23
REMARK                            x       y       z     vdW  Elec       q    Type
REMARK                         _______ _______ _______ _____ _____    ______ ____
ROOT
ATOM      1  C   UNL     1       2.147   7.859  18.751  0.00  0.00    +0.000 A 
ATOM      2  C   UNL     1       1.900   8.761  17.697  0.00  0.00    +0.000 A 
ATOM      3  C   UNL     1       1.185   9.942  17.904  0.00  0.00    +0.000 A 
ATOM      4  C   UNL     1       0.765  10.281  19.184  0.00  0.00    +0.000 A 
ATOM      5  C   UNL     1       1.062   9.443  20.259  0.00  0.00    +0.000 A 
ATOM      6  C   UNL     1       1.710   8.224  20.036  0.00  0.00    +0.000 A 
ENDROOT
BRANCH   1  15
ATOM      7  C   UNL     1       1.502   2.354  19.516  0.00  0.00    +0.000 C 
ATOM      8  N   UNL     1       2.680   2.862  18.881  0.00  0.00    +0.000 N 
ATOM      9  C   UNL     1       3.743   2.090  18.373  0.00  0.00    +0.000 A 
ATOM     10  O   UNL     1       3.859   0.878  18.397  0.00  0.00    +0.000 OA
ATOM     11  N   UNL     1       4.663   2.990  17.829  0.00  0.00    +0.000 N 
ATOM     12  C   UNL     1       4.190   4.279  17.982  0.00  0.00    +0.000 A 
ATOM     13  N   UNL     1       4.793   5.394  17.578  0.00  0.00    +0.000 NA
ATOM     14  C   UNL     1       4.083   6.518  17.853  0.00  0.00    +0.000 A 
ATOM     15  C   UNL     1       2.828   6.575  18.512  0.00  0.00    +0.000 A 
ATOM     16  C   UNL     1       2.260   5.351  18.913  0.00  0.00    +0.000 A 
ATOM     17  C   UNL     1       2.961   4.205  18.634  0.00  0.00    +0.000 A 
ATOM     18  H   UNL     1       5.533   2.748  17.388  0.00  0.00    +0.000 HD
ENDBRANCH   1  15
BRANCH   5  19
ATOM     19  C   UNL     1       0.673   9.871  21.625  0.00  0.00    +0.000 C 
ATOM     20  O   UNL     1       1.405   9.609  22.582  0.00  0.00    +0.000 OA
ATOM     21  N   UNL     1      -0.543  10.493  21.745  0.00  0.00    +0.000 N 
ATOM     22  H   UNL     1      -1.218  10.453  20.993  0.00  0.00    +0.000 HD
BRANCH  21  23
ATOM     23  C   UNL     1      -1.085  10.851  23.048  0.00  0.00    +0.000 C 
BRANCH  23  24
ATOM     24  C   UNL     1      -1.885  12.157  22.988  0.00  0.00    +0.000 C 
ATOM     25  C   UNL     1      -2.284  12.503  21.535  0.00  0.00    +0.000 C 
ATOM     26  N   UNL     1      -3.101  13.736  21.449  0.00  0.00    +0.000 NA
ATOM     27  C   UNL     1      -2.287  14.814  22.064  0.00  0.00    +0.000 C 
ATOM     28  C   UNL     1      -1.821  14.483  23.494  0.00  0.00    +0.000 C 
ATOM     29  O   UNL     1      -1.099  13.237  23.550  0.00  0.00    +0.000 OA
BRANCH  26  30
ATOM     30  C   UNL     1      -4.415  13.574  22.120  0.00  0.00    +0.000 C 
BRANCH  30  31
ATOM     31  C   UNL     1      -5.550  13.363  21.138  0.00  0.00    +0.000 A 
ATOM     32  C   UNL     1      -6.064  12.082  20.895  0.00  0.00    +0.000 A 
ATOM     33  C   UNL     1      -6.939  11.869  19.828  0.00  0.00    +0.000 A 
ATOM     34  C   UNL     1      -7.331  12.936  19.020  0.00  0.00    +0.000 A 
ATOM     35  C   UNL     1      -6.900  14.226  19.313  0.00  0.00    +0.000 A 
ATOM     36  C   UNL     1      -6.024  14.443  20.376  0.00  0.00    +0.000 A 
ENDBRANCH  30  31
ENDBRANCH  26  30
ENDBRANCH  23  24
ENDBRANCH  21  23
ENDBRANCH   5  19
TORSDOF 6
ENDMDL
MODEL 6
REMARK VINA RESULT:      -8.5      2.885      3.646
REMARK  Name = 
REMARK  7 active torsions:
REMARK  status: ('A' for Active; 'I' for Inactive)
REMARK    1  A    between atoms: C_1  and  N_2
REMARK    2  A    between atoms: C_9  and  C_10
REMARK    3  A    between atoms: C_14  and  C_15
REMARK    4  A    between atoms: N_17  and  C_18
REMARK    5  A    between atoms: C_18  and  C_19
REMARK    6  A    between atoms: N_21  and  C_22
REMARK    7  A    between atoms: C_22  and  C_23
REMARK                            x       y       z     vdW  Elec       q    Type
REMARK                         _______ _______ _______ _____ _____    ______ ____
ROOT
ATOM      1  C   UNL     1       2.114   7.784  19.072  0.00  0.00    +0.000 A 
ATOM      2  C   UNL     1       1.738   8.442  17.885  0.00  0.00    +0.000 A 
ATOM      3  C   UNL     1       0.893   9.553  17.906  0.00  0.00    +0.000 A 
ATOM      4  C   UNL     1       0.464  10.073  19.121  0.00  0.00    +0.000 A 
ATOM      5  C   UNL     1       0.883   9.486  20.315  0.00  0.00    +0.000 A 
ATOM      6  C   UNL     1       1.666   8.327  20.288  0.00  0.00    +0.000 A 
ENDROOT
BRANCH   1  15
ATOM      7  C   UNL     1       2.562   2.741  21.456  0.00  0.00    +0.000 C 
ATOM      8  N   UNL     1       3.486   3.145  20.441  0.00  0.00    +0.000 N 
ATOM      9  C   UNL     1       4.539   2.365  19.924  0.00  0.00    +0.000 A 
ATOM     10  O   UNL     1       4.857   1.235  20.252  0.00  0.00    +0.000 OA
ATOM     11  N   UNL     1       5.168   3.142  18.948  0.00  0.00    +0.000 N 
ATOM     12  C   UNL     1       4.528   4.361  18.849  0.00  0.00    +0.000 A 
ATOM     13  N   UNL     1       4.843   5.354  18.021  0.00  0.00    +0.000 NA
ATOM     14  C   UNL     1       4.026   6.432  18.139  0.00  0.00    +0.000 A 
ATOM     15  C   UNL     1       2.938   6.562  19.039  0.00  0.00    +0.000 A 
ATOM     16  C   UNL     1       2.673   5.470  19.887  0.00  0.00    +0.000 A 
ATOM     17  C   UNL     1       3.485   4.369  19.773  0.00  0.00    +0.000 A 
ATOM     18  H   UNL     1       5.959   2.864  18.394  0.00  0.00    +0.000 HD
ENDBRANCH   1  15
BRANCH   5  19
ATOM     19  C   UNL     1       0.475  10.111  21.597  0.00  0.00    +0.000 C 
ATOM     20  O   UNL     1       0.985   9.731  22.654  0.00  0.00    +0.000 OA
ATOM     21  N   UNL     1      -0.518  11.054  21.527  0.00  0.00    +0.000 N 
ATOM     22  H   UNL     1      -1.083  11.144  20.694  0.00  0.00    +0.000 HD
BRANCH  21  23
ATOM     23  C   UNL     1      -1.082  11.650  22.729  0.00  0.00    +0.000 C 
BRANCH  23  24
ATOM     24  C   UNL     1      -1.218  13.171  22.596  0.00  0.00    +0.000 C 
ATOM     25  C   UNL     1      -0.011  13.776  21.843  0.00  0.00    +0.000 C 
ATOM     26  N   UNL     1      -0.136  15.241  21.655  0.00  0.00    +0.000 NA
ATOM     27  C   UNL     1      -0.279  15.820  23.014  0.00  0.00    +0.000 C 
ATOM     28  C   UNL     1      -1.438  15.202  23.818  0.00  0.00    +0.000 C 
ATOM     29  O   UNL     1      -1.324  13.769  23.911  0.00  0.00    +0.000 OA
BRANCH  26  30
ATOM     30  C   UNL     1      -1.279  15.588  20.774  0.00  0.00    +0.000 C 
BRANCH  30  31
ATOM     31  C   UNL     1      -0.909  16.600  19.709  0.00  0.00    +0.000 A 
ATOM     32  C   UNL     1      -1.838  17.551  19.264  0.00  0.00    +0.000 A 
ATOM     33  C   UNL     1      -1.567  18.317  18.129  0.00  0.00    +0.000 A 
ATOM     34  C   UNL     1      -0.358  18.163  17.452  0.00  0.00    +0.000 A 
ATOM     35  C   UNL     1       0.608  17.289  17.942  0.00  0.00    +0.000 A 
ATOM     36  C   UNL     1       0.341  16.520  19.074  0.00  0.00    +0.000 A 
ENDBRANCH  30  31
ENDBRANCH  26  30
ENDBRANCH  23  24
ENDBRANCH  21  23
ENDBRANCH   5  19
TORSDOF 6
ENDMDL
MODEL 7
REMARK VINA RESULT:      -8.5      3.411      6.114
REMARK  Name = 
REMARK  7 active torsions:
REMARK  status: ('A' for Active; 'I' for Inactive)
REMARK    1  A    between atoms: C_1  and  N_2
REMARK    2  A    between atoms: C_9  and  C_10
REMARK    3  A    between atoms: C_14  and  C_15
REMARK    4  A    between atoms: N_17  and  C_18
REMARK    5  A    between atoms: C_18  and  C_19
REMARK    6  A    between atoms: N_21  and  C_22
REMARK    7  A    between atoms: C_22  and  C_23
REMARK                            x       y       z     vdW  Elec       q    Type
REMARK                         _______ _______ _______ _____ _____    ______ ____
ROOT
ATOM      1  C   UNL     1       4.163   3.663  17.647  0.00  0.00    +0.000 A 
ATOM      2  C   UNL     1       3.876   2.290  17.769  0.00  0.00    +0.000 A 
ATOM      3  C   UNL     1       2.998   1.815  18.745  0.00  0.00    +0.000 A 
ATOM      4  C   UNL     1       2.334   2.710  19.573  0.00  0.00    +0.000 A 
ATOM      5  C   UNL     1       2.543   4.081  19.425  0.00  0.00    +0.000 A 
ATOM      6  C   UNL     1       3.481   4.549  18.498  0.00  0.00    +0.000 A 
ENDROOT
BRANCH   1  15
ATOM      7  C   UNL     1       5.590   3.208  12.255  0.00  0.00    +0.000 C 
ATOM      8  N   UNL     1       6.341   4.055  13.133  0.00  0.00    +0.000 N 
ATOM      9  C   UNL     1       7.443   4.851  12.768  0.00  0.00    +0.000 A 
ATOM     10  O   UNL     1       7.957   4.951  11.668  0.00  0.00    +0.000 OA
ATOM     11  N   UNL     1       7.851   5.519  13.926  0.00  0.00    +0.000 N 
ATOM     12  C   UNL     1       7.029   5.160  14.976  0.00  0.00    +0.000 A 
ATOM     13  N   UNL     1       7.110   5.602  16.229  0.00  0.00    +0.000 NA
ATOM     14  C   UNL     1       6.156   5.083  17.044  0.00  0.00    +0.000 A 
ATOM     15  C   UNL     1       5.153   4.152  16.671  0.00  0.00    +0.000 A 
ATOM     16  C   UNL     1       5.139   3.730  15.328  0.00  0.00    +0.000 A 
ATOM     17  C   UNL     1       6.091   4.252  14.490  0.00  0.00    +0.000 A 
ATOM     18  H   UNL     1       8.618   6.165  13.994  0.00  0.00    +0.000 HD
ENDBRANCH   1  15
BRANCH   5  19
ATOM     19  C   UNL     1       1.759   5.017  20.268  0.00  0.00    +0.000 C 
ATOM     20  O   UNL     1       0.726   4.629  20.816  0.00  0.00    +0.000 OA
ATOM     21  N   UNL     1       2.216   6.309  20.330  0.00  0.00    +0.000 N 
ATOM     22  H   UNL     1       2.901   6.645  19.667  0.00  0.00    +0.000 HD
BRANCH  21  23
ATOM     23  C   UNL     1       1.466   7.343  21.028  0.00  0.00    +0.000 C 
BRANCH  23  24
ATOM     24  C   UNL     1       1.479   8.668  20.256  0.00  0.00    +0.000 C 
ATOM     25  C   UNL     1       0.126   9.404  20.387  0.00  0.00    +0.000 C 
ATOM     26  N   UNL     1       0.123  10.713  19.691  0.00  0.00    +0.000 NA
ATOM     27  C   UNL     1       0.455  10.427  18.273  0.00  0.00    +0.000 C 
ATOM     28  C   UNL     1       1.769   9.644  18.103  0.00  0.00    +0.000 C 
ATOM     29  O   UNL     1       1.766   8.416  18.858  0.00  0.00    +0.000 OA
BRANCH  26  30
ATOM     30  C   UNL     1       1.076  11.667  20.309  0.00  0.00    +0.000 C 
BRANCH  30  31
ATOM     31  C   UNL     1       1.105  13.006  19.600  0.00  0.00    +0.000 A 
ATOM     32  C   UNL     1       2.300  13.520  19.077  0.00  0.00    +0.000 A 
ATOM     33  C   UNL     1       2.361  14.844  18.639  0.00  0.00    +0.000 A 
ATOM     34  C   UNL     1       1.225  15.652  18.690  0.00  0.00    +0.000 A 
ATOM     35  C   UNL     1       0.012  15.121  19.119  0.00  0.00    +0.000 A 
ATOM     36  C   UNL     1      -0.053  13.800  19.559  0.00  0.00    +0.000 A 
ENDBRANCH  30  31
ENDBRANCH  26  30
ENDBRANCH  23  24
ENDBRANCH  21  23
ENDBRANCH   5  19
TORSDOF 6
ENDMDL
MODEL 8
REMARK VINA RESULT:      -8.5      1.698      2.502
REMARK  Name = 
REMARK  7 active torsions:
REMARK  status: ('A' for Active; 'I' for Inactive)
REMARK    1  A    between atoms: C_1  and  N_2
REMARK    2  A    between atoms: C_9  and  C_10
REMARK    3  A    between atoms: C_14  and  C_15
REMARK    4  A    between atoms: N_17  and  C_18
REMARK    5  A    between atoms: C_18  and  C_19
REMARK    6  A    between atoms: N_21  and  C_22
REMARK    7  A    between atoms: C_22  and  C_23
REMARK                            x       y       z     vdW  Elec       q    Type
REMARK                         _______ _______ _______ _____ _____    ______ ____
ROOT
ATOM      1  C   UNL     1       2.243   7.833  18.860  0.00  0.00    +0.000 A 
ATOM      2  C   UNL     1       1.958   8.722  17.805  0.00  0.00    +0.000 A 
ATOM      3  C   UNL     1       0.943   9.674  17.911  0.00  0.00    +0.000 A 
ATOM      4  C   UNL     1       0.238   9.805  19.101  0.00  0.00    +0.000 A 
ATOM      5  C   UNL     1       0.551   8.988  20.188  0.00  0.00    +0.000 A 
ATOM      6  C   UNL     1       1.516   7.984  20.053  0.00  0.00    +0.000 A 
ENDROOT
BRANCH   1  15
ATOM      7  C   UNL     1       7.469   7.002  17.040  0.00  0.00    +0.000 C 
ATOM      8  N   UNL     1       6.712   5.917  17.586  0.00  0.00    +0.000 N 
ATOM      9  C   UNL     1       7.167   4.594  17.751  0.00  0.00    +0.000 A 
ATOM     10  O   UNL     1       8.258   4.140  17.452  0.00  0.00    +0.000 OA
ATOM     11  N   UNL     1       6.115   3.881  18.331  0.00  0.00    +0.000 N 
ATOM     12  C   UNL     1       5.042   4.728  18.531  0.00  0.00    +0.000 A 
ATOM     13  N   UNL     1       3.869   4.404  19.068  0.00  0.00    +0.000 NA
ATOM     14  C   UNL     1       3.007   5.449  19.149  0.00  0.00    +0.000 A 
ATOM     15  C   UNL     1       3.258   6.775  18.713  0.00  0.00    +0.000 A 
ATOM     16  C   UNL     1       4.521   7.036  18.149  0.00  0.00    +0.000 A 
ATOM     17  C   UNL     1       5.407   5.991  18.069  0.00  0.00    +0.000 A 
ATOM     18  H   UNL     1       6.128   2.906  18.576  0.00  0.00    +0.000 HD
ENDBRANCH   1  15
BRANCH   5  19
ATOM     19  C   UNL     1      -0.161   9.206  21.471  0.00  0.00    +0.000 C 
ATOM     20  O   UNL     1      -0.671   8.250  22.059  0.00  0.00    +0.000 OA
ATOM     21  N   UNL     1      -0.262  10.505  21.899  0.00  0.00    +0.000 N 
ATOM     22  H   UNL     1      -0.066  11.270  21.269  0.00  0.00    +0.000 HD
BRANCH  21  23
ATOM     23  C   UNL     1      -1.038  10.854  23.080  0.00  0.00    +0.000 C 
BRANCH  23  24
ATOM     24  C   UNL     1      -2.115  11.898  22.760  0.00  0.00    +0.000 C 
ATOM     25  C   UNL     1      -1.795  12.646  21.445  0.00  0.00    +0.000 C 
ATOM     26  N   UNL     1      -2.844  13.628  21.083  0.00  0.00    +0.000 NA
ATOM     27  C   UNL     1      -2.949  14.562  22.231  0.00  0.00    +0.000 C 
ATOM     28  C   UNL     1      -3.211  13.849  23.571  0.00  0.00    +0.000 C 
ATOM     29  O   UNL     1      -2.215  12.846  23.850  0.00  0.00    +0.000 OA
BRANCH  26  30
ATOM     30  C   UNL     1      -4.136  12.967  20.777  0.00  0.00    +0.000 C 
BRANCH  30  31
ATOM     31  C   UNL     1      -4.166  12.353  19.392  0.00  0.00    +0.000 A 
ATOM     32  C   UNL     1      -5.381  12.055  18.761  0.00  0.00    +0.000 A 
ATOM     33  C   UNL     1      -5.397  11.283  17.598  0.00  0.00    +0.000 A 
ATOM     34  C   UNL     1      -4.201  10.832  17.041  0.00  0.00    +0.000 A 
ATOM     35  C   UNL     1      -2.985  11.203  17.609  0.00  0.00    +0.000 A 
ATOM     36  C   UNL     1      -2.965  11.972  18.771  0.00  0.00    +0.000 A 
ENDBRANCH  30  31
ENDBRANCH  26  30
ENDBRANCH  23  24
ENDBRANCH  21  23
ENDBRANCH   5  19
TORSDOF 6
ENDMDL
MODEL 9
REMARK VINA RESULT:      -8.5      2.379      3.200
REMARK  Name = 
REMARK  7 active torsions:
REMARK  status: ('A' for Active; 'I' for Inactive)
REMARK    1  A    between atoms: C_1  and  N_2
REMARK    2  A    between atoms: C_9  and  C_10
REMARK    3  A    between atoms: C_14  and  C_15
REMARK    4  A    between atoms: N_17  and  C_18
REMARK    5  A    between atoms: C_18  and  C_19
REMARK    6  A    between atoms: N_21  and  C_22
REMARK    7  A    between atoms: C_22  and  C_23
REMARK                            x       y       z     vdW  Elec       q    Type
REMARK                         _______ _______ _______ _____ _____    ______ ____
ROOT
ATOM      1  C   UNL     1       2.106   7.801  19.180  0.00  0.00    +0.000 A 
ATOM      2  C   UNL     1       1.845   8.634  18.075  0.00  0.00    +0.000 A 
ATOM      3  C   UNL     1       1.067   9.786  18.200  0.00  0.00    +0.000 A 
ATOM      4  C   UNL     1       0.593  10.168  19.448  0.00  0.00    +0.000 A 
ATOM      5  C   UNL     1       0.900   9.402  20.573  0.00  0.00    +0.000 A 
ATOM      6  C   UNL     1       1.614   8.208  20.432  0.00  0.00    +0.000 A 
ENDROOT
BRANCH   1  15
ATOM      7  C   UNL     1       2.661   2.728  21.475  0.00  0.00    +0.000 C 
ATOM      8  N   UNL     1       3.444   3.095  20.334  0.00  0.00    +0.000 N 
ATOM      9  C   UNL     1       4.372   2.270  19.670  0.00  0.00    +0.000 A 
ATOM     10  O   UNL     1       4.681   1.124  19.948  0.00  0.00    +0.000 OA
ATOM     11  N   UNL     1       4.887   3.023  18.611  0.00  0.00    +0.000 N 
ATOM     12  C   UNL     1       4.297   4.272  18.607  0.00  0.00    +0.000 A 
ATOM     13  N   UNL     1       4.533   5.254  17.741  0.00  0.00    +0.000 NA
ATOM     14  C   UNL     1       3.794   6.368  17.977  0.00  0.00    +0.000 A 
ATOM     15  C   UNL     1       2.858   6.543  19.027  0.00  0.00    +0.000 A 
ATOM     16  C   UNL     1       2.669   5.458  19.905  0.00  0.00    +0.000 A 
ATOM     17  C   UNL     1       3.403   4.322  19.674  0.00  0.00    +0.000 A 
ATOM     18  H   UNL     1       5.574   2.712  17.947  0.00  0.00    +0.000 HD
ENDBRANCH   1  15
BRANCH   5  19
ATOM     19  C   UNL     1       0.449   9.878  21.904  0.00  0.00    +0.000 C 
ATOM     20  O   UNL     1       1.094   9.581  22.912  0.00  0.00    +0.000 OA
ATOM     21  N   UNL     1      -0.725  10.586  21.932  0.00  0.00    +0.000 N 
ATOM     22  H   UNL     1      -1.348  10.581  21.136  0.00  0.00    +0.000 HD
BRANCH  21  23
ATOM     23  C   UNL     1      -1.328  11.002  23.190  0.00  0.00    +0.000 C 
BRANCH  23  24
ATOM     24  C   UNL     1      -2.275  12.192  22.997  0.00  0.00    +0.000 C 
ATOM     25  C   UNL     1      -1.589  13.522  23.384  0.00  0.00    +0.000 C 
ATOM     26  N   UNL     1      -2.464  14.697  23.162  0.00  0.00    +0.000 NA
ATOM     27  C   UNL     1      -3.688  14.458  23.967  0.00  0.00    +0.000 C 
ATOM     28  C   UNL     1      -4.371  13.115  23.650  0.00  0.00    +0.000 C 
ATOM     29  O   UNL     1      -3.466  12.003  23.800  0.00  0.00    +0.000 OA
BRANCH  26  30
ATOM     30  C   UNL     1      -2.769  14.893  21.723  0.00  0.00    +0.000 C 
BRANCH  30  31
ATOM     31  C   UNL     1      -1.600  15.473  20.952  0.00  0.00    +0.000 A 
ATOM     32  C   UNL     1      -1.154  16.779  21.193  0.00  0.00    +0.000 A 
ATOM     33  C   UNL     1      -0.241  17.379  20.324  0.00  0.00    +0.000 A 
ATOM     34  C   UNL     1       0.257  16.670  19.231  0.00  0.00    +0.000 A 
ATOM     35  C   UNL     1      -0.109  15.341  19.040  0.00  0.00    +0.000 A 
ATOM     36  C   UNL     1      -1.022  14.738  19.904  0.00  0.00    +0.000 A 
ENDBRANCH  30  31
ENDBRANCH  26  30
ENDBRANCH  23  24
ENDBRANCH  21  23
ENDBRANCH   5  19
TORSDOF 6
ENDMDL
