MODEL 1
REMARK VINA RESULT:      -8.1      0.000      0.000
REMARK  Name = 
REMARK  4 active torsions:
REMARK  status: ('A' for Active; 'I' for Inactive)
REMARK    1  A    between atoms: C_2  and  C_16
REMARK    2  A    between atoms: N_3  and  C_4
REMARK    3  A    between atoms: C_4  and  C_5
REMARK    4  A    between atoms: C_8  and  C_9
REMARK                            x       y       z     vdW  Elec       q    Type
REMARK                         _______ _______ _______ _____ _____    ______ ____
ROOT
ATOM      1  O   UNL     1       5.180   4.920  19.991  0.00  0.00    +0.000 OA
ATOM      2  C   UNL     1       5.308   4.138  19.052  0.00  0.00    +0.000 C 
ATOM      3  N   UNL     1       4.910   2.821  19.114  0.00  0.00    +0.000 N 
ATOM      4  H   UNL     1       4.976   2.267  18.263  0.00  0.00    +0.000 HD
ENDROOT
BRANCH   2   5
ATOM      5  C   UNL     1       5.903   4.598  17.756  0.00  0.00    +0.000 A 
ATOM      6  C   UNL     1       6.711   5.740  17.786  0.00  0.00    +0.000 A 
ATOM      7  C   UNL     1       7.332   6.185  16.625  0.00  0.00    +0.000 A 
ATOM      8  C   UNL     1       7.064   5.414  15.499  0.00  0.00    +0.000 A 
ATOM      9  N   UNL     1       7.458   5.471  14.196  0.00  0.00    +0.000 N 
ATOM     10  N   UNL     1       6.922   4.477  13.466  0.00  0.00    +0.000 NA
ATOM     11  N   UNL     1       6.166   3.748  14.284  0.00  0.00    +0.000 NA
ATOM     12  C   UNL     1       6.237   4.299  15.533  0.00  0.00    +0.000 A 
ATOM     13  N   UNL     1       5.629   3.847  16.657  0.00  0.00    +0.000 NA
ATOM     14  H   UNL     1       8.079   6.129  13.739  0.00  0.00    +0.000 HD
ENDBRANCH   2   5
BRANCH   3  15
ATOM     15  C   UNL     1       4.300   2.256  20.304  0.00  0.00    +0.000 C 
BRANCH  15  16
ATOM     16  C   UNL     1       2.768   2.089  20.249  0.00  0.00    +0.000 C 
ATOM     17  C   UNL     1       2.010   2.364  21.533  0.00  0.00    +0.000 C 
ATOM     18  C   UNL     1       1.639   3.821  21.415  0.00  0.00    +0.000 C 
ATOM     19  C   UNL     1       1.446   4.002  19.912  0.00  0.00    +0.000 C 
ATOM     20  O   UNL     1       2.216   2.972  19.259  0.00  0.00    +0.000 OA
BRANCH  19  21
ATOM     21  C   UNL     1       1.822   5.377  19.402  0.00  0.00    +0.000 A 
ATOM     22  C   UNL     1       1.756   6.511  20.228  0.00  0.00    +0.000 A 
ATOM     23  C   UNL     1       2.127   7.769  19.753  0.00  0.00    +0.000 A 
ATOM     24  C   UNL     1       2.585   7.912  18.447  0.00  0.00    +0.000 A 
ATOM     25  C   UNL     1       2.665   6.799  17.614  0.00  0.00    +0.000 A 
ATOM     26  C   UNL     1       2.285   5.540  18.087  0.00  0.00    +0.000 A 
ENDBRANCH  19  21
ENDBRANCH  15  16
ENDBRANCH   3  15
TORSDOF 4
ENDMDL
MODEL 2
REMARK VINA RESULT:      -8.0      1.171      1.448
REMARK  Name = 
REMARK  4 active torsions:
REMARK  status: ('A' for Active; 'I' for Inactive)
REMARK    1  A    between atoms: C_2  and  C_16
REMARK    2  A    between atoms: N_3  and  C_4
REMARK    3  A    between atoms: C_4  and  C_5
REMARK    4  A    between atoms: C_8  and  C_9
REMARK                            x       y       z     vdW  Elec       q    Type
REMARK                         _______ _______ _______ _____ _____    ______ ____
ROOT
ATOM      1  O   UNL     1       4.863   2.356  20.104  0.00  0.00    +0.000 OA
ATOM      2  C   UNL     1       4.408   2.951  19.129  0.00  0.00    +0.000 C 
ATOM      3  N   UNL     1       3.119   2.771  18.677  0.00  0.00    +0.000 N 
ATOM      4  H   UNL     1       2.799   3.366  17.916  0.00  0.00    +0.000 HD
ENDROOT
BRANCH   2   5
ATOM      5  C   UNL     1       5.250   3.938  18.380  0.00  0.00    +0.000 A 
ATOM      6  C   UNL     1       5.735   5.043  19.089  0.00  0.00    +0.000 A 
ATOM      7  C   UNL     1       6.564   5.965  18.462  0.00  0.00    +0.000 A 
ATOM      8  C   UNL     1       6.829   5.682  17.127  0.00  0.00    +0.000 A 
ATOM      9  N   UNL     1       7.576   6.286  16.160  0.00  0.00    +0.000 N 
ATOM     10  N   UNL     1       7.523   5.618  14.994  0.00  0.00    +0.000 NA
ATOM     11  N   UNL     1       6.736   4.560  15.178  0.00  0.00    +0.000 NA
ATOM     12  C   UNL     1       6.300   4.575  16.474  0.00  0.00    +0.000 A 
ATOM     13  N   UNL     1       5.497   3.663  17.073  0.00  0.00    +0.000 NA
ATOM     14  H   UNL     1       8.144   7.124  16.215  0.00  0.00    +0.000 HD
ENDBRANCH   2   5
BRANCH   3  15
ATOM     15  C   UNL     1       2.195   1.861  19.327  0.00  0.00    +0.000 C 
BRANCH  15  16
ATOM     16  C   UNL     1       1.268   2.497  20.383  0.00  0.00    +0.000 C 
ATOM     17  C   UNL     1       1.898   2.838  21.719  0.00  0.00    +0.000 C 
ATOM     18  C   UNL     1       2.328   4.273  21.546  0.00  0.00    +0.000 C 
ATOM     19  C   UNL     1       1.268   4.836  20.605  0.00  0.00    +0.000 C 
ATOM     20  O   UNL     1       0.717   3.722  19.873  0.00  0.00    +0.000 OA
BRANCH  19  21
ATOM     21  C   UNL     1       1.779   5.911  19.669  0.00  0.00    +0.000 A 
ATOM     22  C   UNL     1       1.888   7.250  20.079  0.00  0.00    +0.000 A 
ATOM     23  C   UNL     1       2.382   8.227  19.215  0.00  0.00    +0.000 A 
ATOM     24  C   UNL     1       2.789   7.879  17.931  0.00  0.00    +0.000 A 
ATOM     25  C   UNL     1       2.697   6.555  17.508  0.00  0.00    +0.000 A 
ATOM     26  C   UNL     1       2.193   5.577  18.371  0.00  0.00    +0.000 A 
ENDBRANCH  19  21
ENDBRANCH  15  16
ENDBRANCH   3  15
TORSDOF 4
ENDMDL
MODEL 3
REMARK VINA RESULT:      -8.0      1.938      2.541
REMARK  Name = 
REMARK  4 active torsions:
REMARK  status: ('A' for Active; 'I' for Inactive)
REMARK    1  A    between atoms: C_2  and  C_16
REMARK    2  A    between atoms: N_3  and  C_4
REMARK    3  A    between atoms: C_4  and  C_5
REMARK    4  A    between atoms: C_8  and  C_9
REMARK                            x       y       z     vdW  Elec       q    Type
REMARK                         _______ _______ _______ _____ _____    ______ ____
ROOT
ATOM      1  O   UNL     1       5.145   2.460  19.852  0.00  0.00    +0.000 OA
ATOM      2  C   UNL     1       4.615   3.147  18.982  0.00  0.00    +0.000 C 
ATOM      3  N   UNL     1       3.323   2.946  18.552  0.00  0.00    +0.000 N 
ATOM      4  H   UNL     1       2.937   3.613  17.888  0.00  0.00    +0.000 HD
ENDROOT
BRANCH   2   5
ATOM      5  C   UNL     1       5.365   4.277  18.345  0.00  0.00    +0.000 A 
ATOM      6  C   UNL     1       4.994   4.649  17.048  0.00  0.00    +0.000 A 
ATOM      7  C   UNL     1       5.618   5.723  16.424  0.00  0.00    +0.000 A 
ATOM      8  C   UNL     1       6.600   6.339  17.191  0.00  0.00    +0.000 A 
ATOM      9  N   UNL     1       7.430   7.402  16.993  0.00  0.00    +0.000 N 
ATOM     10  N   UNL     1       8.225   7.623  18.054  0.00  0.00    +0.000 NA
ATOM     11  N   UNL     1       7.927   6.705  18.972  0.00  0.00    +0.000 NA
ATOM     12  C   UNL     1       6.935   5.909  18.469  0.00  0.00    +0.000 A 
ATOM     13  N   UNL     1       6.332   4.869  19.094  0.00  0.00    +0.000 NA
ATOM     14  H   UNL     1       7.508   8.016  16.190  0.00  0.00    +0.000 HD
ENDBRANCH   2   5
BRANCH   3  15
ATOM     15  C   UNL     1       2.482   1.899  19.103  0.00  0.00    +0.000 C 
BRANCH  15  16
ATOM     16  C   UNL     1       1.490   2.349  20.194  0.00  0.00    +0.000 C 
ATOM     17  C   UNL     1       2.074   2.630  21.565  0.00  0.00    +0.000 C 
ATOM     18  C   UNL     1       2.367   4.110  21.525  0.00  0.00    +0.000 C 
ATOM     19  C   UNL     1       1.265   4.650  20.618  0.00  0.00    +0.000 C 
ATOM     20  O   UNL     1       0.829   3.557  19.783  0.00  0.00    +0.000 OA
BRANCH  19  21
ATOM     21  C   UNL     1       1.679   5.846  19.787  0.00  0.00    +0.000 A 
ATOM     22  C   UNL     1       1.970   5.724  18.419  0.00  0.00    +0.000 A 
ATOM     23  C   UNL     1       2.329   6.837  17.658  0.00  0.00    +0.000 A 
ATOM     24  C   UNL     1       2.387   8.095  18.251  0.00  0.00    +0.000 A 
ATOM     25  C   UNL     1       2.093   8.238  19.604  0.00  0.00    +0.000 A 
ATOM     26  C   UNL     1       1.743   7.122  20.369  0.00  0.00    +0.000 A 
ENDBRANCH  19  21
ENDBRANCH  15  16
ENDBRANCH   3  15
TORSDOF 4
ENDMDL
MODEL 4
REMARK VINA RESULT:      -7.8      2.699      7.041
REMARK  Name = 
REMARK  4 active torsions:
REMARK  status: ('A' for Active; 'I' for Inactive)
REMARK    1  A    between atoms: C_2  and  C_16
REMARK    2  A    between atoms: N_3  and  C_4
REMARK    3  A    between atoms: C_4  and  C_5
REMARK    4  A    between atoms: C_8  and  C_9
REMARK                            x       y       z     vdW  Elec       q    Type
REMARK                         _______ _______ _______ _____ _____    ______ ____
ROOT
ATOM      1  O   UNL     1       2.886   7.386  17.817  0.00  0.00    +0.000 OA
ATOM      2  C   UNL     1       3.440   6.354  18.190  0.00  0.00    +0.000 C 
ATOM      3  N   UNL     1       4.790   6.129  18.028  0.00  0.00    +0.000 N 
ATOM      4  H   UNL     1       5.180   5.285  18.441  0.00  0.00    +0.000 HD
ENDROOT
BRANCH   2   5
ATOM      5  C   UNL     1       2.657   5.274  18.870  0.00  0.00    +0.000 A 
ATOM      6  C   UNL     1       1.741   4.554  18.094  0.00  0.00    +0.000 A 
ATOM      7  C   UNL     1       1.023   3.505  18.657  0.00  0.00    +0.000 A 
ATOM      8  C   UNL     1       1.298   3.278  20.001  0.00  0.00    +0.000 A 
ATOM      9  N   UNL     1       0.852   2.377  20.920  0.00  0.00    +0.000 N 
ATOM     10  N   UNL     1       1.429   2.557  22.122  0.00  0.00    +0.000 NA
ATOM     11  N   UNL     1       2.268   3.585  22.008  0.00  0.00    +0.000 NA
ATOM     12  C   UNL     1       2.208   4.043  20.721  0.00  0.00    +0.000 A 
ATOM     13  N   UNL     1       2.922   5.063  20.186  0.00  0.00    +0.000 NA
ATOM     14  H   UNL     1       0.184   1.623  20.811  0.00  0.00    +0.000 HD
ENDBRANCH   2   5
BRANCH   3  15
ATOM     15  C   UNL     1       5.664   7.105  17.404  0.00  0.00    +0.000 C 
BRANCH  15  16
ATOM     16  C   UNL     1       7.147   6.696  17.298  0.00  0.00    +0.000 C 
ATOM     17  C   UNL     1       7.553   5.429  18.025  0.00  0.00    +0.000 C 
ATOM     18  C   UNL     1       7.406   4.359  16.971  0.00  0.00    +0.000 C 
ATOM     19  C   UNL     1       7.753   5.100  15.683  0.00  0.00    +0.000 C 
ATOM     20  O   UNL     1       7.501   6.501  15.920  0.00  0.00    +0.000 OA
BRANCH  19  21
ATOM     21  C   UNL     1       7.005   4.604  14.464  0.00  0.00    +0.000 A 
ATOM     22  C   UNL     1       7.589   4.621  13.187  0.00  0.00    +0.000 A 
ATOM     23  C   UNL     1       6.898   4.141  12.074  0.00  0.00    +0.000 A 
ATOM     24  C   UNL     1       5.615   3.622  12.223  0.00  0.00    +0.000 A 
ATOM     25  C   UNL     1       5.021   3.589  13.482  0.00  0.00    +0.000 A 
ATOM     26  C   UNL     1       5.710   4.078  14.595  0.00  0.00    +0.000 A 
ENDBRANCH  19  21
ENDBRANCH  15  16
ENDBRANCH   3  15
TORSDOF 4
ENDMDL
MODEL 5
REMARK VINA RESULT:      -7.7      3.762      5.843
REMARK  Name = 
REMARK  4 active torsions:
REMARK  status: ('A' for Active; 'I' for Inactive)
REMARK    1  A    between atoms: C_2  and  C_16
REMARK    2  A    between atoms: N_3  and  C_4
REMARK    3  A    between atoms: C_4  and  C_5
REMARK    4  A    between atoms: C_8  and  C_9
REMARK                            x       y       z     vdW  Elec       q    Type
REMARK                         _______ _______ _______ _____ _____    ______ ____
ROOT
ATOM      1  O   UNL     1       4.187   5.840  19.841  0.00  0.00    +0.000 OA
ATOM      2  C   UNL     1       2.963   5.947  19.813  0.00  0.00    +0.000 C 
ATOM      3  N   UNL     1       2.112   4.903  20.103  0.00  0.00    +0.000 N 
ATOM      4  H   UNL     1       1.115   5.103  20.136  0.00  0.00    +0.000 HD
ENDROOT
BRANCH   2   5
ATOM      5  C   UNL     1       2.323   7.258  19.469  0.00  0.00    +0.000 A 
ATOM      6  C   UNL     1       2.442   7.708  18.149  0.00  0.00    +0.000 A 
ATOM      7  C   UNL     1       1.826   8.891  17.757  0.00  0.00    +0.000 A 
ATOM      8  C   UNL     1       1.130   9.538  18.773  0.00  0.00    +0.000 A 
ATOM      9  N   UNL     1       0.391  10.681  18.835  0.00  0.00    +0.000 N 
ATOM     10  N   UNL     1      -0.098  10.896  20.069  0.00  0.00    +0.000 NA
ATOM     11  N   UNL     1       0.315   9.891  20.840  0.00  0.00    +0.000 NA
ATOM     12  C   UNL     1       1.066   9.046  20.071  0.00  0.00    +0.000 A 
ATOM     13  N   UNL     1       1.654   7.892  20.467  0.00  0.00    +0.000 NA
ATOM     14  H   UNL     1       0.169  11.345  18.102  0.00  0.00    +0.000 HD
ENDBRANCH   2   5
BRANCH   3  15
ATOM     15  C   UNL     1       2.604   3.589  20.471  0.00  0.00    +0.000 C 
BRANCH  15  16
ATOM     16  C   UNL     1       2.709   2.572  19.316  0.00  0.00    +0.000 C 
ATOM     17  C   UNL     1       1.746   2.759  18.160  0.00  0.00    +0.000 C 
ATOM     18  C   UNL     1       2.525   3.614  17.191  0.00  0.00    +0.000 C 
ATOM     19  C   UNL     1       3.964   3.161  17.419  0.00  0.00    +0.000 C 
ATOM     20  O   UNL     1       4.029   2.611  18.751  0.00  0.00    +0.000 OA
BRANCH  19  21
ATOM     21  C   UNL     1       4.994   4.254  17.224  0.00  0.00    +0.000 A 
ATOM     22  C   UNL     1       4.716   5.397  16.457  0.00  0.00    +0.000 A 
ATOM     23  C   UNL     1       5.665   6.407  16.303  0.00  0.00    +0.000 A 
ATOM     24  C   UNL     1       6.904   6.299  16.928  0.00  0.00    +0.000 A 
ATOM     25  C   UNL     1       7.196   5.177  17.700  0.00  0.00    +0.000 A 
ATOM     26  C   UNL     1       6.249   4.160  17.846  0.00  0.00    +0.000 A 
ENDBRANCH  19  21
ENDBRANCH  15  16
ENDBRANCH   3  15
TORSDOF 4
ENDMDL
MODEL 6
REMARK VINA RESULT:      -7.6      1.761      2.573
REMARK  Name = 
REMARK  4 active torsions:
REMARK  status: ('A' for Active; 'I' for Inactive)
REMARK    1  A    between atoms: C_2  and  C_16
REMARK    2  A    between atoms: N_3  and  C_4
REMARK    3  A    between atoms: C_4  and  C_5
REMARK    4  A    between atoms: C_8  and  C_9
REMARK                            x       y       z     vdW  Elec       q    Type
REMARK                         _______ _______ _______ _____ _____    ______ ____
ROOT
ATOM      1  O   UNL     1       3.816   1.495  17.981  0.00  0.00    +0.000 OA
ATOM      2  C   UNL     1       3.620   2.684  17.737  0.00  0.00    +0.000 C 
ATOM      3  N   UNL     1       2.426   3.317  18.004  0.00  0.00    +0.000 N 
ATOM      4  H   UNL     1       2.379   4.321  17.848  0.00  0.00    +0.000 HD
ENDROOT
BRANCH   2   5
ATOM      5  C   UNL     1       4.706   3.526  17.139  0.00  0.00    +0.000 A 
ATOM      6  C   UNL     1       5.086   3.249  15.821  0.00  0.00    +0.000 A 
ATOM      7  C   UNL     1       6.051   4.030  15.195  0.00  0.00    +0.000 A 
ATOM      8  C   UNL     1       6.568   5.047  15.988  0.00  0.00    +0.000 A 
ATOM      9  N   UNL     1       7.493   6.028  15.787  0.00  0.00    +0.000 N 
ATOM     10  N   UNL     1       7.658   6.794  16.881  0.00  0.00    +0.000 NA
ATOM     11  N   UNL     1       6.839   6.325  17.820  0.00  0.00    +0.000 NA
ATOM     12  C   UNL     1       6.160   5.259  17.299  0.00  0.00    +0.000 A 
ATOM     13  N   UNL     1       5.216   4.512  17.922  0.00  0.00    +0.000 NA
ATOM     14  H   UNL     1       8.032   6.244  14.957  0.00  0.00    +0.000 HD
ENDBRANCH   2   5
BRANCH   3  15
ATOM     15  C   UNL     1       1.303   2.620  18.602  0.00  0.00    +0.000 C 
BRANCH  15  16
ATOM     16  C   UNL     1       1.071   2.897  20.102  0.00  0.00    +0.000 C 
ATOM     17  C   UNL     1       2.283   2.783  21.006  0.00  0.00    +0.000 C 
ATOM     18  C   UNL     1       2.820   4.193  21.049  0.00  0.00    +0.000 C 
ATOM     19  C   UNL     1       1.558   5.042  20.929  0.00  0.00    +0.000 C 
ATOM     20  O   UNL     1       0.561   4.228  20.277  0.00  0.00    +0.000 OA
BRANCH  19  21
ATOM     21  C   UNL     1       1.762   6.352  20.199  0.00  0.00    +0.000 A 
ATOM     22  C   UNL     1       2.397   6.405  18.947  0.00  0.00    +0.000 A 
ATOM     23  C   UNL     1       2.558   7.616  18.274  0.00  0.00    +0.000 A 
ATOM     24  C   UNL     1       2.074   8.793  18.835  0.00  0.00    +0.000 A 
ATOM     25  C   UNL     1       1.434   8.762  20.071  0.00  0.00    +0.000 A 
ATOM     26  C   UNL     1       1.280   7.550  20.750  0.00  0.00    +0.000 A 
ENDBRANCH  19  21
ENDBRANCH  15  16
ENDBRANCH   3  15
TORSDOF 4
ENDMDL
MODEL 7
REMARK VINA RESULT:      -7.5      3.641      6.334
REMARK  Name = 
REMARK  4 active torsions:
REMARK  status: ('A' for Active; 'I' for Inactive)
REMARK    1  A    between atoms: C_2  and  C_16
REMARK    2  A    between atoms: N_3  and  C_4
REMARK    3  A    between atoms: C_4  and  C_5
REMARK    4  A    between atoms: C_8  and  C_9
REMARK                            x       y       z     vdW  Elec       q    Type
REMARK                         _______ _______ _______ _____ _____    ______ ____
ROOT
ATOM      1  O   UNL     1       2.161   5.761  17.582  0.00  0.00    +0.000 OA
ATOM      2  C   UNL     1       2.791   6.791  17.815  0.00  0.00    +0.000 C 
ATOM      3  N   UNL     1       4.059   7.020  17.329  0.00  0.00    +0.000 N 
ATOM      4  H   UNL     1       4.473   7.933  17.501  0.00  0.00    +0.000 HD
ENDROOT
BRANCH   2   5
ATOM      5  C   UNL     1       2.185   7.881  18.646  0.00  0.00    +0.000 A 
ATOM      6  C   UNL     1       1.736   9.027  17.980  0.00  0.00    +0.000 A 
ATOM      7  C   UNL     1       1.117  10.049  18.690  0.00  0.00    +0.000 A 
ATOM      8  C   UNL     1       1.014   9.816  20.057  0.00  0.00    +0.000 A 
ATOM      9  N   UNL     1       0.487  10.516  21.100  0.00  0.00    +0.000 N 
ATOM     10  N   UNL     1       0.627   9.861  22.266  0.00  0.00    +0.000 NA
ATOM     11  N   UNL     1       1.251   8.715  22.005  0.00  0.00    +0.000 NA
ATOM     12  C   UNL     1       1.497   8.662  20.660  0.00  0.00    +0.000 A 
ATOM     13  N   UNL     1       2.096   7.653  19.982  0.00  0.00    +0.000 NA
ATOM     14  H   UNL     1       0.019  11.415  21.101  0.00  0.00    +0.000 HD
ENDBRANCH   2   5
BRANCH   3  15
ATOM     15  C   UNL     1       4.750   6.054  16.494  0.00  0.00    +0.000 C 
BRANCH  15  16
ATOM     16  C   UNL     1       5.716   5.107  17.235  0.00  0.00    +0.000 C 
ATOM     17  C   UNL     1       6.319   5.629  18.524  0.00  0.00    +0.000 C 
ATOM     18  C   UNL     1       5.365   5.134  19.583  0.00  0.00    +0.000 C 
ATOM     19  C   UNL     1       4.872   3.811  19.004  0.00  0.00    +0.000 C 
ATOM     20  O   UNL     1       5.037   3.887  17.573  0.00  0.00    +0.000 OA
BRANCH  19  21
ATOM     21  C   UNL     1       3.445   3.467  19.375  0.00  0.00    +0.000 A 
ATOM     22  C   UNL     1       2.793   4.097  20.448  0.00  0.00    +0.000 A 
ATOM     23  C   UNL     1       1.470   3.788  20.766  0.00  0.00    +0.000 A 
ATOM     24  C   UNL     1       0.772   2.855  20.006  0.00  0.00    +0.000 A 
ATOM     25  C   UNL     1       1.398   2.225  18.933  0.00  0.00    +0.000 A 
ATOM     26  C   UNL     1       2.726   2.527  18.620  0.00  0.00    +0.000 A 
ENDBRANCH  19  21
ENDBRANCH  15  16
ENDBRANCH   3  15
TORSDOF 4
ENDMDL
MODEL 8
REMARK VINA RESULT:      -7.5      3.647      5.430
REMARK  Name = 
REMARK  4 active torsions:
REMARK  status: ('A' for Active; 'I' for Inactive)
REMARK    1  A    between atoms: C_2  and  C_16
REMARK    2  A    between atoms: N_3  and  C_4
REMARK    3  A    between atoms: C_4  and  C_5
REMARK    4  A    between atoms: C_8  and  C_9
REMARK                            x       y       z     vdW  Elec       q    Type
REMARK                         _______ _______ _______ _____ _____    ______ ____
ROOT
ATOM      1  O   UNL     1       2.612   5.610  21.517  0.00  0.00    +0.000 OA
ATOM      2  C   UNL     1       2.017   5.687  20.444  0.00  0.00    +0.000 C 
ATOM      3  N   UNL     1       1.321   4.633  19.896  0.00  0.00    +0.000 N 
ATOM      4  H   UNL     1       0.789   4.809  19.046  0.00  0.00    +0.000 HD
ENDROOT
BRANCH   2   5
ATOM      5  C   UNL     1       2.006   6.972  19.672  0.00  0.00    +0.000 A 
ATOM      6  C   UNL     1       2.554   6.956  18.385  0.00  0.00    +0.000 A 
ATOM      7  C   UNL     1       2.526   8.103  17.600  0.00  0.00    +0.000 A 
ATOM      8  C   UNL     1       1.934   9.202  18.213  0.00  0.00    +0.000 A 
ATOM      9  N   UNL     1       1.686  10.484  17.825  0.00  0.00    +0.000 N 
ATOM     10  N   UNL     1       1.073  11.191  18.790  0.00  0.00    +0.000 NA
ATOM     11  N   UNL     1       0.907  10.379  19.832  0.00  0.00    +0.000 NA
ATOM     12  C   UNL     1       1.423   9.156  19.505  0.00  0.00    +0.000 A 
ATOM     13  N   UNL     1       1.436   8.045  20.280  0.00  0.00    +0.000 NA
ATOM     14  H   UNL     1       1.888  10.939  16.942  0.00  0.00    +0.000 HD
ENDBRANCH   2   5
BRANCH   3  15
ATOM     15  C   UNL     1       1.236   3.341  20.553  0.00  0.00    +0.000 C 
BRANCH  15  16
ATOM     16  C   UNL     1       1.814   2.153  19.758  0.00  0.00    +0.000 C 
ATOM     17  C   UNL     1       1.271   1.946  18.358  0.00  0.00    +0.000 C 
ATOM     18  C   UNL     1       2.237   2.716  17.491  0.00  0.00    +0.000 C 
ATOM     19  C   UNL     1       3.558   2.567  18.239  0.00  0.00    +0.000 C 
ATOM     20  O   UNL     1       3.236   2.305  19.620  0.00  0.00    +0.000 OA
BRANCH  19  21
ATOM     21  C   UNL     1       4.481   3.760  18.106  0.00  0.00    +0.000 A 
ATOM     22  C   UNL     1       4.655   4.421  16.879  0.00  0.00    +0.000 A 
ATOM     23  C   UNL     1       5.491   5.533  16.774  0.00  0.00    +0.000 A 
ATOM     24  C   UNL     1       6.156   6.012  17.899  0.00  0.00    +0.000 A 
ATOM     25  C   UNL     1       5.990   5.376  19.127  0.00  0.00    +0.000 A 
ATOM     26  C   UNL     1       5.160   4.256  19.230  0.00  0.00    +0.000 A 
ENDBRANCH  19  21
ENDBRANCH  15  16
ENDBRANCH   3  15
TORSDOF 4
ENDMDL
MODEL 9
REMARK VINA RESULT:      -7.4      1.526      2.074
REMARK  Name = 
REMARK  4 active torsions:
REMARK  status: ('A' for Active; 'I' for Inactive)
REMARK    1  A    between atoms: C_2  and  C_16
REMARK    2  A    between atoms: N_3  and  C_4
REMARK    3  A    between atoms: C_4  and  C_5
REMARK    4  A    between atoms: C_8  and  C_9
REMARK                            x       y       z     vdW  Elec       q    Type
REMARK                         _______ _______ _______ _____ _____    ______ ____
ROOT
ATOM      1  O   UNL     1       2.151   3.403  16.544  0.00  0.00    +0.000 OA
ATOM      2  C   UNL     1       3.083   3.377  17.345  0.00  0.00    +0.000 C 
ATOM      3  N   UNL     1       2.982   2.805  18.594  0.00  0.00    +0.000 N 
ATOM      4  H   UNL     1       3.827   2.755  19.160  0.00  0.00    +0.000 HD
ENDROOT
BRANCH   2   5
ATOM      5  C   UNL     1       4.413   3.967  16.983  0.00  0.00    +0.000 A 
ATOM      6  C   UNL     1       5.325   4.186  18.021  0.00  0.00    +0.000 A 
ATOM      7  C   UNL     1       6.594   4.682  17.741  0.00  0.00    +0.000 A 
ATOM      8  C   UNL     1       6.828   4.928  16.393  0.00  0.00    +0.000 A 
ATOM      9  N   UNL     1       7.898   5.389  15.686  0.00  0.00    +0.000 N 
ATOM     10  N   UNL     1       7.638   5.454  14.368  0.00  0.00    +0.000 NA
ATOM     11  N   UNL     1       6.387   5.035  14.189  0.00  0.00    +0.000 NA
ATOM     12  C   UNL     1       5.870   4.705  15.411  0.00  0.00    +0.000 A 
ATOM     13  N   UNL     1       4.632   4.215  15.666  0.00  0.00    +0.000 NA
ATOM     14  H   UNL     1       8.816   5.662  16.014  0.00  0.00    +0.000 HD
ENDBRANCH   2   5
BRANCH   3  15
ATOM     15  C   UNL     1       1.757   2.182  19.059  0.00  0.00    +0.000 C 
BRANCH  15  16
ATOM     16  C   UNL     1       1.273   2.627  20.453  0.00  0.00    +0.000 C 
ATOM     17  C   UNL     1       2.327   2.712  21.540  0.00  0.00    +0.000 C 
ATOM     18  C   UNL     1       2.780   4.149  21.476  0.00  0.00    +0.000 C 
ATOM     19  C   UNL     1       1.513   4.887  21.051  0.00  0.00    +0.000 C 
ATOM     20  O   UNL     1       0.676   3.931  20.369  0.00  0.00    +0.000 OA
BRANCH  19  21
ATOM     21  C   UNL     1       1.767   6.107  20.192  0.00  0.00    +0.000 A 
ATOM     22  C   UNL     1       2.297   5.995  18.896  0.00  0.00    +0.000 A 
ATOM     23  C   UNL     1       2.505   7.126  18.105  0.00  0.00    +0.000 A 
ATOM     24  C   UNL     1       2.173   8.386  18.592  0.00  0.00    +0.000 A 
ATOM     25  C   UNL     1       1.639   8.517  19.872  0.00  0.00    +0.000 A 
ATOM     26  C   UNL     1       1.439   7.386  20.668  0.00  0.00    +0.000 A 
ENDBRANCH  19  21
ENDBRANCH  15  16
ENDBRANCH   3  15
TORSDOF 4
ENDMDL
