MODEL 1
REMARK VINA RESULT:      -8.9      0.000      0.000
REMARK  Name = 
REMARK  8 active torsions:
REMARK  status: ('A' for Active; 'I' for Inactive)
REMARK    1  A    between atoms: C_2  and  C_17
REMARK    2  A    between atoms: N_3  and  C_4
REMARK    3  A    between atoms: N_7  and  C_8
REMARK    4  A    between atoms: C_8  and  C_9
REMARK    5  A    between atoms: C_22  and  S_23
REMARK    6  A    between atoms: S_23  and  N_26
REMARK    7  A    between atoms: N_26  and  C_27
REMARK    8  A    between atoms: C_27  and  C_28
REMARK                            x       y       z     vdW  Elec       q    Type
REMARK                         _______ _______ _______ _____ _____    ______ ____
ROOT
ATOM      1  C   UNL     1       2.276   7.091  18.856  0.00  0.00    +0.000 A 
ATOM      2  C   UNL     1       1.946   6.797  20.187  0.00  0.00    +0.000 A 
ATOM      3  C   UNL     1       2.154   5.523  20.721  0.00  0.00    +0.000 A 
ATOM      4  C   UNL     1       2.684   4.498  19.935  0.00  0.00    +0.000 A 
ATOM      5 CL   UNL     1       2.900   2.986  20.735  0.00  0.00    +0.000 Cl
ATOM      6  C   UNL     1       3.020   4.768  18.605  0.00  0.00    +0.000 A 
ATOM      7  C   UNL     1       2.824   6.071  18.069  0.00  0.00    +0.000 A 
ENDROOT
BRANCH   1   9
ATOM      8  O   UNL     1       2.399   8.829  17.284  0.00  0.00    +0.000 OA
ATOM      9  C   UNL     1       2.031   8.502  18.410  0.00  0.00    +0.000 C 
ATOM     10  N   UNL     1       1.366   9.383  19.243  0.00  0.00    +0.000 N 
ATOM     11  H   UNL     1       1.255   9.182  20.227  0.00  0.00    +0.000 HD
BRANCH  10  12
ATOM     12  C   UNL     1       0.949  10.710  18.748  0.00  0.00    +0.000 C 
ATOM     13  C   UNL     1       1.576  11.863  19.533  0.00  0.00    +0.000 C 
ATOM     14  C   UNL     1       1.045  11.944  20.969  0.00  0.00    +0.000 C 
ATOM     15  N   UNL     1      -0.422  11.879  21.104  0.00  0.00    +0.000 NA
ATOM     16  C   UNL     1      -1.039  10.844  20.260  0.00  0.00    +0.000 C 
ATOM     17  C   UNL     1      -0.569  10.912  18.813  0.00  0.00    +0.000 C 
BRANCH  15  18
ATOM     18  C   UNL     1      -0.810  11.622  22.511  0.00  0.00    +0.000 C 
BRANCH  18  19
ATOM     19  C   UNL     1      -1.725  12.665  23.110  0.00  0.00    +0.000 A 
ATOM     20  C   UNL     1      -1.266  13.969  23.339  0.00  0.00    +0.000 A 
ATOM     21  C   UNL     1      -2.111  14.926  23.901  0.00  0.00    +0.000 A 
ATOM     22  C   UNL     1      -3.423  14.592  24.234  0.00  0.00    +0.000 A 
ATOM     23  C   UNL     1      -3.895  13.303  23.998  0.00  0.00    +0.000 A 
ATOM     24  C   UNL     1      -3.051  12.343  23.437  0.00  0.00    +0.000 A 
ENDBRANCH  18  19
ENDBRANCH  15  18
ENDBRANCH  10  12
ENDBRANCH   1   9
BRANCH   6  25
ATOM     25  S   UNL     1       3.539   3.496  17.470  0.00  0.00    +0.000 S 
ATOM     26  O   UNL     1       4.392   2.543  18.146  0.00  0.00    +0.000 OA
ATOM     27  O   UNL     1       2.330   3.054  16.802  0.00  0.00    +0.000 OA
BRANCH  25  28
ATOM     28  N   UNL     1       4.424   4.317  16.305  0.00  0.00    +0.000 NA
ATOM     29  H   UNL     1       4.157   5.293  16.196  0.00  0.00    +0.000 HD
BRANCH  28  30
ATOM     30  C   UNL     1       5.870   4.080  16.243  0.00  0.00    +0.000 C 
BRANCH  30  31
ATOM     31  C   UNL     1       6.625   5.108  17.053  0.00  0.00    +0.000 A 
ATOM     32  C   UNL     1       6.666   6.448  16.644  0.00  0.00    +0.000 A 
ATOM     33  C   UNL     1       7.354   7.399  17.400  0.00  0.00    +0.000 A 
ATOM     34  C   UNL     1       8.007   7.021  18.572  0.00  0.00    +0.000 A 
ATOM     35  C   UNL     1       7.971   5.693  18.992  0.00  0.00    +0.000 A 
ATOM     36  C   UNL     1       7.282   4.741  18.238  0.00  0.00    +0.000 A 
ENDBRANCH  30  31
ENDBRANCH  28  30
ENDBRANCH  25  28
ENDBRANCH   6  25
TORSDOF 8
ENDMDL
MODEL 2
REMARK VINA RESULT:      -8.8      0.660      1.064
REMARK  Name = 
REMARK  8 active torsions:
REMARK  status: ('A' for Active; 'I' for Inactive)
REMARK    1  A    between atoms: C_2  and  C_17
REMARK    2  A    between atoms: N_3  and  C_4
REMARK    3  A    between atoms: N_7  and  C_8
REMARK    4  A    between atoms: C_8  and  C_9
REMARK    5  A    between atoms: C_22  and  S_23
REMARK    6  A    between atoms: S_23  and  N_26
REMARK    7  A    between atoms: N_26  and  C_27
REMARK    8  A    between atoms: C_27  and  C_28
REMARK                            x       y       z     vdW  Elec       q    Type
REMARK                         _______ _______ _______ _____ _____    ______ ____
ROOT
ATOM      1  C   UNL     1       2.235   7.058  18.891  0.00  0.00    +0.000 A 
ATOM      2  C   UNL     1       1.838   6.811  20.213  0.00  0.00    +0.000 A 
ATOM      3  C   UNL     1       1.985   5.548  20.790  0.00  0.00    +0.000 A 
ATOM      4  C   UNL     1       2.520   4.487  20.057  0.00  0.00    +0.000 A 
ATOM      5 CL   UNL     1       2.656   2.993  20.906  0.00  0.00    +0.000 Cl
ATOM      6  C   UNL     1       2.921   4.709  18.737  0.00  0.00    +0.000 A 
ATOM      7  C   UNL     1       2.787   6.002  18.157  0.00  0.00    +0.000 A 
ENDROOT
BRANCH   1   9
ATOM      8  O   UNL     1       2.485   8.750  17.283  0.00  0.00    +0.000 OA
ATOM      9  C   UNL     1       2.051   8.462  18.397  0.00  0.00    +0.000 C 
ATOM     10  N   UNL     1       1.368   9.382  19.170  0.00  0.00    +0.000 N 
ATOM     11  H   UNL     1       1.200   9.211  20.152  0.00  0.00    +0.000 HD
BRANCH  10  12
ATOM     12  C   UNL     1       1.012  10.705  18.620  0.00  0.00    +0.000 C 
ATOM     13  C   UNL     1       1.536  11.864  19.470  0.00  0.00    +0.000 C 
ATOM     14  C   UNL     1       0.831  11.952  20.829  0.00  0.00    +0.000 C 
ATOM     15  N   UNL     1      -0.641  11.884  20.783  0.00  0.00    +0.000 NA
ATOM     16  C   UNL     1      -1.148  10.842  19.875  0.00  0.00    +0.000 C 
ATOM     17  C   UNL     1      -0.503  10.903  18.496  0.00  0.00    +0.000 C 
BRANCH  15  18
ATOM     18  C   UNL     1      -1.200  11.633  22.132  0.00  0.00    +0.000 C 
BRANCH  18  19
ATOM     19  C   UNL     1      -2.354  12.533  22.510  0.00  0.00    +0.000 A 
ATOM     20  C   UNL     1      -2.636  13.684  21.762  0.00  0.00    +0.000 A 
ATOM     21  C   UNL     1      -3.695  14.517  22.120  0.00  0.00    +0.000 A 
ATOM     22  C   UNL     1      -4.487  14.206  23.225  0.00  0.00    +0.000 A 
ATOM     23  C   UNL     1      -4.225  13.057  23.969  0.00  0.00    +0.000 A 
ATOM     24  C   UNL     1      -3.164  12.223  23.613  0.00  0.00    +0.000 A 
ENDBRANCH  18  19
ENDBRANCH  15  18
ENDBRANCH  10  12
ENDBRANCH   1   9
BRANCH   6  25
ATOM     25  S   UNL     1       3.453   3.392  17.661  0.00  0.00    +0.000 S 
ATOM     26  O   UNL     1       4.404   2.543  18.344  0.00  0.00    +0.000 OA
ATOM     27  O   UNL     1       2.237   2.831  17.103  0.00  0.00    +0.000 OA
BRANCH  25  28
ATOM     28  N   UNL     1       4.213   4.178  16.388  0.00  0.00    +0.000 NA
ATOM     29  H   UNL     1       3.895   5.134  16.245  0.00  0.00    +0.000 HD
BRANCH  28  30
ATOM     30  C   UNL     1       5.659   3.996  16.230  0.00  0.00    +0.000 C 
BRANCH  30  31
ATOM     31  C   UNL     1       6.426   5.043  17.003  0.00  0.00    +0.000 A 
ATOM     32  C   UNL     1       7.216   4.681  18.103  0.00  0.00    +0.000 A 
ATOM     33  C   UNL     1       7.934   5.649  18.809  0.00  0.00    +0.000 A 
ATOM     34  C   UNL     1       7.870   6.986  18.423  0.00  0.00    +0.000 A 
ATOM     35  C   UNL     1       7.092   7.359  17.329  0.00  0.00    +0.000 A 
ATOM     36  C   UNL     1       6.375   6.393  16.620  0.00  0.00    +0.000 A 
ENDBRANCH  30  31
ENDBRANCH  28  30
ENDBRANCH  25  28
ENDBRANCH   6  25
TORSDOF 8
ENDMDL
MODEL 3
REMARK VINA RESULT:      -8.6      1.571      2.491
REMARK  Name = 
REMARK  8 active torsions:
REMARK  status: ('A' for Active; 'I' for Inactive)
REMARK    1  A    between atoms: C_2  and  C_17
REMARK    2  A    between atoms: N_3  and  C_4
REMARK    3  A    between atoms: N_7  and  C_8
REMARK    4  A    between atoms: C_8  and  C_9
REMARK    5  A    between atoms: C_22  and  S_23
REMARK    6  A    between atoms: S_23  and  N_26
REMARK    7  A    between atoms: N_26  and  C_27
REMARK    8  A    between atoms: C_27  and  C_28
REMARK                            x       y       z     vdW  Elec       q    Type
REMARK                         _______ _______ _______ _____ _____    ______ ____
ROOT
ATOM      1  C   UNL     1       2.447   7.269  18.843  0.00  0.00    +0.000 A 
ATOM      2  C   UNL     1       1.766   6.799  19.975  0.00  0.00    +0.000 A 
ATOM      3  C   UNL     1       2.044   5.543  20.519  0.00  0.00    +0.000 A 
ATOM      4  C   UNL     1       3.000   4.709  19.937  0.00  0.00    +0.000 A 
ATOM      5 CL   UNL     1       3.246   3.198  20.728  0.00  0.00    +0.000 Cl
ATOM      6  C   UNL     1       3.691   5.156  18.807  0.00  0.00    +0.000 A 
ATOM      7  C   UNL     1       3.420   6.444  18.266  0.00  0.00    +0.000 A 
ENDROOT
BRANCH   1   9
ATOM      8  O   UNL     1       2.352   8.958  17.217  0.00  0.00    +0.000 OA
ATOM      9  C   UNL     1       2.080   8.645  18.373  0.00  0.00    +0.000 C 
ATOM     10  N   UNL     1       1.409   9.507  19.221  0.00  0.00    +0.000 N 
ATOM     11  H   UNL     1       1.373   9.332  20.215  0.00  0.00    +0.000 HD
BRANCH  10  12
ATOM     12  C   UNL     1       0.872  10.786  18.716  0.00  0.00    +0.000 C 
ATOM     13  C   UNL     1       1.419  12.000  19.468  0.00  0.00    +0.000 C 
ATOM     14  C   UNL     1       0.914  12.063  20.915  0.00  0.00    +0.000 C 
ATOM     15  N   UNL     1      -0.538  11.878  21.086  0.00  0.00    +0.000 NA
ATOM     16  C   UNL     1      -1.086  10.781  20.272  0.00  0.00    +0.000 C 
ATOM     17  C   UNL     1      -0.656  10.863  18.813  0.00  0.00    +0.000 C 
BRANCH  15  18
ATOM     18  C   UNL     1      -0.873  11.614  22.505  0.00  0.00    +0.000 C 
BRANCH  18  19
ATOM     19  C   UNL     1      -1.830  12.609  23.120  0.00  0.00    +0.000 A 
ATOM     20  C   UNL     1      -3.138  12.230  23.450  0.00  0.00    +0.000 A 
ATOM     21  C   UNL     1      -4.021  13.154  24.008  0.00  0.00    +0.000 A 
ATOM     22  C   UNL     1      -3.605  14.463  24.247  0.00  0.00    +0.000 A 
ATOM     23  C   UNL     1      -2.303  14.848  23.936  0.00  0.00    +0.000 A 
ATOM     24  C   UNL     1      -1.418  13.926  23.375  0.00  0.00    +0.000 A 
ENDBRANCH  18  19
ENDBRANCH  15  18
ENDBRANCH  10  12
ENDBRANCH   1   9
BRANCH   6  25
ATOM     25  S   UNL     1       4.803   4.110  17.887  0.00  0.00    +0.000 S 
ATOM     26  O   UNL     1       6.054   3.966  18.597  0.00  0.00    +0.000 OA
ATOM     27  O   UNL     1       4.026   2.940  17.525  0.00  0.00    +0.000 OA
BRANCH  25  28
ATOM     28  N   UNL     1       5.061   4.941  16.452  0.00  0.00    +0.000 NA
ATOM     29  H   UNL     1       4.460   5.754  16.332  0.00  0.00    +0.000 HD
BRANCH  28  30
ATOM     30  C   UNL     1       6.445   5.148  16.015  0.00  0.00    +0.000 C 
BRANCH  30  31
ATOM     31  C   UNL     1       6.618   4.771  14.562  0.00  0.00    +0.000 A 
ATOM     32  C   UNL     1       7.622   5.365  13.785  0.00  0.00    +0.000 A 
ATOM     33  C   UNL     1       7.788   5.007  12.446  0.00  0.00    +0.000 A 
ATOM     34  C   UNL     1       6.954   4.050  11.870  0.00  0.00    +0.000 A 
ATOM     35  C   UNL     1       5.954   3.449  12.632  0.00  0.00    +0.000 A 
ATOM     36  C   UNL     1       5.787   3.805  13.972  0.00  0.00    +0.000 A 
ENDBRANCH  30  31
ENDBRANCH  28  30
ENDBRANCH  25  28
ENDBRANCH   6  25
TORSDOF 8
ENDMDL
MODEL 4
REMARK VINA RESULT:      -8.4      3.635      9.906
REMARK  Name = 
REMARK  8 active torsions:
REMARK  status: ('A' for Active; 'I' for Inactive)
REMARK    1  A    between atoms: C_2  and  C_17
REMARK    2  A    between atoms: N_3  and  C_4
REMARK    3  A    between atoms: N_7  and  C_8
REMARK    4  A    between atoms: C_8  and  C_9
REMARK    5  A    between atoms: C_22  and  S_23
REMARK    6  A    between atoms: S_23  and  N_26
REMARK    7  A    between atoms: N_26  and  C_27
REMARK    8  A    between atoms: C_27  and  C_28
REMARK                            x       y       z     vdW  Elec       q    Type
REMARK                         _______ _______ _______ _____ _____    ______ ____
ROOT
ATOM      1  C   UNL     1       1.578   8.196  19.698  0.00  0.00    +0.000 A 
ATOM      2  C   UNL     1       2.131   8.528  18.452  0.00  0.00    +0.000 A 
ATOM      3  C   UNL     1       2.150   9.848  17.997  0.00  0.00    +0.000 A 
ATOM      4  C   UNL     1       1.601  10.876  18.766  0.00  0.00    +0.000 A 
ATOM      5 CL   UNL     1       1.713  12.455  18.083  0.00  0.00    +0.000 Cl
ATOM      6  C   UNL     1       1.043  10.568  20.010  0.00  0.00    +0.000 A 
ATOM      7  C   UNL     1       1.042   9.225  20.480  0.00  0.00    +0.000 A 
ENDROOT
BRANCH   1   9
ATOM      8  O   UNL     1       1.346   6.439  21.237  0.00  0.00    +0.000 OA
ATOM      9  C   UNL     1       1.644   6.749  20.085  0.00  0.00    +0.000 C 
ATOM     10  N   UNL     1       1.989   5.797  19.143  0.00  0.00    +0.000 N 
ATOM     11  H   UNL     1       2.429   6.064  18.274  0.00  0.00    +0.000 HD
BRANCH  10  12
ATOM     12  C   UNL     1       1.872   4.358  19.455  0.00  0.00    +0.000 C 
ATOM     13  C   UNL     1       3.136   3.784  20.096  0.00  0.00    +0.000 C 
ATOM     14  C   UNL     1       4.316   3.740  19.117  0.00  0.00    +0.000 C 
ATOM     15  N   UNL     1       4.018   3.159  17.795  0.00  0.00    +0.000 NA
ATOM     16  C   UNL     1       2.743   3.625  17.227  0.00  0.00    +0.000 C 
ATOM     17  C   UNL     1       1.587   3.508  18.212  0.00  0.00    +0.000 C 
BRANCH  15  18
ATOM     18  C   UNL     1       5.096   3.471  16.828  0.00  0.00    +0.000 C 
BRANCH  18  19
ATOM     19  C   UNL     1       5.811   4.778  17.084  0.00  0.00    +0.000 A 
ATOM     20  C   UNL     1       5.253   5.991  16.658  0.00  0.00    +0.000 A 
ATOM     21  C   UNL     1       5.920   7.194  16.888  0.00  0.00    +0.000 A 
ATOM     22  C   UNL     1       7.148   7.198  17.550  0.00  0.00    +0.000 A 
ATOM     23  C   UNL     1       7.706   5.999  17.990  0.00  0.00    +0.000 A 
ATOM     24  C   UNL     1       7.041   4.794  17.759  0.00  0.00    +0.000 A 
ENDBRANCH  18  19
ENDBRANCH  15  18
ENDBRANCH  10  12
ENDBRANCH   1   9
BRANCH   6  25
ATOM     25  S   UNL     1       0.165  11.769  20.991  0.00  0.00    +0.000 S 
ATOM     26  O   UNL     1      -0.586  11.107  22.036  0.00  0.00    +0.000 OA
ATOM     27  O   UNL     1       1.142  12.788  21.323  0.00  0.00    +0.000 OA
BRANCH  25  28
ATOM     28  N   UNL     1      -0.893  12.493  19.909  0.00  0.00    +0.000 NA
ATOM     29  H   UNL     1      -0.498  12.644  18.984  0.00  0.00    +0.000 HD
BRANCH  28  30
ATOM     30  C   UNL     1      -2.288  12.040  19.900  0.00  0.00    +0.000 C 
BRANCH  30  31
ATOM     31  C   UNL     1      -2.647  11.412  18.573  0.00  0.00    +0.000 A 
ATOM     32  C   UNL     1      -1.779  10.498  17.959  0.00  0.00    +0.000 A 
ATOM     33  C   UNL     1      -2.117   9.910  16.739  0.00  0.00    +0.000 A 
ATOM     34  C   UNL     1      -3.325  10.228  16.121  0.00  0.00    +0.000 A 
ATOM     35  C   UNL     1      -4.198  11.132  16.722  0.00  0.00    +0.000 A 
ATOM     36  C   UNL     1      -3.863  11.720  17.944  0.00  0.00    +0.000 A 
ENDBRANCH  30  31
ENDBRANCH  28  30
ENDBRANCH  25  28
ENDBRANCH   6  25
TORSDOF 8
ENDMDL
MODEL 5
REMARK VINA RESULT:      -8.4      1.637      2.495
REMARK  Name = 
REMARK  8 active torsions:
REMARK  status: ('A' for Active; 'I' for Inactive)
REMARK    1  A    between atoms: C_2  and  C_17
REMARK    2  A    between atoms: N_3  and  C_4
REMARK    3  A    between atoms: N_7  and  C_8
REMARK    4  A    between atoms: C_8  and  C_9
REMARK    5  A    between atoms: C_22  and  S_23
REMARK    6  A    between atoms: S_23  and  N_26
REMARK    7  A    between atoms: N_26  and  C_27
REMARK    8  A    between atoms: C_27  and  C_28
REMARK                            x       y       z     vdW  Elec       q    Type
REMARK                         _______ _______ _______ _____ _____    ______ ____
ROOT
ATOM      1  C   UNL     1       2.436   7.170  18.836  0.00  0.00    +0.000 A 
ATOM      2  C   UNL     1       1.741   6.778  19.990  0.00  0.00    +0.000 A 
ATOM      3  C   UNL     1       1.962   5.532  20.581  0.00  0.00    +0.000 A 
ATOM      4  C   UNL     1       2.873   4.631  20.026  0.00  0.00    +0.000 A 
ATOM      5 CL   UNL     1       3.052   3.141  20.874  0.00  0.00    +0.000 Cl
ATOM      6  C   UNL     1       3.576   5.000  18.875  0.00  0.00    +0.000 A 
ATOM      7  C   UNL     1       3.363   6.277  18.287  0.00  0.00    +0.000 A 
ENDROOT
BRANCH   1   9
ATOM      8  O   UNL     1       2.508   8.833  17.182  0.00  0.00    +0.000 OA
ATOM      9  C   UNL     1       2.131   8.543  18.315  0.00  0.00    +0.000 C 
ATOM     10  N   UNL     1       1.403   9.428  19.088  0.00  0.00    +0.000 N 
ATOM     11  H   UNL     1       1.278   9.270  20.078  0.00  0.00    +0.000 HD
BRANCH  10  12
ATOM     12  C   UNL     1       0.931  10.706  18.519  0.00  0.00    +0.000 C 
ATOM     13  C   UNL     1       1.411  11.924  19.309  0.00  0.00    +0.000 C 
ATOM     14  C   UNL     1       0.764  12.006  20.698  0.00  0.00    +0.000 C 
ATOM     15  N   UNL     1      -0.700  11.836  20.723  0.00  0.00    +0.000 NA
ATOM     16  C   UNL     1      -1.174  10.734  19.870  0.00  0.00    +0.000 C 
ATOM     17  C   UNL     1      -0.598  10.796  18.461  0.00  0.00    +0.000 C 
BRANCH  15  18
ATOM     18  C   UNL     1      -1.178  11.590  22.104  0.00  0.00    +0.000 C 
BRANCH  18  19
ATOM     19  C   UNL     1      -2.452  12.318  22.466  0.00  0.00    +0.000 A 
ATOM     20  C   UNL     1      -3.018  13.248  21.583  0.00  0.00    +0.000 A 
ATOM     21  C   UNL     1      -4.188  13.925  21.925  0.00  0.00    +0.000 A 
ATOM     22  C   UNL     1      -4.807  13.676  23.149  0.00  0.00    +0.000 A 
ATOM     23  C   UNL     1      -4.262  12.745  24.030  0.00  0.00    +0.000 A 
ATOM     24  C   UNL     1      -3.090  12.068  23.690  0.00  0.00    +0.000 A 
ENDBRANCH  18  19
ENDBRANCH  15  18
ENDBRANCH  10  12
ENDBRANCH   1   9
BRANCH   6  25
ATOM     25  S   UNL     1       4.629   3.866  17.991  0.00  0.00    +0.000 S 
ATOM     26  O   UNL     1       5.951   3.852  18.578  0.00  0.00    +0.000 OA
ATOM     27  O   UNL     1       3.866   2.638  17.872  0.00  0.00    +0.000 OA
BRANCH  25  28
ATOM     28  N   UNL     1       4.708   4.500  16.439  0.00  0.00    +0.000 NA
ATOM     29  H   UNL     1       3.875   5.013  16.160  0.00  0.00    +0.000 HD
BRANCH  28  30
ATOM     30  C   UNL     1       5.966   5.120  16.011  0.00  0.00    +0.000 C 
BRANCH  30  31
ATOM     31  C   UNL     1       6.310   4.728  14.593  0.00  0.00    +0.000 A 
ATOM     32  C   UNL     1       5.508   3.817  13.891  0.00  0.00    +0.000 A 
ATOM     33  C   UNL     1       5.821   3.464  12.577  0.00  0.00    +0.000 A 
ATOM     34  C   UNL     1       6.936   4.019  11.950  0.00  0.00    +0.000 A 
ATOM     35  C   UNL     1       7.739   4.928  12.635  0.00  0.00    +0.000 A 
ATOM     36  C   UNL     1       7.427   5.283  13.950  0.00  0.00    +0.000 A 
ENDBRANCH  30  31
ENDBRANCH  28  30
ENDBRANCH  25  28
ENDBRANCH   6  25
TORSDOF 8
ENDMDL
MODEL 6
REMARK VINA RESULT:      -8.2      1.642      2.305
REMARK  Name = 
REMARK  8 active torsions:
REMARK  status: ('A' for Active; 'I' for Inactive)
REMARK    1  A    between atoms: C_2  and  C_17
REMARK    2  A    between atoms: N_3  and  C_4
REMARK    3  A    between atoms: N_7  and  C_8
REMARK    4  A    between atoms: C_8  and  C_9
REMARK    5  A    between atoms: C_22  and  S_23
REMARK    6  A    between atoms: S_23  and  N_26
REMARK    7  A    between atoms: N_26  and  C_27
REMARK    8  A    between atoms: C_27  and  C_28
REMARK                            x       y       z     vdW  Elec       q    Type
REMARK                         _______ _______ _______ _____ _____    ______ ____
ROOT
ATOM      1  C   UNL     1       2.434   7.147  19.006  0.00  0.00    +0.000 A 
ATOM      2  C   UNL     1       1.664   6.654  20.070  0.00  0.00    +0.000 A 
ATOM      3  C   UNL     1       1.929   5.407  20.640  0.00  0.00    +0.000 A 
ATOM      4  C   UNL     1       2.962   4.605  20.151  0.00  0.00    +0.000 A 
ATOM      5 CL   UNL     1       3.181   3.101  20.965  0.00  0.00    +0.000 Cl
ATOM      6  C   UNL     1       3.742   5.075  19.090  0.00  0.00    +0.000 A 
ATOM      7  C   UNL     1       3.482   6.354  18.525  0.00  0.00    +0.000 A 
ENDROOT
BRANCH   1   9
ATOM      8  O   UNL     1       2.260   8.764  17.314  0.00  0.00    +0.000 OA
ATOM      9  C   UNL     1       2.068   8.511  18.501  0.00  0.00    +0.000 C 
ATOM     10  N   UNL     1       1.488   9.430  19.355  0.00  0.00    +0.000 N 
ATOM     11  H   UNL     1       1.523   9.301  20.357  0.00  0.00    +0.000 HD
BRANCH  10  12
ATOM     12  C   UNL     1       0.948  10.701  18.832  0.00  0.00    +0.000 C 
ATOM     13  C   UNL     1       1.437  11.922  19.613  0.00  0.00    +0.000 C 
ATOM     14  C   UNL     1       0.868  11.967  21.037  0.00  0.00    +0.000 C 
ATOM     15  N   UNL     1      -0.587  11.753  21.142  0.00  0.00    +0.000 NA
ATOM     16  C   UNL     1      -1.076  10.649  20.301  0.00  0.00    +0.000 C 
ATOM     17  C   UNL     1      -0.583  10.747  18.863  0.00  0.00    +0.000 C 
BRANCH  15  18
ATOM     18  C   UNL     1      -0.978  11.475  22.544  0.00  0.00    +0.000 C 
BRANCH  18  19
ATOM     19  C   UNL     1      -1.844  12.540  23.177  0.00  0.00    +0.000 A 
ATOM     20  C   UNL     1      -1.327  13.816  23.441  0.00  0.00    +0.000 A 
ATOM     21  C   UNL     1      -2.126  14.793  24.034  0.00  0.00    +0.000 A 
ATOM     22  C   UNL     1      -3.451  14.507  24.363  0.00  0.00    +0.000 A 
ATOM     23  C   UNL     1      -3.980  13.248  24.093  0.00  0.00    +0.000 A 
ATOM     24  C   UNL     1      -3.181  12.268  23.502  0.00  0.00    +0.000 A 
ENDBRANCH  18  19
ENDBRANCH  15  18
ENDBRANCH  10  12
ENDBRANCH   1   9
BRANCH   6  25
ATOM     25  S   UNL     1       4.968   4.066  18.281  0.00  0.00    +0.000 S 
ATOM     26  O   UNL     1       6.225   4.142  18.992  0.00  0.00    +0.000 OA
ATOM     27  O   UNL     1       4.328   2.783  18.056  0.00  0.00    +0.000 OA
BRANCH  25  28
ATOM     28  N   UNL     1       5.137   4.759  16.763  0.00  0.00    +0.000 NA
ATOM     29  H   UNL     1       5.986   5.309  16.652  0.00  0.00    +0.000 HD
BRANCH  28  30
ATOM     30  C   UNL     1       4.791   3.947  15.591  0.00  0.00    +0.000 C 
BRANCH  30  31
ATOM     31  C   UNL     1       5.759   4.190  14.457  0.00  0.00    +0.000 A 
ATOM     32  C   UNL     1       6.864   5.037  14.631  0.00  0.00    +0.000 A 
ATOM     33  C   UNL     1       7.763   5.251  13.585  0.00  0.00    +0.000 A 
ATOM     34  C   UNL     1       7.570   4.622  12.356  0.00  0.00    +0.000 A 
ATOM     35  C   UNL     1       6.479   3.776  12.171  0.00  0.00    +0.000 A 
ATOM     36  C   UNL     1       5.578   3.559  13.217  0.00  0.00    +0.000 A 
ENDBRANCH  30  31
ENDBRANCH  28  30
ENDBRANCH  25  28
ENDBRANCH   6  25
TORSDOF 8
ENDMDL
MODEL 7
REMARK VINA RESULT:      -8.2      3.714     10.545
REMARK  Name = 
REMARK  8 active torsions:
REMARK  status: ('A' for Active; 'I' for Inactive)
REMARK    1  A    between atoms: C_2  and  C_17
REMARK    2  A    between atoms: N_3  and  C_4
REMARK    3  A    between atoms: N_7  and  C_8
REMARK    4  A    between atoms: C_8  and  C_9
REMARK    5  A    between atoms: C_22  and  S_23
REMARK    6  A    between atoms: S_23  and  N_26
REMARK    7  A    between atoms: N_26  and  C_27
REMARK    8  A    between atoms: C_27  and  C_28
REMARK                            x       y       z     vdW  Elec       q    Type
REMARK                         _______ _______ _______ _____ _____    ______ ____
ROOT
ATOM      1  C   UNL     1       1.687   7.156  20.508  0.00  0.00    +0.000 A 
ATOM      2  C   UNL     1       0.839   7.354  21.608  0.00  0.00    +0.000 A 
ATOM      3  C   UNL     1       0.129   8.546  21.771  0.00  0.00    +0.000 A 
ATOM      4  C   UNL     1       0.259   9.585  20.847  0.00  0.00    +0.000 A 
ATOM      5 CL   UNL     1      -0.691  10.987  21.170  0.00  0.00    +0.000 Cl
ATOM      6  C   UNL     1       1.099   9.410  19.744  0.00  0.00    +0.000 A 
ATOM      7  C   UNL     1       1.806   8.188  19.570  0.00  0.00    +0.000 A 
ENDROOT
BRANCH   1   9
ATOM      8  O   UNL     1       1.883   4.881  21.052  0.00  0.00    +0.000 OA
ATOM      9  C   UNL     1       2.371   5.823  20.432  0.00  0.00    +0.000 C 
ATOM     10  N   UNL     1       3.494   5.668  19.640  0.00  0.00    +0.000 N 
ATOM     11  H   UNL     1       4.007   6.472  19.306  0.00  0.00    +0.000 HD
BRANCH  10  12
ATOM     12  C   UNL     1       4.062   4.326  19.403  0.00  0.00    +0.000 C 
ATOM     13  C   UNL     1       5.584   4.342  19.255  0.00  0.00    +0.000 C 
ATOM     14  C   UNL     1       6.035   5.044  17.968  0.00  0.00    +0.000 C 
ATOM     15  N   UNL     1       5.336   4.624  16.740  0.00  0.00    +0.000 NA
ATOM     16  C   UNL     1       3.880   4.497  16.914  0.00  0.00    +0.000 C 
ATOM     17  C   UNL     1       3.506   3.668  18.135  0.00  0.00    +0.000 C 
BRANCH  15  18
ATOM     18  C   UNL     1       5.589   5.579  15.636  0.00  0.00    +0.000 C 
BRANCH  18  19
ATOM     19  C   UNL     1       6.088   4.944  14.359  0.00  0.00    +0.000 A 
ATOM     20  C   UNL     1       5.355   3.924  13.736  0.00  0.00    +0.000 A 
ATOM     21  C   UNL     1       5.823   3.333  12.563  0.00  0.00    +0.000 A 
ATOM     22  C   UNL     1       7.024   3.759  11.997  0.00  0.00    +0.000 A 
ATOM     23  C   UNL     1       7.754   4.781  12.598  0.00  0.00    +0.000 A 
ATOM     24  C   UNL     1       7.288   5.372  13.774  0.00  0.00    +0.000 A 
ENDBRANCH  18  19
ENDBRANCH  15  18
ENDBRANCH  10  12
ENDBRANCH   1   9
BRANCH   6  25
ATOM     25  S   UNL     1       1.469  10.728  18.602  0.00  0.00    +0.000 S 
ATOM     26  O   UNL     1       1.959  11.885  19.318  0.00  0.00    +0.000 OA
ATOM     27  O   UNL     1       2.267  10.121  17.554  0.00  0.00    +0.000 OA
BRANCH  25  28
ATOM     28  N   UNL     1      -0.009  11.088  17.893  0.00  0.00    +0.000 NA
ATOM     29  H   UNL     1       0.051  11.765  17.136  0.00  0.00    +0.000 HD
BRANCH  28  30
ATOM     30  C   UNL     1      -0.938   9.983  17.638  0.00  0.00    +0.000 C 
BRANCH  30  31
ATOM     31  C   UNL     1      -2.324  10.500  17.327  0.00  0.00    +0.000 A 
ATOM     32  C   UNL     1      -3.132  11.029  18.344  0.00  0.00    +0.000 A 
ATOM     33  C   UNL     1      -4.407  11.517  18.053  0.00  0.00    +0.000 A 
ATOM     34  C   UNL     1      -4.888  11.482  16.745  0.00  0.00    +0.000 A 
ATOM     35  C   UNL     1      -4.094  10.962  15.726  0.00  0.00    +0.000 A 
ATOM     36  C   UNL     1      -2.817  10.475  16.014  0.00  0.00    +0.000 A 
ENDBRANCH  30  31
ENDBRANCH  28  30
ENDBRANCH  25  28
ENDBRANCH   6  25
TORSDOF 8
ENDMDL
MODEL 8
REMARK VINA RESULT:      -8.1      3.179      4.852
REMARK  Name = 
REMARK  8 active torsions:
REMARK  status: ('A' for Active; 'I' for Inactive)
REMARK    1  A    between atoms: C_2  and  C_17
REMARK    2  A    between atoms: N_3  and  C_4
REMARK    3  A    between atoms: N_7  and  C_8
REMARK    4  A    between atoms: C_8  and  C_9
REMARK    5  A    between atoms: C_22  and  S_23
REMARK    6  A    between atoms: S_23  and  N_26
REMARK    7  A    between atoms: N_26  and  C_27
REMARK    8  A    between atoms: C_27  and  C_28
REMARK                            x       y       z     vdW  Elec       q    Type
REMARK                         _______ _______ _______ _____ _____    ______ ____
ROOT
ATOM      1  C   UNL     1       2.975   6.994  19.109  0.00  0.00    +0.000 A 
ATOM      2  C   UNL     1       2.844   7.594  17.849  0.00  0.00    +0.000 A 
ATOM      3  C   UNL     1       3.705   7.269  16.798  0.00  0.00    +0.000 A 
ATOM      4  C   UNL     1       4.735   6.343  16.980  0.00  0.00    +0.000 A 
ATOM      5 CL   UNL     1       5.705   6.030  15.590  0.00  0.00    +0.000 Cl
ATOM      6  C   UNL     1       4.884   5.733  18.229  0.00  0.00    +0.000 A 
ATOM      7  C   UNL     1       3.994   6.052  19.292  0.00  0.00    +0.000 A 
ENDROOT
BRANCH   1   9
ATOM      8  O   UNL     1       1.494   6.538  20.872  0.00  0.00    +0.000 OA
ATOM      9  C   UNL     1       1.972   7.406  20.145  0.00  0.00    +0.000 C 
ATOM     10  N   UNL     1       1.641   8.741  20.293  0.00  0.00    +0.000 N 
ATOM     11  H   UNL     1       1.867   9.413  19.573  0.00  0.00    +0.000 HD
BRANCH  10  12
ATOM     12  C   UNL     1       0.807   9.184  21.427  0.00  0.00    +0.000 C 
ATOM     13  C   UNL     1      -0.690   9.007  21.171  0.00  0.00    +0.000 C 
ATOM     14  C   UNL     1      -1.209   9.955  20.083  0.00  0.00    +0.000 C 
ATOM     15  N   UNL     1      -0.808  11.366  20.231  0.00  0.00    +0.000 NA
ATOM     16  C   UNL     1       0.609  11.533  20.592  0.00  0.00    +0.000 C 
ATOM     17  C   UNL     1       1.020  10.662  21.772  0.00  0.00    +0.000 C 
BRANCH  15  18
ATOM     18  C   UNL     1      -1.059  12.120  18.981  0.00  0.00    +0.000 C 
BRANCH  18  19
ATOM     19  C   UNL     1      -2.386  11.819  18.323  0.00  0.00    +0.000 A 
ATOM     20  C   UNL     1      -2.436  11.276  17.031  0.00  0.00    +0.000 A 
ATOM     21  C   UNL     1      -3.662  11.010  16.424  0.00  0.00    +0.000 A 
ATOM     22  C   UNL     1      -4.851  11.277  17.103  0.00  0.00    +0.000 A 
ATOM     23  C   UNL     1      -4.815  11.803  18.392  0.00  0.00    +0.000 A 
ATOM     24  C   UNL     1      -3.588  12.072  19.001  0.00  0.00    +0.000 A 
ENDBRANCH  18  19
ENDBRANCH  15  18
ENDBRANCH  10  12
ENDBRANCH   1   9
BRANCH   6  25
ATOM     25  S   UNL     1       6.263   4.673  18.619  0.00  0.00    +0.000 S 
ATOM     26  O   UNL     1       7.083   4.469  17.445  0.00  0.00    +0.000 OA
ATOM     27  O   UNL     1       6.841   5.217  19.832  0.00  0.00    +0.000 OA
BRANCH  25  28
ATOM     28  N   UNL     1       5.553   3.220  19.068  0.00  0.00    +0.000 NA
ATOM     29  H   UNL     1       5.548   3.057  20.073  0.00  0.00    +0.000 HD
BRANCH  28  30
ATOM     30  C   UNL     1       4.319   2.816  18.388  0.00  0.00    +0.000 C 
BRANCH  30  31
ATOM     31  C   UNL     1       3.138   2.865  19.329  0.00  0.00    +0.000 A 
ATOM     32  C   UNL     1       1.836   3.026  18.833  0.00  0.00    +0.000 A 
ATOM     33  C   UNL     1       0.746   3.059  19.703  0.00  0.00    +0.000 A 
ATOM     34  C   UNL     1       0.943   2.932  21.077  0.00  0.00    +0.000 A 
ATOM     35  C   UNL     1       2.231   2.768  21.583  0.00  0.00    +0.000 A 
ATOM     36  C   UNL     1       3.323   2.733  20.714  0.00  0.00    +0.000 A 
ENDBRANCH  30  31
ENDBRANCH  28  30
ENDBRANCH  25  28
ENDBRANCH   6  25
TORSDOF 8
ENDMDL
MODEL 9
REMARK VINA RESULT:      -8.1      3.177      4.902
REMARK  Name = 
REMARK  8 active torsions:
REMARK  status: ('A' for Active; 'I' for Inactive)
REMARK    1  A    between atoms: C_2  and  C_17
REMARK    2  A    between atoms: N_3  and  C_4
REMARK    3  A    between atoms: N_7  and  C_8
REMARK    4  A    between atoms: C_8  and  C_9
REMARK    5  A    between atoms: C_22  and  S_23
REMARK    6  A    between atoms: S_23  and  N_26
REMARK    7  A    between atoms: N_26  and  C_27
REMARK    8  A    between atoms: C_27  and  C_28
REMARK                            x       y       z     vdW  Elec       q    Type
REMARK                         _______ _______ _______ _____ _____    ______ ____
ROOT
ATOM      1  C   UNL     1       2.975   7.007  19.091  0.00  0.00    +0.000 A 
ATOM      2  C   UNL     1       2.824   7.580  17.819  0.00  0.00    +0.000 A 
ATOM      3  C   UNL     1       3.668   7.230  16.762  0.00  0.00    +0.000 A 
ATOM      4  C   UNL     1       4.701   6.309  16.948  0.00  0.00    +0.000 A 
ATOM      5 CL   UNL     1       5.648   5.965  15.550  0.00  0.00    +0.000 Cl
ATOM      6  C   UNL     1       4.870   5.727  18.208  0.00  0.00    +0.000 A 
ATOM      7  C   UNL     1       3.997   6.070  19.277  0.00  0.00    +0.000 A 
ENDROOT
BRANCH   1   9
ATOM      8  O   UNL     1       1.542   6.596  20.903  0.00  0.00    +0.000 OA
ATOM      9  C   UNL     1       1.989   7.443  20.133  0.00  0.00    +0.000 C 
ATOM     10  N   UNL     1       1.639   8.777  20.238  0.00  0.00    +0.000 N 
ATOM     11  H   UNL     1       1.838   9.425  19.488  0.00  0.00    +0.000 HD
BRANCH  10  12
ATOM     12  C   UNL     1       0.823   9.250  21.373  0.00  0.00    +0.000 C 
ATOM     13  C   UNL     1      -0.676   9.047  21.155  0.00  0.00    +0.000 C 
ATOM     14  C   UNL     1      -1.230   9.951  20.047  0.00  0.00    +0.000 C 
ATOM     15  N   UNL     1      -0.842  11.370  20.137  0.00  0.00    +0.000 NA
ATOM     16  C   UNL     1       0.580  11.566  20.462  0.00  0.00    +0.000 C 
ATOM     17  C   UNL     1       1.025  10.741  21.662  0.00  0.00    +0.000 C 
BRANCH  15  18
ATOM     18  C   UNL     1      -1.128  12.077  18.867  0.00  0.00    +0.000 C 
BRANCH  18  19
ATOM     19  C   UNL     1      -2.501  11.808  18.295  0.00  0.00    +0.000 A 
ATOM     20  C   UNL     1      -3.653  12.093  19.041  0.00  0.00    +0.000 A 
ATOM     21  C   UNL     1      -4.918  11.834  18.513  0.00  0.00    +0.000 A 
ATOM     22  C   UNL     1      -5.045  11.294  17.234  0.00  0.00    +0.000 A 
ATOM     23  C   UNL     1      -3.908  11.019  16.478  0.00  0.00    +0.000 A 
ATOM     24  C   UNL     1      -2.642  11.275  17.004  0.00  0.00    +0.000 A 
ENDBRANCH  18  19
ENDBRANCH  15  18
ENDBRANCH  10  12
ENDBRANCH   1   9
BRANCH   6  25
ATOM     25  S   UNL     1       6.255   4.675  18.599  0.00  0.00    +0.000 S 
ATOM     26  O   UNL     1       7.063   4.455  17.420  0.00  0.00    +0.000 OA
ATOM     27  O   UNL     1       6.845   5.240  19.798  0.00  0.00    +0.000 OA
BRANCH  25  28
ATOM     28  N   UNL     1       5.553   3.229  19.079  0.00  0.00    +0.000 NA
ATOM     29  H   UNL     1       5.534   3.094  20.088  0.00  0.00    +0.000 HD
BRANCH  28  30
ATOM     30  C   UNL     1       4.333   2.792  18.392  0.00  0.00    +0.000 C 
BRANCH  30  31
ATOM     31  C   UNL     1       3.138   2.852  19.315  0.00  0.00    +0.000 A 
ATOM     32  C   UNL     1       3.291   2.648  20.694  0.00  0.00    +0.000 A 
ATOM     33  C   UNL     1       2.188   2.716  21.547  0.00  0.00    +0.000 A 
ATOM     34  C   UNL     1       0.922   2.989  21.032  0.00  0.00    +0.000 A 
ATOM     35  C   UNL     1       0.757   3.198  19.664  0.00  0.00    +0.000 A 
ATOM     36  C   UNL     1       1.859   3.132  18.809  0.00  0.00    +0.000 A 
ENDBRANCH  30  31
ENDBRANCH  28  30
ENDBRANCH  25  28
ENDBRANCH   6  25
TORSDOF 8
ENDMDL
