MODEL 1
REMARK VINA RESULT:      -8.9      0.000      0.000
REMARK  Name = 
REMARK  5 active torsions:
REMARK  status: ('A' for Active; 'I' for Inactive)
REMARK    1  A    between atoms: C_2  and  C_3
REMARK    2  A    between atoms: C_3  and  C_4
REMARK    3  A    between atoms: C_4  and  C_5
REMARK    4  A    between atoms: C_5  and  C_6
REMARK    5  A    between atoms: C_9  and  C_10
REMARK                            x       y       z     vdW  Elec       q    Type
REMARK                         _______ _______ _______ _____ _____    ______ ____
ROOT
ATOM      1  C   UNL     1       4.486   6.598  16.850  0.00  0.00    +0.000 C 
ENDROOT
BRANCH   1   3
ATOM      2  O   UNL     1       4.281   4.236  16.987  0.00  0.00    +0.000 OA
ATOM      3  C   UNL     1       3.818   5.323  17.329  0.00  0.00    +0.000 C 
ATOM      4  N   UNL     1       2.769   5.536  18.249  0.00  0.00    +0.000 N 
ATOM      5  C   UNL     1       2.277   6.875  18.602  0.00  0.00    +0.000 C 
ATOM      6  C   UNL     1       2.209   7.139  20.090  0.00  0.00    +0.000 C 
ATOM      7  C   UNL     1       1.468   6.052  20.834  0.00  0.00    +0.000 C 
ATOM      8  C   UNL     1       1.667   4.672  20.270  0.00  0.00    +0.000 A 
ATOM      9  C   UNL     1       1.266   3.590  21.079  0.00  0.00    +0.000 A 
ATOM     10  C   UNL     1       1.315   2.283  20.605  0.00  0.00    +0.000 A 
ATOM     11  C   UNL     1       1.707   2.054  19.294  0.00  0.00    +0.000 A 
ATOM     12  C   UNL     1       2.121   3.117  18.490  0.00  0.00    +0.000 A 
ATOM     13  F   UNL     1       2.336   2.840  17.197  0.00  0.00    +0.000 F 
ATOM     14  C   UNL     1       2.179   4.436  18.981  0.00  0.00    +0.000 A 
ENDBRANCH   1   3
BRANCH   1  15
ATOM     15  C   UNL     1       5.309   6.486  15.575  0.00  0.00    +0.000 C 
BRANCH  15  16
ATOM     16  C   UNL     1       6.658   5.875  15.952  0.00  0.00    +0.000 C 
BRANCH  16  17
ATOM     17  C   UNL     1       7.286   6.559  17.090  0.00  0.00    +0.000 A 
ATOM     18  N   UNL     1       7.717   6.066  18.230  0.00  0.00    +0.000 NA
ATOM     19  N   UNL     1       8.268   7.124  18.916  0.00  0.00    +0.000 NA
ATOM     20  C   UNL     1       8.133   8.183  18.144  0.00  0.00    +0.000 A 
ATOM     21  O   UNL     1       7.519   7.895  16.955  0.00  0.00    +0.000 OA
BRANCH  20  22
ATOM     22  C   UNL     1       8.550   9.560  18.353  0.00  0.00    +0.000 A 
ATOM     23  C   UNL     1       9.397   9.868  19.426  0.00  0.00    +0.000 A 
ATOM     24  C   UNL     1       9.838  11.175  19.629  0.00  0.00    +0.000 A 
ATOM     25  C   UNL     1       9.436  12.188  18.762  0.00  0.00    +0.000 A 
ATOM     26  C   UNL     1       8.584  11.900  17.698  0.00  0.00    +0.000 A 
ATOM     27  C   UNL     1       8.146  10.590  17.494  0.00  0.00    +0.000 A 
ENDBRANCH  20  22
ENDBRANCH  16  17
ENDBRANCH  15  16
ENDBRANCH   1  15
TORSDOF 5
ENDMDL
MODEL 2
REMARK VINA RESULT:      -8.9      1.488      2.307
REMARK  Name = 
REMARK  5 active torsions:
REMARK  status: ('A' for Active; 'I' for Inactive)
REMARK    1  A    between atoms: C_2  and  C_3
REMARK    2  A    between atoms: C_3  and  C_4
REMARK    3  A    between atoms: C_4  and  C_5
REMARK    4  A    between atoms: C_5  and  C_6
REMARK    5  A    between atoms: C_9  and  C_10
REMARK                            x       y       z     vdW  Elec       q    Type
REMARK                         _______ _______ _______ _____ _____    ______ ____
ROOT
ATOM      1  C   UNL     1       6.542   4.559  17.097  0.00  0.00    +0.000 C 
ENDROOT
BRANCH   1   3
ATOM      2  O   UNL     1       5.556   3.119  18.708  0.00  0.00    +0.000 OA
ATOM      3  C   UNL     1       5.396   4.093  17.974  0.00  0.00    +0.000 C 
ATOM      4  N   UNL     1       4.265   4.937  17.937  0.00  0.00    +0.000 N 
ATOM      5  C   UNL     1       4.156   6.084  17.025  0.00  0.00    +0.000 C 
ATOM      6  C   UNL     1       3.779   7.383  17.705  0.00  0.00    +0.000 C 
ATOM      7  C   UNL     1       2.556   7.241  18.580  0.00  0.00    +0.000 C 
ATOM      8  C   UNL     1       2.442   5.910  19.271  0.00  0.00    +0.000 A 
ATOM      9  C   UNL     1       1.512   5.817  20.325  0.00  0.00    +0.000 A 
ATOM     10  C   UNL     1       1.262   4.603  20.957  0.00  0.00    +0.000 A 
ATOM     11  C   UNL     1       1.896   3.458  20.496  0.00  0.00    +0.000 A 
ATOM     12  C   UNL     1       2.831   3.542  19.463  0.00  0.00    +0.000 A 
ATOM     13  F   UNL     1       3.284   2.382  18.971  0.00  0.00    +0.000 F 
ATOM     14  C   UNL     1       3.177   4.775  18.878  0.00  0.00    +0.000 A 
ENDBRANCH   1   3
BRANCH   1  15
ATOM     15  C   UNL     1       7.886   4.736  17.788  0.00  0.00    +0.000 C 
BRANCH  15  16
ATOM     16  C   UNL     1       7.718   5.830  18.842  0.00  0.00    +0.000 C 
BRANCH  16  17
ATOM     17  C   UNL     1       7.869   7.179  18.282  0.00  0.00    +0.000 A 
ATOM     18  N   UNL     1       7.362   7.692  17.183  0.00  0.00    +0.000 NA
ATOM     19  N   UNL     1       7.769   9.007  17.155  0.00  0.00    +0.000 NA
ATOM     20  C   UNL     1       8.495   9.198  18.238  0.00  0.00    +0.000 A 
ATOM     21  O   UNL     1       8.596   8.073  19.011  0.00  0.00    +0.000 OA
BRANCH  20  22
ATOM     22  C   UNL     1       9.158  10.395  18.729  0.00  0.00    +0.000 A 
ATOM     23  C   UNL     1       9.316  11.494  17.873  0.00  0.00    +0.000 A 
ATOM     24  C   UNL     1       9.919  12.666  18.328  0.00  0.00    +0.000 A 
ATOM     25  C   UNL     1      10.371  12.750  19.643  0.00  0.00    +0.000 A 
ATOM     26  C   UNL     1      10.233  11.663  20.502  0.00  0.00    +0.000 A 
ATOM     27  C   UNL     1       9.625  10.490  20.045  0.00  0.00    +0.000 A 
ENDBRANCH  20  22
ENDBRANCH  16  17
ENDBRANCH  15  16
ENDBRANCH   1  15
TORSDOF 5
ENDMDL
MODEL 3
REMARK VINA RESULT:      -8.8      3.193      5.920
REMARK  Name = 
REMARK  5 active torsions:
REMARK  status: ('A' for Active; 'I' for Inactive)
REMARK    1  A    between atoms: C_2  and  C_3
REMARK    2  A    between atoms: C_3  and  C_4
REMARK    3  A    between atoms: C_4  and  C_5
REMARK    4  A    between atoms: C_5  and  C_6
REMARK    5  A    between atoms: C_9  and  C_10
REMARK                            x       y       z     vdW  Elec       q    Type
REMARK                         _______ _______ _______ _____ _____    ______ ____
ROOT
ATOM      1  C   UNL     1       4.924   5.921  16.636  0.00  0.00    +0.000 C 
ENDROOT
BRANCH   1   3
ATOM      2  O   UNL     1       4.409   3.627  16.972  0.00  0.00    +0.000 OA
ATOM      3  C   UNL     1       4.076   4.791  17.188  0.00  0.00    +0.000 C 
ATOM      4  N   UNL     1       3.021   5.220  18.023  0.00  0.00    +0.000 N 
ATOM      5  C   UNL     1       2.691   6.637  18.226  0.00  0.00    +0.000 C 
ATOM      6  C   UNL     1       2.589   7.049  19.678  0.00  0.00    +0.000 C 
ATOM      7  C   UNL     1       1.681   6.140  20.472  0.00  0.00    +0.000 C 
ATOM      8  C   UNL     1       1.726   4.698  20.046  0.00  0.00    +0.000 A 
ATOM      9  C   UNL     1       1.152   3.756  20.925  0.00  0.00    +0.000 A 
ATOM     10  C   UNL     1       1.054   2.414  20.573  0.00  0.00    +0.000 A 
ATOM     11  C   UNL     1       1.472   2.013  19.312  0.00  0.00    +0.000 A 
ATOM     12  C   UNL     1       2.056   2.935  18.442  0.00  0.00    +0.000 A 
ATOM     13  F   UNL     1       2.293   2.510  17.193  0.00  0.00    +0.000 F 
ATOM     14  C   UNL     1       2.261   4.277  18.815  0.00  0.00    +0.000 A 
ENDBRANCH   1   3
BRANCH   1  15
ATOM     15  C   UNL     1       6.282   6.123  17.293  0.00  0.00    +0.000 C 
BRANCH  15  16
ATOM     16  C   UNL     1       7.221   5.051  16.743  0.00  0.00    +0.000 C 
BRANCH  16  17
ATOM     17  C   UNL     1       7.215   4.996  15.276  0.00  0.00    +0.000 A 
ATOM     18  N   UNL     1       7.938   5.670  14.410  0.00  0.00    +0.000 NA
ATOM     19  N   UNL     1       7.577   5.199  13.167  0.00  0.00    +0.000 NA
ATOM     20  C   UNL     1       6.661   4.274  13.369  0.00  0.00    +0.000 A 
ATOM     21  O   UNL     1       6.384   4.085  14.695  0.00  0.00    +0.000 OA
BRANCH  20  22
ATOM     22  C   UNL     1       5.946   3.435  12.420  0.00  0.00    +0.000 A 
ATOM     23  C   UNL     1       6.548   2.260  11.950  0.00  0.00    +0.000 A 
ATOM     24  C   UNL     1       5.872   1.422  11.066  0.00  0.00    +0.000 A 
ATOM     25  C   UNL     1       4.586   1.749  10.642  0.00  0.00    +0.000 A 
ATOM     26  C   UNL     1       3.979   2.919  11.090  0.00  0.00    +0.000 A 
ATOM     27  C   UNL     1       4.657   3.757  11.979  0.00  0.00    +0.000 A 
ENDBRANCH  20  22
ENDBRANCH  16  17
ENDBRANCH  15  16
ENDBRANCH   1  15
TORSDOF 5
ENDMDL
MODEL 4
REMARK VINA RESULT:      -8.6      3.377      5.899
REMARK  Name = 
REMARK  5 active torsions:
REMARK  status: ('A' for Active; 'I' for Inactive)
REMARK    1  A    between atoms: C_2  and  C_3
REMARK    2  A    between atoms: C_3  and  C_4
REMARK    3  A    between atoms: C_4  and  C_5
REMARK    4  A    between atoms: C_5  and  C_6
REMARK    5  A    between atoms: C_9  and  C_10
REMARK                            x       y       z     vdW  Elec       q    Type
REMARK                         _______ _______ _______ _____ _____    ______ ____
ROOT
ATOM      1  C   UNL     1       6.429   5.709  19.091  0.00  0.00    +0.000 C 
ENDROOT
BRANCH   1   3
ATOM      2  O   UNL     1       5.687   3.546  19.730  0.00  0.00    +0.000 OA
ATOM      3  C   UNL     1       5.441   4.558  19.077  0.00  0.00    +0.000 C 
ATOM      4  N   UNL     1       4.245   4.838  18.381  0.00  0.00    +0.000 N 
ATOM      5  C   UNL     1       4.035   6.078  17.623  0.00  0.00    +0.000 C 
ATOM      6  C   UNL     1       2.753   6.806  17.966  0.00  0.00    +0.000 C 
ATOM      7  C   UNL     1       1.545   5.901  17.913  0.00  0.00    +0.000 C 
ATOM      8  C   UNL     1       1.811   4.489  18.356  0.00  0.00    +0.000 A 
ATOM      9  C   UNL     1       0.686   3.683  18.624  0.00  0.00    +0.000 A 
ATOM     10  C   UNL     1       0.828   2.336  18.940  0.00  0.00    +0.000 A 
ATOM     11  C   UNL     1       2.094   1.768  18.930  0.00  0.00    +0.000 A 
ATOM     12  C   UNL     1       3.215   2.562  18.682  0.00  0.00    +0.000 A 
ATOM     13  F   UNL     1       4.382   1.919  18.537  0.00  0.00    +0.000 F 
ATOM     14  C   UNL     1       3.106   3.948  18.462  0.00  0.00    +0.000 A 
ENDBRANCH   1   3
BRANCH   1  15
ATOM     15  C   UNL     1       7.714   5.500  18.304  0.00  0.00    +0.000 C 
BRANCH  15  16
ATOM     16  C   UNL     1       7.510   4.277  17.411  0.00  0.00    +0.000 C 
BRANCH  16  17
ATOM     17  C   UNL     1       7.251   4.638  16.012  0.00  0.00    +0.000 A 
ATOM     18  N   UNL     1       7.603   5.715  15.345  0.00  0.00    +0.000 NA
ATOM     19  N   UNL     1       7.156   5.526  14.057  0.00  0.00    +0.000 NA
ATOM     20  C   UNL     1       6.565   4.348  14.034  0.00  0.00    +0.000 A 
ATOM     21  O   UNL     1       6.595   3.719  15.249  0.00  0.00    +0.000 OA
BRANCH  20  22
ATOM     22  C   UNL     1       5.933   3.633  12.936  0.00  0.00    +0.000 A 
ATOM     23  C   UNL     1       6.592   2.541  12.356  0.00  0.00    +0.000 A 
ATOM     24  C   UNL     1       5.994   1.819  11.324  0.00  0.00    +0.000 A 
ATOM     25  C   UNL     1       4.731   2.182  10.862  0.00  0.00    +0.000 A 
ATOM     26  C   UNL     1       4.069   3.272  11.421  0.00  0.00    +0.000 A 
ATOM     27  C   UNL     1       4.668   3.993  12.456  0.00  0.00    +0.000 A 
ENDBRANCH  20  22
ENDBRANCH  16  17
ENDBRANCH  15  16
ENDBRANCH   1  15
TORSDOF 5
ENDMDL
MODEL 5
REMARK VINA RESULT:      -8.4      3.693      9.352
REMARK  Name = 
REMARK  5 active torsions:
REMARK  status: ('A' for Active; 'I' for Inactive)
REMARK    1  A    between atoms: C_2  and  C_3
REMARK    2  A    between atoms: C_3  and  C_4
REMARK    3  A    between atoms: C_4  and  C_5
REMARK    4  A    between atoms: C_5  and  C_6
REMARK    5  A    between atoms: C_9  and  C_10
REMARK                            x       y       z     vdW  Elec       q    Type
REMARK                         _______ _______ _______ _____ _____    ______ ____
ROOT
ATOM      1  C   UNL     1       9.229  10.226  18.306  0.00  0.00    +0.000 C 
ENDROOT
BRANCH   1   3
ATOM      2  O   UNL     1       8.781  12.355  17.354  0.00  0.00    +0.000 OA
ATOM      3  C   UNL     1       9.086  11.734  18.371  0.00  0.00    +0.000 C 
ATOM      4  N   UNL     1       9.209  12.267  19.673  0.00  0.00    +0.000 N 
ATOM      5  C   UNL     1       9.579  11.450  20.836  0.00  0.00    +0.000 C 
ATOM      6  C   UNL     1       8.642  11.591  22.016  0.00  0.00    +0.000 C 
ATOM      7  C   UNL     1       8.404  13.034  22.394  0.00  0.00    +0.000 C 
ATOM      8  C   UNL     1       8.373  13.981  21.225  0.00  0.00    +0.000 A 
ATOM      9  C   UNL     1       7.857  15.270  21.464  0.00  0.00    +0.000 A 
ATOM     10  C   UNL     1       7.881  16.247  20.474  0.00  0.00    +0.000 A 
ATOM     11  C   UNL     1       8.480  15.960  19.256  0.00  0.00    +0.000 A 
ATOM     12  C   UNL     1       8.979  14.681  19.004  0.00  0.00    +0.000 A 
ATOM     13  F   UNL     1       9.676  14.524  17.871  0.00  0.00    +0.000 F 
ATOM     14  C   UNL     1       8.872  13.646  19.953  0.00  0.00    +0.000 A 
ENDBRANCH   1   3
BRANCH   1  15
ATOM     15  C   UNL     1       7.992   9.453  17.874  0.00  0.00    +0.000 C 
BRANCH  15  16
ATOM     16  C   UNL     1       8.217   7.987  18.241  0.00  0.00    +0.000 C 
BRANCH  16  17
ATOM     17  C   UNL     1       7.383   7.074  17.449  0.00  0.00    +0.000 A 
ATOM     18  N   UNL     1       7.632   6.501  16.292  0.00  0.00    +0.000 NA
ATOM     19  N   UNL     1       6.544   5.702  16.023  0.00  0.00    +0.000 NA
ATOM     20  C   UNL     1       5.712   5.847  17.034  0.00  0.00    +0.000 A 
ATOM     21  O   UNL     1       6.186   6.705  17.989  0.00  0.00    +0.000 OA
BRANCH  20  22
ATOM     22  C   UNL     1       4.421   5.229  17.287  0.00  0.00    +0.000 A 
ATOM     23  C   UNL     1       3.411   5.974  17.910  0.00  0.00    +0.000 A 
ATOM     24  C   UNL     1       2.154   5.415  18.135  0.00  0.00    +0.000 A 
ATOM     25  C   UNL     1       1.894   4.105  17.740  0.00  0.00    +0.000 A 
ATOM     26  C   UNL     1       2.891   3.347  17.131  0.00  0.00    +0.000 A 
ATOM     27  C   UNL     1       4.149   3.910  16.904  0.00  0.00    +0.000 A 
ENDBRANCH  20  22
ENDBRANCH  16  17
ENDBRANCH  15  16
ENDBRANCH   1  15
TORSDOF 5
ENDMDL
MODEL 6
REMARK VINA RESULT:      -8.3      3.430      9.743
REMARK  Name = 
REMARK  5 active torsions:
REMARK  status: ('A' for Active; 'I' for Inactive)
REMARK    1  A    between atoms: C_2  and  C_3
REMARK    2  A    between atoms: C_3  and  C_4
REMARK    3  A    between atoms: C_4  and  C_5
REMARK    4  A    between atoms: C_5  and  C_6
REMARK    5  A    between atoms: C_9  and  C_10
REMARK                            x       y       z     vdW  Elec       q    Type
REMARK                         _______ _______ _______ _____ _____    ______ ____
ROOT
ATOM      1  C   UNL     1       9.077  10.043  18.376  0.00  0.00    +0.000 C 
ENDROOT
BRANCH   1   3
ATOM      2  O   UNL     1       9.189  10.687  20.659  0.00  0.00    +0.000 OA
ATOM      3  C   UNL     1       9.165  11.068  19.490  0.00  0.00    +0.000 C 
ATOM      4  N   UNL     1       9.337  12.394  19.037  0.00  0.00    +0.000 N 
ATOM      5  C   UNL     1       9.294  12.763  17.616  0.00  0.00    +0.000 C 
ATOM      6  C   UNL     1      10.480  13.579  17.150  0.00  0.00    +0.000 C 
ATOM      7  C   UNL     1      10.739  14.776  18.034  0.00  0.00    +0.000 C 
ATOM      8  C   UNL     1      10.446  14.542  19.491  0.00  0.00    +0.000 A 
ATOM      9  C   UNL     1      10.947  15.493  20.402  0.00  0.00    +0.000 A 
ATOM     10  C   UNL     1      10.643  15.418  21.757  0.00  0.00    +0.000 A 
ATOM     11  C   UNL     1       9.782  14.425  22.203  0.00  0.00    +0.000 A 
ATOM     12  C   UNL     1       9.293  13.469  21.311  0.00  0.00    +0.000 A 
ATOM     13  F   UNL     1       8.351  12.640  21.781  0.00  0.00    +0.000 F 
ATOM     14  C   UNL     1       9.670  13.463  19.955  0.00  0.00    +0.000 A 
ENDBRANCH   1   3
BRANCH   1  15
ATOM     15  C   UNL     1       8.542   8.673  18.766  0.00  0.00    +0.000 C 
BRANCH  15  16
ATOM     16  C   UNL     1       7.877   8.071  17.529  0.00  0.00    +0.000 C 
BRANCH  16  17
ATOM     17  C   UNL     1       7.246   6.775  17.803  0.00  0.00    +0.000 A 
ATOM     18  N   UNL     1       7.775   5.668  18.274  0.00  0.00    +0.000 NA
ATOM     19  N   UNL     1       6.737   4.771  18.391  0.00  0.00    +0.000 NA
ATOM     20  C   UNL     1       5.653   5.397  17.982  0.00  0.00    +0.000 A 
ATOM     21  O   UNL     1       5.901   6.687  17.598  0.00  0.00    +0.000 OA
BRANCH  20  22
ATOM     22  C   UNL     1       4.274   4.942  17.909  0.00  0.00    +0.000 A 
ATOM     23  C   UNL     1       3.981   3.734  17.262  0.00  0.00    +0.000 A 
ATOM     24  C   UNL     1       2.671   3.259  17.206  0.00  0.00    +0.000 A 
ATOM     25  C   UNL     1       1.641   3.988  17.795  0.00  0.00    +0.000 A 
ATOM     26  C   UNL     1       1.914   5.196  18.431  0.00  0.00    +0.000 A 
ATOM     27  C   UNL     1       3.227   5.669  18.489  0.00  0.00    +0.000 A 
ENDBRANCH  20  22
ENDBRANCH  16  17
ENDBRANCH  15  16
ENDBRANCH   1  15
TORSDOF 5
ENDMDL
MODEL 7
REMARK VINA RESULT:      -8.3      3.554      9.595
REMARK  Name = 
REMARK  5 active torsions:
REMARK  status: ('A' for Active; 'I' for Inactive)
REMARK    1  A    between atoms: C_2  and  C_3
REMARK    2  A    between atoms: C_3  and  C_4
REMARK    3  A    between atoms: C_4  and  C_5
REMARK    4  A    between atoms: C_5  and  C_6
REMARK    5  A    between atoms: C_9  and  C_10
REMARK                            x       y       z     vdW  Elec       q    Type
REMARK                         _______ _______ _______ _____ _____    ______ ____
ROOT
ATOM      1  C   UNL     1       8.996   9.483  18.999  0.00  0.00    +0.000 C 
ENDROOT
BRANCH   1   3
ATOM      2  O   UNL     1      10.212  11.097  17.752  0.00  0.00    +0.000 OA
ATOM      3  C   UNL     1       9.806  10.758  18.862  0.00  0.00    +0.000 C 
ATOM      4  N   UNL     1       9.905  11.505  20.056  0.00  0.00    +0.000 N 
ATOM      5  C   UNL     1       9.390  11.023  21.344  0.00  0.00    +0.000 C 
ATOM      6  C   UNL     1       8.487  12.005  22.058  0.00  0.00    +0.000 C 
ATOM      7  C   UNL     1       9.109  13.376  22.179  0.00  0.00    +0.000 C 
ATOM      8  C   UNL     1       9.959  13.774  21.003  0.00  0.00    +0.000 A 
ATOM      9  C   UNL     1      10.312  15.135  20.904  0.00  0.00    +0.000 A 
ATOM     10  C   UNL     1      11.178  15.581  19.911  0.00  0.00    +0.000 A 
ATOM     11  C   UNL     1      11.747  14.658  19.046  0.00  0.00    +0.000 A 
ATOM     12  C   UNL     1      11.391  13.310  19.126  0.00  0.00    +0.000 A 
ATOM     13  F   UNL     1      12.094  12.461  18.365  0.00  0.00    +0.000 F 
ATOM     14  C   UNL     1      10.438  12.851  20.055  0.00  0.00    +0.000 A 
ENDBRANCH   1   3
BRANCH   1  15
ATOM     15  C   UNL     1       7.926   9.252  17.943  0.00  0.00    +0.000 C 
BRANCH  15  16
ATOM     16  C   UNL     1       8.141   7.850  17.372  0.00  0.00    +0.000 C 
BRANCH  16  17
ATOM     17  C   UNL     1       7.472   6.811  18.165  0.00  0.00    +0.000 A 
ATOM     18  N   UNL     1       7.922   6.113  19.183  0.00  0.00    +0.000 NA
ATOM     19  N   UNL     1       6.875   5.317  19.591  0.00  0.00    +0.000 NA
ATOM     20  C   UNL     1       5.864   5.589  18.790  0.00  0.00    +0.000 A 
ATOM     21  O   UNL     1       6.171   6.542  17.857  0.00  0.00    +0.000 OA
BRANCH  20  22
ATOM     22  C   UNL     1       4.510   5.062  18.772  0.00  0.00    +0.000 A 
ATOM     23  C   UNL     1       3.503   5.771  18.103  0.00  0.00    +0.000 A 
ATOM     24  C   UNL     1       2.203   5.271  18.044  0.00  0.00    +0.000 A 
ATOM     25  C   UNL     1       1.896   4.057  18.654  0.00  0.00    +0.000 A 
ATOM     26  C   UNL     1       2.882   3.347  19.334  0.00  0.00    +0.000 A 
ATOM     27  C   UNL     1       4.185   3.847  19.390  0.00  0.00    +0.000 A 
ENDBRANCH  20  22
ENDBRANCH  16  17
ENDBRANCH  15  16
ENDBRANCH   1  15
TORSDOF 5
ENDMDL
MODEL 8
REMARK VINA RESULT:      -8.3      3.177      4.518
REMARK  Name = 
REMARK  5 active torsions:
REMARK  status: ('A' for Active; 'I' for Inactive)
REMARK    1  A    between atoms: C_2  and  C_3
REMARK    2  A    between atoms: C_3  and  C_4
REMARK    3  A    between atoms: C_4  and  C_5
REMARK    4  A    between atoms: C_5  and  C_6
REMARK    5  A    between atoms: C_9  and  C_10
REMARK                            x       y       z     vdW  Elec       q    Type
REMARK                         _______ _______ _______ _____ _____    ______ ____
ROOT
ATOM      1  C   UNL     1       6.048   4.178  17.345  0.00  0.00    +0.000 C 
ENDROOT
BRANCH   1   3
ATOM      2  O   UNL     1       5.886   3.698  19.665  0.00  0.00    +0.000 OA
ATOM      3  C   UNL     1       5.310   3.694  18.579  0.00  0.00    +0.000 C 
ATOM      4  N   UNL     1       3.950   3.391  18.352  0.00  0.00    +0.000 N 
ATOM      5  C   UNL     1       3.341   3.411  17.015  0.00  0.00    +0.000 C 
ATOM      6  C   UNL     1       2.074   4.233  16.922  0.00  0.00    +0.000 C 
ATOM      7  C   UNL     1       1.072   3.868  17.992  0.00  0.00    +0.000 C 
ATOM      8  C   UNL     1       1.687   3.486  19.310  0.00  0.00    +0.000 A 
ATOM      9  C   UNL     1       0.826   3.435  20.425  0.00  0.00    +0.000 A 
ATOM     10  C   UNL     1       1.280   2.994  21.663  0.00  0.00    +0.000 A 
ATOM     11  C   UNL     1       2.586   2.540  21.781  0.00  0.00    +0.000 A 
ATOM     12  C   UNL     1       3.451   2.601  20.688  0.00  0.00    +0.000 A 
ATOM     13  F   UNL     1       4.642   2.006  20.834  0.00  0.00    +0.000 F 
ATOM     14  C   UNL     1       3.044   3.141  19.453  0.00  0.00    +0.000 A 
ENDBRANCH   1   3
BRANCH   1  15
ATOM     15  C   UNL     1       7.410   4.814  17.585  0.00  0.00    +0.000 C 
BRANCH  15  16
ATOM     16  C   UNL     1       7.360   6.230  17.011  0.00  0.00    +0.000 C 
BRANCH  16  17
ATOM     17  C   UNL     1       5.988   6.693  16.773  0.00  0.00    +0.000 A 
ATOM     18  N   UNL     1       5.320   6.792  15.645  0.00  0.00    +0.000 NA
ATOM     19  N   UNL     1       4.060   7.228  15.987  0.00  0.00    +0.000 NA
ATOM     20  C   UNL     1       4.053   7.362  17.298  0.00  0.00    +0.000 A 
ATOM     21  O   UNL     1       5.251   7.030  17.869  0.00  0.00    +0.000 OA
BRANCH  20  22
ATOM     22  C   UNL     1       2.985   7.771  18.196  0.00  0.00    +0.000 A 
ATOM     23  C   UNL     1       2.743   7.030  19.361  0.00  0.00    +0.000 A 
ATOM     24  C   UNL     1       1.747   7.420  20.255  0.00  0.00    +0.000 A 
ATOM     25  C   UNL     1       0.982   8.554  19.993  0.00  0.00    +0.000 A 
ATOM     26  C   UNL     1       1.201   9.294  18.834  0.00  0.00    +0.000 A 
ATOM     27  C   UNL     1       2.202   8.903  17.940  0.00  0.00    +0.000 A 
ENDBRANCH  20  22
ENDBRANCH  16  17
ENDBRANCH  15  16
ENDBRANCH   1  15
TORSDOF 5
ENDMDL
MODEL 9
REMARK VINA RESULT:      -8.3      3.440      9.752
REMARK  Name = 
REMARK  5 active torsions:
REMARK  status: ('A' for Active; 'I' for Inactive)
REMARK    1  A    between atoms: C_2  and  C_3
REMARK    2  A    between atoms: C_3  and  C_4
REMARK    3  A    between atoms: C_4  and  C_5
REMARK    4  A    between atoms: C_5  and  C_6
REMARK    5  A    between atoms: C_9  and  C_10
REMARK                            x       y       z     vdW  Elec       q    Type
REMARK                         _______ _______ _______ _____ _____    ______ ____
ROOT
ATOM      1  C   UNL     1       8.392   9.555  18.862  0.00  0.00    +0.000 C 
ENDROOT
BRANCH   1   3
ATOM      2  O   UNL     1       9.909  10.739  17.470  0.00  0.00    +0.000 OA
ATOM      3  C   UNL     1       9.484  10.578  18.613  0.00  0.00    +0.000 C 
ATOM      4  N   UNL     1       9.821  11.346  19.749  0.00  0.00    +0.000 N 
ATOM      5  C   UNL     1       9.264  11.084  21.082  0.00  0.00    +0.000 C 
ATOM      6  C   UNL     1       8.665  12.300  21.755  0.00  0.00    +0.000 C 
ATOM      7  C   UNL     1       9.610  13.478  21.762  0.00  0.00    +0.000 C 
ATOM      8  C   UNL     1      10.476  13.582  20.536  0.00  0.00    +0.000 A 
ATOM      9  C   UNL     1      11.149  14.804  20.333  0.00  0.00    +0.000 A 
ATOM     10  C   UNL     1      12.050  14.960  19.285  0.00  0.00    +0.000 A 
ATOM     11  C   UNL     1      12.333  13.875  18.469  0.00  0.00    +0.000 A 
ATOM     12  C   UNL     1      11.660  12.666  18.651  0.00  0.00    +0.000 A 
ATOM     13  F   UNL     1      12.095  11.625  17.929  0.00  0.00    +0.000 F 
ATOM     14  C   UNL     1      10.668  12.515  19.639  0.00  0.00    +0.000 A 
ENDBRANCH   1   3
BRANCH   1  15
ATOM     15  C   UNL     1       8.232   8.473  17.804  0.00  0.00    +0.000 C 
BRANCH  15  16
ATOM     16  C   UNL     1       8.163   7.130  18.530  0.00  0.00    +0.000 C 
BRANCH  16  17
ATOM     17  C   UNL     1       7.296   6.164  17.844  0.00  0.00    +0.000 A 
ATOM     18  N   UNL     1       7.410   5.640  16.644  0.00  0.00    +0.000 NA
ATOM     19  N   UNL     1       6.365   4.753  16.516  0.00  0.00    +0.000 NA
ATOM     20  C   UNL     1       5.691   4.803  17.647  0.00  0.00    +0.000 A 
ATOM     21  O   UNL     1       6.233   5.680  18.547  0.00  0.00    +0.000 OA
BRANCH  20  22
ATOM     22  C   UNL     1       4.511   4.067  18.074  0.00  0.00    +0.000 A 
ATOM     23  C   UNL     1       3.346   4.124  17.297  0.00  0.00    +0.000 A 
ATOM     24  C   UNL     1       2.212   3.402  17.666  0.00  0.00    +0.000 A 
ATOM     25  C   UNL     1       2.231   2.617  18.817  0.00  0.00    +0.000 A 
ATOM     26  C   UNL     1       3.377   2.560  19.606  0.00  0.00    +0.000 A 
ATOM     27  C   UNL     1       4.513   3.282  19.233  0.00  0.00    +0.000 A 
ENDBRANCH  20  22
ENDBRANCH  16  17
ENDBRANCH  15  16
ENDBRANCH   1  15
TORSDOF 5
ENDMDL
