MODEL 1
REMARK VINA RESULT:      -7.8      0.000      0.000
REMARK  Name = 
REMARK  5 active torsions:
REMARK  status: ('A' for Active; 'I' for Inactive)
REMARK    1  A    between atoms: C_1  and  C_2
REMARK    2  A    between atoms: C_4  and  C_5
REMARK    3  A    between atoms: C_10  and  O_11
REMARK    4  A    between atoms: O_11  and  C_12
REMARK    5  A    between atoms: N_22  and  C_23
REMARK                            x       y       z     vdW  Elec       q    Type
REMARK                         _______ _______ _______ _____ _____    ______ ____
ROOT
ATOM      1  C   UNL     1       6.117   4.592  17.528  0.00  0.00    +0.000 C 
ATOM      2  O   UNL     1       7.044   4.285  18.283  0.00  0.00    +0.000 OA
ATOM      3  N   UNL     1       4.850   4.947  18.029  0.00  0.00    +0.000 N 
ATOM      4  C   UNL     1       4.727   4.949  19.482  0.00  0.00    +0.000 C 
ATOM      5  C   UNL     1       3.281   4.832  19.936  0.00  0.00    +0.000 C 
ATOM      6  C   UNL     1       2.406   5.914  19.299  0.00  0.00    +0.000 C 
ATOM      7  C   UNL     1       2.536   5.820  17.777  0.00  0.00    +0.000 C 
ATOM      8  C   UNL     1       3.991   5.903  17.326  0.00  0.00    +0.000 C 
ENDROOT
BRANCH   1  12
ATOM      9  C   UNL     1       8.069   5.570  12.959  0.00  0.00    +0.000 C 
ATOM     10  C   UNL     1       7.310   4.980  14.090  0.00  0.00    +0.000 A 
ATOM     11  C   UNL     1       7.474   5.201  15.439  0.00  0.00    +0.000 A 
ATOM     12  C   UNL     1       6.354   4.608  16.069  0.00  0.00    +0.000 A 
ATOM     13  N   UNL     1       5.552   4.031  15.158  0.00  0.00    +0.000 NA
ATOM     14  N   UNL     1       6.209   4.143  13.976  0.00  0.00    +0.000 N 
BRANCH  14  15
ATOM     15  C   UNL     1       5.733   3.437  12.836  0.00  0.00    +0.000 A 
ATOM     16  C   UNL     1       4.491   3.776  12.281  0.00  0.00    +0.000 A 
ATOM     17  C   UNL     1       4.016   3.091  11.158  0.00  0.00    +0.000 A 
ATOM     18  C   UNL     1       4.755   2.044  10.610  0.00  0.00    +0.000 A 
ATOM     19  C   UNL     1       5.973   1.677  11.184  0.00  0.00    +0.000 A 
ATOM     20  C   UNL     1       6.462   2.372  12.292  0.00  0.00    +0.000 A 
ENDBRANCH  14  15
ENDBRANCH   1  12
BRANCH   6  21
ATOM     21  O   UNL     1       2.819   7.235  19.682  0.00  0.00    +0.000 OA
BRANCH  21  22
ATOM     22  C   UNL     1       1.768   8.089  19.942  0.00  0.00    +0.000 A 
ATOM     23  N   UNL     1       1.111   7.975  21.120  0.00  0.00    +0.000 NA
ATOM     24  C   UNL     1       0.111   8.853  21.345  0.00  0.00    +0.000 A 
ATOM     25  C   UNL     1      -0.271   9.836  20.445  0.00  0.00    +0.000 A 
ATOM     26  C   UNL     1       0.426   9.938  19.243  0.00  0.00    +0.000 A 
ATOM     27  C   UNL     1       1.470   9.058  18.994  0.00  0.00    +0.000 A 
ATOM     28  F   UNL     1       2.150   9.144  17.842  0.00  0.00    +0.000 F 
ENDBRANCH  21  22
ENDBRANCH   6  21
TORSDOF 4
ENDMDL
MODEL 2
REMARK VINA RESULT:      -7.4      1.038      1.259
REMARK  Name = 
REMARK  5 active torsions:
REMARK  status: ('A' for Active; 'I' for Inactive)
REMARK    1  A    between atoms: C_1  and  C_2
REMARK    2  A    between atoms: C_4  and  C_5
REMARK    3  A    between atoms: C_10  and  O_11
REMARK    4  A    between atoms: O_11  and  C_12
REMARK    5  A    between atoms: N_22  and  C_23
REMARK                            x       y       z     vdW  Elec       q    Type
REMARK                         _______ _______ _______ _____ _____    ______ ____
ROOT
ATOM      1  C   UNL     1       6.067   4.630  17.551  0.00  0.00    +0.000 C 
ATOM      2  O   UNL     1       6.979   4.303  18.315  0.00  0.00    +0.000 OA
ATOM      3  N   UNL     1       4.804   5.016  18.039  0.00  0.00    +0.000 N 
ATOM      4  C   UNL     1       4.667   5.024  19.490  0.00  0.00    +0.000 C 
ATOM      5  C   UNL     1       3.213   4.943  19.930  0.00  0.00    +0.000 C 
ATOM      6  C   UNL     1       2.371   6.044  19.282  0.00  0.00    +0.000 C 
ATOM      7  C   UNL     1       2.514   5.944  17.761  0.00  0.00    +0.000 C 
ATOM      8  C   UNL     1       3.975   5.991  17.325  0.00  0.00    +0.000 C 
ENDROOT
BRANCH   1  12
ATOM      9  C   UNL     1       8.083   5.559  12.999  0.00  0.00    +0.000 C 
ATOM     10  C   UNL     1       7.302   4.986  14.124  0.00  0.00    +0.000 A 
ATOM     11  C   UNL     1       7.456   5.208  15.474  0.00  0.00    +0.000 A 
ATOM     12  C   UNL     1       6.319   4.637  16.094  0.00  0.00    +0.000 A 
ATOM     13  N   UNL     1       5.516   4.072  15.177  0.00  0.00    +0.000 NA
ATOM     14  N   UNL     1       6.188   4.169  14.001  0.00  0.00    +0.000 N 
BRANCH  14  15
ATOM     15  C   UNL     1       5.710   3.468  12.859  0.00  0.00    +0.000 A 
ATOM     16  C   UNL     1       4.468   3.809  12.306  0.00  0.00    +0.000 A 
ATOM     17  C   UNL     1       3.992   3.129  11.181  0.00  0.00    +0.000 A 
ATOM     18  C   UNL     1       4.731   2.085  10.627  0.00  0.00    +0.000 A 
ATOM     19  C   UNL     1       5.950   1.715  11.198  0.00  0.00    +0.000 A 
ATOM     20  C   UNL     1       6.440   2.405  12.309  0.00  0.00    +0.000 A 
ENDBRANCH  14  15
ENDBRANCH   1  12
BRANCH   6  21
ATOM     21  O   UNL     1       2.812   7.356  19.667  0.00  0.00    +0.000 OA
BRANCH  21  22
ATOM     22  C   UNL     1       1.830   8.319  19.568  0.00  0.00    +0.000 A 
ATOM     23  N   UNL     1       1.621   8.917  18.372  0.00  0.00    +0.000 NA
ATOM     24  C   UNL     1       0.628   9.830  18.315  0.00  0.00    +0.000 A 
ATOM     25  C   UNL     1      -0.162  10.179  19.399  0.00  0.00    +0.000 A 
ATOM     26  C   UNL     1       0.066   9.543  20.616  0.00  0.00    +0.000 A 
ATOM     27  C   UNL     1       1.071   8.589  20.698  0.00  0.00    +0.000 A 
ATOM     28  F   UNL     1       1.303   7.968  21.864  0.00  0.00    +0.000 F 
ENDBRANCH  21  22
ENDBRANCH   6  21
TORSDOF 4
ENDMDL
MODEL 3
REMARK VINA RESULT:      -7.4      2.170      9.365
REMARK  Name = 
REMARK  5 active torsions:
REMARK  status: ('A' for Active; 'I' for Inactive)
REMARK    1  A    between atoms: C_1  and  C_2
REMARK    2  A    between atoms: C_4  and  C_5
REMARK    3  A    between atoms: C_10  and  O_11
REMARK    4  A    between atoms: O_11  and  C_12
REMARK    5  A    between atoms: N_22  and  C_23
REMARK                            x       y       z     vdW  Elec       q    Type
REMARK                         _______ _______ _______ _____ _____    ______ ____
ROOT
ATOM      1  C   UNL     1       2.948   5.970  19.251  0.00  0.00    +0.000 C 
ATOM      2  O   UNL     1       2.450   5.010  19.845  0.00  0.00    +0.000 OA
ATOM      3  N   UNL     1       4.103   5.822  18.458  0.00  0.00    +0.000 N 
ATOM      4  C   UNL     1       4.639   4.469  18.374  0.00  0.00    +0.000 C 
ATOM      5  C   UNL     1       6.102   4.455  17.961  0.00  0.00    +0.000 C 
ATOM      6  C   UNL     1       6.322   5.226  16.657  0.00  0.00    +0.000 C 
ATOM      7  C   UNL     1       5.791   6.651  16.831  0.00  0.00    +0.000 C 
ATOM      8  C   UNL     1       4.333   6.662  17.280  0.00  0.00    +0.000 C 
ENDROOT
BRANCH   1  12
ATOM      9  C   UNL     1       1.116  10.558  18.140  0.00  0.00    +0.000 C 
ATOM     10  C   UNL     1       1.417   9.263  18.800  0.00  0.00    +0.000 A 
ATOM     11  C   UNL     1       2.028   8.150  18.266  0.00  0.00    +0.000 A 
ATOM     12  C   UNL     1       2.303   7.295  19.359  0.00  0.00    +0.000 A 
ATOM     13  N   UNL     1       1.865   7.841  20.506  0.00  0.00    +0.000 NA
ATOM     14  N   UNL     1       1.208   8.971  20.140  0.00  0.00    +0.000 N 
BRANCH  14  15
ATOM     15  C   UNL     1       0.430   9.675  21.101  0.00  0.00    +0.000 A 
ATOM     16  C   UNL     1       0.156   9.080  22.341  0.00  0.00    +0.000 A 
ATOM     17  C   UNL     1      -0.604   9.765  23.293  0.00  0.00    +0.000 A 
ATOM     18  C   UNL     1      -1.125  11.025  23.002  0.00  0.00    +0.000 A 
ATOM     19  C   UNL     1      -0.889  11.604  21.754  0.00  0.00    +0.000 A 
ATOM     20  C   UNL     1      -0.113  10.933  20.807  0.00  0.00    +0.000 A 
ENDBRANCH  14  15
ENDBRANCH   1  12
BRANCH   6  21
ATOM     21  O   UNL     1       5.610   4.637  15.557  0.00  0.00    +0.000 OA
BRANCH  21  22
ATOM     22  C   UNL     1       6.307   4.669  14.368  0.00  0.00    +0.000 A 
ATOM     23  N   UNL     1       7.484   5.337  14.320  0.00  0.00    +0.000 NA
ATOM     24  C   UNL     1       8.148   5.314  13.145  0.00  0.00    +0.000 A 
ATOM     25  C   UNL     1       7.688   4.661  12.011  0.00  0.00    +0.000 A 
ATOM     26  C   UNL     1       6.480   3.973  12.089  0.00  0.00    +0.000 A 
ATOM     27  C   UNL     1       5.785   3.968  13.290  0.00  0.00    +0.000 A 
ATOM     28  F   UNL     1       4.620   3.310  13.380  0.00  0.00    +0.000 F 
ENDBRANCH  21  22
ENDBRANCH   6  21
TORSDOF 4
ENDMDL
MODEL 4
REMARK VINA RESULT:      -7.3      2.248      9.201
REMARK  Name = 
REMARK  5 active torsions:
REMARK  status: ('A' for Active; 'I' for Inactive)
REMARK    1  A    between atoms: C_1  and  C_2
REMARK    2  A    between atoms: C_4  and  C_5
REMARK    3  A    between atoms: C_10  and  O_11
REMARK    4  A    between atoms: O_11  and  C_12
REMARK    5  A    between atoms: N_22  and  C_23
REMARK                            x       y       z     vdW  Elec       q    Type
REMARK                         _______ _______ _______ _____ _____    ______ ____
ROOT
ATOM      1  C   UNL     1       3.487   5.802  19.417  0.00  0.00    +0.000 C 
ATOM      2  O   UNL     1       3.141   4.863  20.139  0.00  0.00    +0.000 OA
ATOM      3  N   UNL     1       4.627   5.714  18.595  0.00  0.00    +0.000 N 
ATOM      4  C   UNL     1       5.339   4.443  18.642  0.00  0.00    +0.000 C 
ATOM      5  C   UNL     1       6.777   4.571  18.166  0.00  0.00    +0.000 C 
ATOM      6  C   UNL     1       6.851   5.203  16.774  0.00  0.00    +0.000 C 
ATOM      7  C   UNL     1       6.137   6.557  16.808  0.00  0.00    +0.000 C 
ATOM      8  C   UNL     1       4.705   6.430  17.319  0.00  0.00    +0.000 C 
ENDROOT
BRANCH   1  12
ATOM      9  C   UNL     1       0.932   9.888  17.862  0.00  0.00    +0.000 C 
ATOM     10  C   UNL     1       1.470   8.761  18.665  0.00  0.00    +0.000 A 
ATOM     11  C   UNL     1       2.184   7.666  18.234  0.00  0.00    +0.000 A 
ATOM     12  C   UNL     1       2.672   7.035  19.402  0.00  0.00    +0.000 A 
ATOM     13  N   UNL     1       2.261   7.693  20.499  0.00  0.00    +0.000 NA
ATOM     14  N   UNL     1       1.420   8.658  20.048  0.00  0.00    +0.000 N 
BRANCH  14  15
ATOM     15  C   UNL     1       0.635   9.399  20.975  0.00  0.00    +0.000 A 
ATOM     16  C   UNL     1       0.438  10.772  20.774  0.00  0.00    +0.000 A 
ATOM     17  C   UNL     1      -0.335  11.507  21.677  0.00  0.00    +0.000 A 
ATOM     18  C   UNL     1      -0.880  10.889  22.801  0.00  0.00    +0.000 A 
ATOM     19  C   UNL     1      -0.652   9.531  23.027  0.00  0.00    +0.000 A 
ATOM     20  C   UNL     1       0.101   8.786  22.117  0.00  0.00    +0.000 A 
ENDBRANCH  14  15
ENDBRANCH   1  12
BRANCH   6  21
ATOM     21  O   UNL     1       6.193   4.399  15.782  0.00  0.00    +0.000 OA
BRANCH  21  22
ATOM     22  C   UNL     1       6.674   4.596  14.505  0.00  0.00    +0.000 A 
ATOM     23  N   UNL     1       7.728   5.427  14.325  0.00  0.00    +0.000 NA
ATOM     24  C   UNL     1       8.186   5.563  13.063  0.00  0.00    +0.000 A 
ATOM     25  C   UNL     1       7.636   4.914  11.968  0.00  0.00    +0.000 A 
ATOM     26  C   UNL     1       6.559   4.057  12.180  0.00  0.00    +0.000 A 
ATOM     27  C   UNL     1       6.079   3.886  13.471  0.00  0.00    +0.000 A 
ATOM     28  F   UNL     1       5.042   3.065  13.691  0.00  0.00    +0.000 F 
ENDBRANCH  21  22
ENDBRANCH   6  21
TORSDOF 4
ENDMDL
MODEL 5
REMARK VINA RESULT:      -7.3      4.398      7.152
REMARK  Name = 
REMARK  5 active torsions:
REMARK  status: ('A' for Active; 'I' for Inactive)
REMARK    1  A    between atoms: C_1  and  C_2
REMARK    2  A    between atoms: C_4  and  C_5
REMARK    3  A    between atoms: C_10  and  O_11
REMARK    4  A    between atoms: O_11  and  C_12
REMARK    5  A    between atoms: N_22  and  C_23
REMARK                            x       y       z     vdW  Elec       q    Type
REMARK                         _______ _______ _______ _____ _____    ______ ____
ROOT
ATOM      1  C   UNL     1       2.028   9.479  18.221  0.00  0.00    +0.000 C 
ATOM      2  O   UNL     1       2.182  10.120  17.178  0.00  0.00    +0.000 OA
ATOM      3  N   UNL     1       1.485  10.075  19.376  0.00  0.00    +0.000 N 
ATOM      4  C   UNL     1       1.102  11.475  19.239  0.00  0.00    +0.000 C 
ATOM      5  C   UNL     1       1.016  12.181  20.583  0.00  0.00    +0.000 C 
ATOM      6  C   UNL     1       0.087  11.438  21.546  0.00  0.00    +0.000 C 
ATOM      7  C   UNL     1       0.577   9.995  21.689  0.00  0.00    +0.000 C 
ATOM      8  C   UNL     1       0.696   9.300  20.336  0.00  0.00    +0.000 C 
ENDROOT
BRANCH   1  12
ATOM      9  C   UNL     1       4.386   5.083  17.348  0.00  0.00    +0.000 C 
ATOM     10  C   UNL     1       3.535   6.157  17.918  0.00  0.00    +0.000 A 
ATOM     11  C   UNL     1       3.565   7.507  17.649  0.00  0.00    +0.000 A 
ATOM     12  C   UNL     1       2.402   8.049  18.247  0.00  0.00    +0.000 A 
ATOM     13  N   UNL     1       1.702   7.087  18.871  0.00  0.00    +0.000 NA
ATOM     14  N   UNL     1       2.466   5.969  18.783  0.00  0.00    +0.000 N 
BRANCH  14  15
ATOM     15  C   UNL     1       2.114   4.814  19.536  0.00  0.00    +0.000 A 
ATOM     16  C   UNL     1       1.354   3.801  18.936  0.00  0.00    +0.000 A 
ATOM     17  C   UNL     1       1.007   2.660  19.666  0.00  0.00    +0.000 A 
ATOM     18  C   UNL     1       1.381   2.543  21.004  0.00  0.00    +0.000 A 
ATOM     19  C   UNL     1       2.103   3.567  21.617  0.00  0.00    +0.000 A 
ATOM     20  C   UNL     1       2.471   4.699  20.886  0.00  0.00    +0.000 A 
ENDBRANCH  14  15
ENDBRANCH   1  12
BRANCH   6  21
ATOM     21  O   UNL     1      -1.263  11.383  21.058  0.00  0.00    +0.000 OA
BRANCH  21  22
ATOM     22  C   UNL     1      -2.077  12.369  21.575  0.00  0.00    +0.000 A 
ATOM     23  N   UNL     1      -2.380  13.437  20.801  0.00  0.00    +0.000 NA
ATOM     24  C   UNL     1      -3.207  14.360  21.336  0.00  0.00    +0.000 A 
ATOM     25  C   UNL     1      -3.740  14.271  22.613  0.00  0.00    +0.000 A 
ATOM     26  C   UNL     1      -3.420  13.158  23.387  0.00  0.00    +0.000 A 
ATOM     27  C   UNL     1      -2.585  12.186  22.854  0.00  0.00    +0.000 A 
ATOM     28  F   UNL     1      -2.269  11.109  23.586  0.00  0.00    +0.000 F 
ENDBRANCH  21  22
ENDBRANCH   6  21
TORSDOF 4
ENDMDL
MODEL 6
REMARK VINA RESULT:      -7.3      2.973      5.558
REMARK  Name = 
REMARK  5 active torsions:
REMARK  status: ('A' for Active; 'I' for Inactive)
REMARK    1  A    between atoms: C_1  and  C_2
REMARK    2  A    between atoms: C_4  and  C_5
REMARK    3  A    between atoms: C_10  and  O_11
REMARK    4  A    between atoms: O_11  and  C_12
REMARK    5  A    between atoms: N_22  and  C_23
REMARK                            x       y       z     vdW  Elec       q    Type
REMARK                         _______ _______ _______ _____ _____    ______ ____
ROOT
ATOM      1  C   UNL     1       1.858   6.990  20.217  0.00  0.00    +0.000 C 
ATOM      2  O   UNL     1       1.816   6.749  21.426  0.00  0.00    +0.000 OA
ATOM      3  N   UNL     1       1.354   8.196  19.692  0.00  0.00    +0.000 N 
ATOM      4  C   UNL     1       0.812   9.130  20.671  0.00  0.00    +0.000 C 
ATOM      5  C   UNL     1      -0.144  10.131  20.043  0.00  0.00    +0.000 C 
ATOM      6  C   UNL     1       0.509  10.867  18.870  0.00  0.00    +0.000 C 
ATOM      7  C   UNL     1       1.004   9.834  17.854  0.00  0.00    +0.000 C 
ATOM      8  C   UNL     1       1.935   8.810  18.495  0.00  0.00    +0.000 C 
ENDROOT
BRANCH   1  12
ATOM      9  C   UNL     1       2.601   2.935  17.277  0.00  0.00    +0.000 C 
ATOM     10  C   UNL     1       2.718   4.258  17.940  0.00  0.00    +0.000 A 
ATOM     11  C   UNL     1       1.789   4.913  18.716  0.00  0.00    +0.000 A 
ATOM     12  C   UNL     1       2.473   6.000  19.307  0.00  0.00    +0.000 A 
ATOM     13  N   UNL     1       3.754   6.029  18.900  0.00  0.00    +0.000 NA
ATOM     14  N   UNL     1       3.857   5.050  17.965  0.00  0.00    +0.000 N 
BRANCH  14  15
ATOM     15  C   UNL     1       5.034   4.957  17.171  0.00  0.00    +0.000 A 
ATOM     16  C   UNL     1       6.259   4.653  17.781  0.00  0.00    +0.000 A 
ATOM     17  C   UNL     1       7.420   4.554  17.009  0.00  0.00    +0.000 A 
ATOM     18  C   UNL     1       7.373   4.796  15.638  0.00  0.00    +0.000 A 
ATOM     19  C   UNL     1       6.164   5.138  15.032  0.00  0.00    +0.000 A 
ATOM     20  C   UNL     1       4.996   5.217  15.795  0.00  0.00    +0.000 A 
ENDBRANCH  14  15
ENDBRANCH   1  12
BRANCH   6  21
ATOM     21  O   UNL     1       1.648  11.637  19.285  0.00  0.00    +0.000 OA
BRANCH  21  22
ATOM     22  C   UNL     1       1.487  12.996  19.115  0.00  0.00    +0.000 A 
ATOM     23  N   UNL     1       0.374  13.588  19.610  0.00  0.00    +0.000 NA
ATOM     24  C   UNL     1       0.275  14.924  19.449  0.00  0.00    +0.000 A 
ATOM     25  C   UNL     1       1.232  15.699  18.811  0.00  0.00    +0.000 A 
ATOM     26  C   UNL     1       2.371  15.068  18.318  0.00  0.00    +0.000 A 
ATOM     27  C   UNL     1       2.506  13.697  18.485  0.00  0.00    +0.000 A 
ATOM     28  F   UNL     1       3.598  13.075  18.016  0.00  0.00    +0.000 F 
ENDBRANCH  21  22
ENDBRANCH   6  21
TORSDOF 4
ENDMDL
MODEL 7
REMARK VINA RESULT:      -7.1      2.896      5.325
REMARK  Name = 
REMARK  5 active torsions:
REMARK  status: ('A' for Active; 'I' for Inactive)
REMARK    1  A    between atoms: C_1  and  C_2
REMARK    2  A    between atoms: C_4  and  C_5
REMARK    3  A    between atoms: C_10  and  O_11
REMARK    4  A    between atoms: O_11  and  C_12
REMARK    5  A    between atoms: N_22  and  C_23
REMARK                            x       y       z     vdW  Elec       q    Type
REMARK                         _______ _______ _______ _____ _____    ______ ____
ROOT
ATOM      1  C   UNL     1       1.869   6.802  20.211  0.00  0.00    +0.000 C 
ATOM      2  O   UNL     1       1.759   6.515  21.406  0.00  0.00    +0.000 OA
ATOM      3  N   UNL     1       1.433   8.046  19.713  0.00  0.00    +0.000 N 
ATOM      4  C   UNL     1       0.876   8.959  20.703  0.00  0.00    +0.000 C 
ATOM      5  C   UNL     1      -0.013  10.018  20.071  0.00  0.00    +0.000 C 
ATOM      6  C   UNL     1       0.721  10.775  18.963  0.00  0.00    +0.000 C 
ATOM      7  C   UNL     1       1.230   9.767  17.930  0.00  0.00    +0.000 C 
ATOM      8  C   UNL     1       2.093   8.684  18.572  0.00  0.00    +0.000 C 
ENDROOT
BRANCH   1  12
ATOM      9  C   UNL     1       2.673   2.754  17.277  0.00  0.00    +0.000 C 
ATOM     10  C   UNL     1       2.763   4.085  17.929  0.00  0.00    +0.000 A 
ATOM     11  C   UNL     1       1.832   4.714  18.725  0.00  0.00    +0.000 A 
ATOM     12  C   UNL     1       2.494   5.828  19.292  0.00  0.00    +0.000 A 
ATOM     13  N   UNL     1       3.762   5.897  18.853  0.00  0.00    +0.000 NA
ATOM     14  N   UNL     1       3.874   4.915  17.921  0.00  0.00    +0.000 N 
BRANCH  14  15
ATOM     15  C   UNL     1       5.034   4.856  17.098  0.00  0.00    +0.000 A 
ATOM     16  C   UNL     1       4.903   4.981  15.708  0.00  0.00    +0.000 A 
ATOM     17  C   UNL     1       6.036   4.928  14.891  0.00  0.00    +0.000 A 
ATOM     18  C   UNL     1       7.294   4.712  15.449  0.00  0.00    +0.000 A 
ATOM     19  C   UNL     1       7.425   4.547  16.829  0.00  0.00    +0.000 A 
ATOM     20  C   UNL     1       6.299   4.620  17.652  0.00  0.00    +0.000 A 
ENDBRANCH  14  15
ENDBRANCH   1  12
BRANCH   6  21
ATOM     21  O   UNL     1       1.864  11.487  19.463  0.00  0.00    +0.000 OA
BRANCH  21  22
ATOM     22  C   UNL     1       1.581  12.777  19.859  0.00  0.00    +0.000 A 
ATOM     23  N   UNL     1       1.278  13.008  21.158  0.00  0.00    +0.000 NA
ATOM     24  C   UNL     1       1.040  14.291  21.507  0.00  0.00    +0.000 A 
ATOM     25  C   UNL     1       1.085  15.354  20.617  0.00  0.00    +0.000 A 
ATOM     26  C   UNL     1       1.408  15.091  19.289  0.00  0.00    +0.000 A 
ATOM     27  C   UNL     1       1.673  13.783  18.907  0.00  0.00    +0.000 A 
ATOM     28  F   UNL     1       1.986  13.515  17.631  0.00  0.00    +0.000 F 
ENDBRANCH  21  22
ENDBRANCH   6  21
TORSDOF 4
ENDMDL
MODEL 8
REMARK VINA RESULT:      -7.1      4.359      7.081
REMARK  Name = 
REMARK  5 active torsions:
REMARK  status: ('A' for Active; 'I' for Inactive)
REMARK    1  A    between atoms: C_1  and  C_2
REMARK    2  A    between atoms: C_4  and  C_5
REMARK    3  A    between atoms: C_10  and  O_11
REMARK    4  A    between atoms: O_11  and  C_12
REMARK    5  A    between atoms: N_22  and  C_23
REMARK                            x       y       z     vdW  Elec       q    Type
REMARK                         _______ _______ _______ _____ _____    ______ ____
ROOT
ATOM      1  C   UNL     1       1.947   9.533  18.301  0.00  0.00    +0.000 C 
ATOM      2  O   UNL     1       2.077  10.202  17.273  0.00  0.00    +0.000 OA
ATOM      3  N   UNL     1       1.415  10.094  19.479  0.00  0.00    +0.000 N 
ATOM      4  C   UNL     1       1.016  11.493  19.383  0.00  0.00    +0.000 C 
ATOM      5  C   UNL     1       0.944  12.164  20.745  0.00  0.00    +0.000 C 
ATOM      6  C   UNL     1       0.037  11.388  21.703  0.00  0.00    +0.000 C 
ATOM      7  C   UNL     1       0.544   9.947  21.803  0.00  0.00    +0.000 C 
ATOM      8  C   UNL     1       0.649   9.287  20.431  0.00  0.00    +0.000 C 
ENDROOT
BRANCH   1  12
ATOM      9  C   UNL     1       4.348   5.189  17.298  0.00  0.00    +0.000 C 
ATOM     10  C   UNL     1       3.486   6.237  17.900  0.00  0.00    +0.000 A 
ATOM     11  C   UNL     1       3.502   7.595  17.671  0.00  0.00    +0.000 A 
ATOM     12  C   UNL     1       2.335   8.107  18.285  0.00  0.00    +0.000 A 
ATOM     13  N   UNL     1       1.645   7.120  18.881  0.00  0.00    +0.000 NA
ATOM     14  N   UNL     1       2.420   6.013  18.760  0.00  0.00    +0.000 N 
BRANCH  14  15
ATOM     15  C   UNL     1       2.081   4.833  19.479  0.00  0.00    +0.000 A 
ATOM     16  C   UNL     1       2.440   4.718  20.830  0.00  0.00    +0.000 A 
ATOM     17  C   UNL     1       2.107   3.565  21.547  0.00  0.00    +0.000 A 
ATOM     18  C   UNL     1       1.453   2.510  20.914  0.00  0.00    +0.000 A 
ATOM     19  C   UNL     1       1.129   2.603  19.560  0.00  0.00    +0.000 A 
ATOM     20  C   UNL     1       1.440   3.761  18.844  0.00  0.00    +0.000 A 
ENDBRANCH  14  15
ENDBRANCH   1  12
BRANCH   6  21
ATOM     21  O   UNL     1      -1.319  11.332  21.235  0.00  0.00    +0.000 OA
BRANCH  21  22
ATOM     22  C   UNL     1      -2.175  12.169  21.919  0.00  0.00    +0.000 A 
ATOM     23  N   UNL     1      -2.522  11.851  23.188  0.00  0.00    +0.000 NA
ATOM     24  C   UNL     1      -3.334  12.717  23.830  0.00  0.00    +0.000 A 
ATOM     25  C   UNL     1      -3.824  13.883  23.261  0.00  0.00    +0.000 A 
ATOM     26  C   UNL     1      -3.445  14.192  21.957  0.00  0.00    +0.000 A 
ATOM     27  C   UNL     1      -2.597  13.327  21.280  0.00  0.00    +0.000 A 
ATOM     28  F   UNL     1      -2.223  13.611  20.025  0.00  0.00    +0.000 F 
ENDBRANCH  21  22
ENDBRANCH   6  21
TORSDOF 4
ENDMDL
MODEL 9
REMARK VINA RESULT:      -7.0      2.992      5.572
REMARK  Name = 
REMARK  5 active torsions:
REMARK  status: ('A' for Active; 'I' for Inactive)
REMARK    1  A    between atoms: C_1  and  C_2
REMARK    2  A    between atoms: C_4  and  C_5
REMARK    3  A    between atoms: C_10  and  O_11
REMARK    4  A    between atoms: O_11  and  C_12
REMARK    5  A    between atoms: N_22  and  C_23
REMARK                            x       y       z     vdW  Elec       q    Type
REMARK                         _______ _______ _______ _____ _____    ______ ____
ROOT
ATOM      1  C   UNL     1       1.808   6.818  20.160  0.00  0.00    +0.000 C 
ATOM      2  O   UNL     1       1.625   6.521  21.344  0.00  0.00    +0.000 OA
ATOM      3  N   UNL     1       1.438   8.080  19.655  0.00  0.00    +0.000 N 
ATOM      4  C   UNL     1       0.858   9.000  20.626  0.00  0.00    +0.000 C 
ATOM      5  C   UNL     1       0.038  10.094  19.961  0.00  0.00    +0.000 C 
ATOM      6  C   UNL     1       0.854  10.839  18.902  0.00  0.00    +0.000 C 
ATOM      7  C   UNL     1       1.385   9.825  17.885  0.00  0.00    +0.000 C 
ATOM      8  C   UNL     1       2.178   8.709  18.559  0.00  0.00    +0.000 C 
ENDROOT
BRANCH   1  12
ATOM      9  C   UNL     1       2.676   2.725  17.308  0.00  0.00    +0.000 C 
ATOM     10  C   UNL     1       2.746   4.069  17.935  0.00  0.00    +0.000 A 
ATOM     11  C   UNL     1       1.803   4.701  18.713  0.00  0.00    +0.000 A 
ATOM     12  C   UNL     1       2.449   5.833  19.263  0.00  0.00    +0.000 A 
ATOM     13  N   UNL     1       3.719   5.909  18.830  0.00  0.00    +0.000 NA
ATOM     14  N   UNL     1       3.848   4.912  17.918  0.00  0.00    +0.000 N 
BRANCH  14  15
ATOM     15  C   UNL     1       5.013   4.850  17.102  0.00  0.00    +0.000 A 
ATOM     16  C   UNL     1       6.266   4.650  17.698  0.00  0.00    +0.000 A 
ATOM     17  C   UNL     1       7.415   4.584  16.906  0.00  0.00    +0.000 A 
ATOM     18  C   UNL     1       7.326   4.755  15.525  0.00  0.00    +0.000 A 
ATOM     19  C   UNL     1       6.087   4.995  14.932  0.00  0.00    +0.000 A 
ATOM     20  C   UNL     1       4.932   5.041  15.717  0.00  0.00    +0.000 A 
ENDBRANCH  14  15
ENDBRANCH   1  12
BRANCH   6  21
ATOM     21  O   UNL     1       1.991  11.508  19.471  0.00  0.00    +0.000 OA
BRANCH  21  22
ATOM     22  C   UNL     1       1.998  12.869  19.249  0.00  0.00    +0.000 A 
ATOM     23  N   UNL     1       2.704  13.356  18.202  0.00  0.00    +0.000 NA
ATOM     24  C   UNL     1       2.656  14.690  18.004  0.00  0.00    +0.000 A 
ATOM     25  C   UNL     1       1.940  15.564  18.808  0.00  0.00    +0.000 A 
ATOM     26  C   UNL     1       1.214  15.038  19.874  0.00  0.00    +0.000 A 
ATOM     27  C   UNL     1       1.234  13.667  20.090  0.00  0.00    +0.000 A 
ATOM     28  F   UNL     1       0.541  13.146  21.112  0.00  0.00    +0.000 F 
ENDBRANCH  21  22
ENDBRANCH   6  21
TORSDOF 4
ENDMDL
