MODEL 1
REMARK VINA RESULT:      -9.3      0.000      0.000
REMARK  Name = 
REMARK  3 active torsions:
REMARK  status: ('A' for Active; 'I' for Inactive)
REMARK    1  A    between atoms: C_2  and  C_22
REMARK    2  A    between atoms: N_3  and  C_4
REMARK    3  A    between atoms: C_4  and  C_5
REMARK                            x       y       z     vdW  Elec       q    Type
REMARK                         _______ _______ _______ _____ _____    ______ ____
ROOT
ATOM      1  C   UNL     1       6.425   6.596  17.033  0.00  0.00    +0.000 C 
ATOM      2  C   UNL     1       7.050   5.557  16.065  0.00  0.00    +0.000 C 
ATOM      3  C   UNL     1       7.514   4.346  16.868  0.00  0.00    +0.000 C 
ATOM      4  C   UNL     1       7.547   4.739  18.326  0.00  0.00    +0.000 C 
ATOM      5  C   UNL     1       6.988   6.161  18.411  0.00  0.00    +0.000 C 
ATOM      6  C   UNL     1       8.199   7.085  18.672  0.00  0.00    +0.000 C 
ATOM      7  N   UNL     1       7.899   8.307  17.981  0.00  0.00    +0.000 N 
ATOM      8  C   UNL     1       8.412   9.566  18.263  0.00  0.00    +0.000 A 
ATOM      9  C   UNL     1       9.457   9.754  19.345  0.00  0.00    +0.000 A 
ATOM     10  C   UNL     1       9.927  10.986  19.607  0.00  0.00    +0.000 A 
ATOM     11  C   UNL     1       9.430  12.061  18.855  0.00  0.00    +0.000 A 
ATOM     12  N   UNL     1       9.666  13.355  18.845  0.00  0.00    +0.000 NA
ATOM     13  N   UNL     1       8.851  13.868  17.859  0.00  0.00    +0.000 NA
ATOM     14  N   UNL     1       8.134  12.912  17.279  0.00  0.00    +0.000 NA
ATOM     15  N   UNL     1       8.489  11.773  17.895  0.00  0.00    +0.000 N 
ATOM     16  N   UNL     1       7.959  10.576  17.559  0.00  0.00    +0.000 NA
ATOM     17  C   UNL     1       6.871   8.089  16.967  0.00  0.00    +0.000 C 
ENDROOT
BRANCH   1  18
ATOM     18  C   UNL     1       4.901   6.644  16.679  0.00  0.00    +0.000 C 
BRANCH  18  21
ATOM     19  O   UNL     1       4.084   3.827  16.524  0.00  0.00    +0.000 OA
ATOM     20  C   UNL     1       3.786   4.497  17.515  0.00  0.00    +0.000 C 
ATOM     21  N   UNL     1       4.162   5.800  17.666  0.00  0.00    +0.000 N 
ATOM     22  H   UNL     1       3.780   6.275  18.478  0.00  0.00    +0.000 HD
BRANCH  20  23
ATOM     23  C   UNL     1       2.980   3.890  18.638  0.00  0.00    +0.000 A 
ATOM     24  C   UNL     1       3.607   3.323  19.753  0.00  0.00    +0.000 A 
ATOM     25  F   UNL     1       4.941   3.291  19.853  0.00  0.00    +0.000 F 
ATOM     26  C   UNL     1       2.876   2.783  20.812  0.00  0.00    +0.000 A 
ATOM     27  C   UNL     1       1.475   2.807  20.787  0.00  0.00    +0.000 A 
ATOM     28  C   UNL     1       0.831   3.343  19.677  0.00  0.00    +0.000 A 
ATOM     29  C   UNL     1       1.579   3.878  18.622  0.00  0.00    +0.000 A 
ATOM     30  F   UNL     1       0.901   4.387  17.576  0.00  0.00    +0.000 F 
ENDBRANCH  20  23
ENDBRANCH  18  21
ENDBRANCH   1  18
TORSDOF 3
ENDMDL
MODEL 2
REMARK VINA RESULT:      -9.3      0.037      1.536
REMARK  Name = 
REMARK  3 active torsions:
REMARK  status: ('A' for Active; 'I' for Inactive)
REMARK    1  A    between atoms: C_2  and  C_22
REMARK    2  A    between atoms: N_3  and  C_4
REMARK    3  A    between atoms: C_4  and  C_5
REMARK                            x       y       z     vdW  Elec       q    Type
REMARK                         _______ _______ _______ _____ _____    ______ ____
ROOT
ATOM      1  C   UNL     1       6.406   6.611  17.032  0.00  0.00    +0.000 C 
ATOM      2  C   UNL     1       7.020   5.574  16.056  0.00  0.00    +0.000 C 
ATOM      3  C   UNL     1       7.490   4.360  16.850  0.00  0.00    +0.000 C 
ATOM      4  C   UNL     1       7.537   4.748  18.309  0.00  0.00    +0.000 C 
ATOM      5  C   UNL     1       6.982   6.171  18.404  0.00  0.00    +0.000 C 
ATOM      6  C   UNL     1       8.196   7.092  18.656  0.00  0.00    +0.000 C 
ATOM      7  N   UNL     1       7.893   8.317  17.971  0.00  0.00    +0.000 N 
ATOM      8  C   UNL     1       8.410   9.574  18.252  0.00  0.00    +0.000 A 
ATOM      9  C   UNL     1       9.466   9.757  19.325  0.00  0.00    +0.000 A 
ATOM     10  C   UNL     1       9.941  10.988  19.586  0.00  0.00    +0.000 A 
ATOM     11  C   UNL     1       9.438  12.066  18.842  0.00  0.00    +0.000 A 
ATOM     12  N   UNL     1       9.676  13.359  18.833  0.00  0.00    +0.000 NA
ATOM     13  N   UNL     1       8.853  13.877  17.857  0.00  0.00    +0.000 NA
ATOM     14  N   UNL     1       8.129  12.923  17.280  0.00  0.00    +0.000 NA
ATOM     15  N   UNL     1       8.487  11.782  17.890  0.00  0.00    +0.000 N 
ATOM     16  N   UNL     1       7.952  10.587  17.556  0.00  0.00    +0.000 NA
ATOM     17  C   UNL     1       6.855   8.103  16.967  0.00  0.00    +0.000 C 
ENDROOT
BRANCH   1  18
ATOM     18  C   UNL     1       4.879   6.663  16.693  0.00  0.00    +0.000 C 
BRANCH  18  21
ATOM     19  O   UNL     1       4.041   3.852  16.532  0.00  0.00    +0.000 OA
ATOM     20  C   UNL     1       3.762   4.519  17.532  0.00  0.00    +0.000 C 
ATOM     21  N   UNL     1       4.148   5.818  17.685  0.00  0.00    +0.000 N 
ATOM     22  H   UNL     1       3.781   6.291  18.505  0.00  0.00    +0.000 HD
BRANCH  20  23
ATOM     23  C   UNL     1       2.967   3.910  18.662  0.00  0.00    +0.000 A 
ATOM     24  C   UNL     1       1.570   3.873  18.624  0.00  0.00    +0.000 A 
ATOM     25  F   UNL     1       0.892   4.387  17.591  0.00  0.00    +0.000 F 
ATOM     26  C   UNL     1       0.822   3.289  19.649  0.00  0.00    +0.000 A 
ATOM     27  C   UNL     1       1.466   2.707  20.749  0.00  0.00    +0.000 A 
ATOM     28  C   UNL     1       2.853   2.755  20.819  0.00  0.00    +0.000 A 
ATOM     29  C   UNL     1       3.589   3.347  19.785  0.00  0.00    +0.000 A 
ATOM     30  F   UNL     1       4.929   3.359  19.904  0.00  0.00    +0.000 F 
ENDBRANCH  20  23
ENDBRANCH  18  21
ENDBRANCH   1  18
TORSDOF 3
ENDMDL
MODEL 3
REMARK VINA RESULT:      -8.6      1.266      1.475
REMARK  Name = 
REMARK  3 active torsions:
REMARK  status: ('A' for Active; 'I' for Inactive)
REMARK    1  A    between atoms: C_2  and  C_22
REMARK    2  A    between atoms: N_3  and  C_4
REMARK    3  A    between atoms: C_4  and  C_5
REMARK                            x       y       z     vdW  Elec       q    Type
REMARK                         _______ _______ _______ _____ _____    ______ ____
ROOT
ATOM      1  C   UNL     1       6.329   6.654  17.039  0.00  0.00    +0.000 C 
ATOM      2  C   UNL     1       6.911   5.607  16.054  0.00  0.00    +0.000 C 
ATOM      3  C   UNL     1       7.355   4.377  16.839  0.00  0.00    +0.000 C 
ATOM      4  C   UNL     1       7.421   4.757  18.299  0.00  0.00    +0.000 C 
ATOM      5  C   UNL     1       6.902   6.193  18.405  0.00  0.00    +0.000 C 
ATOM      6  C   UNL     1       8.141   7.082  18.654  0.00  0.00    +0.000 C 
ATOM      7  N   UNL     1       7.864   8.317  17.977  0.00  0.00    +0.000 N 
ATOM      8  C   UNL     1       8.414   9.560  18.261  0.00  0.00    +0.000 A 
ATOM      9  C   UNL     1       9.481   9.711  19.329  0.00  0.00    +0.000 A 
ATOM     10  C   UNL     1       9.988  10.928  19.593  0.00  0.00    +0.000 A 
ATOM     11  C   UNL     1       9.508  12.022  18.857  0.00  0.00    +0.000 A 
ATOM     12  N   UNL     1       9.778  13.309  18.854  0.00  0.00    +0.000 NA
ATOM     13  N   UNL     1       8.962  13.852  17.885  0.00  0.00    +0.000 NA
ATOM     14  N   UNL     1       8.210  12.920  17.308  0.00  0.00    +0.000 NA
ATOM     15  N   UNL     1       8.544  11.767  17.910  0.00  0.00    +0.000 N 
ATOM     16  N   UNL     1       7.977  10.587  17.573  0.00  0.00    +0.000 NA
ATOM     17  C   UNL     1       6.815   8.135  16.979  0.00  0.00    +0.000 C 
ENDROOT
BRANCH   1  18
ATOM     18  C   UNL     1       4.802   6.746  16.710  0.00  0.00    +0.000 C 
BRANCH  18  21
ATOM     19  O   UNL     1       2.111   6.818  17.886  0.00  0.00    +0.000 OA
ATOM     20  C   UNL     1       2.835   5.837  18.073  0.00  0.00    +0.000 C 
ATOM     21  N   UNL     1       4.082   5.725  17.529  0.00  0.00    +0.000 N 
ATOM     22  H   UNL     1       4.619   4.917  17.828  0.00  0.00    +0.000 HD
BRANCH  20  23
ATOM     23  C   UNL     1       2.361   4.684  18.925  0.00  0.00    +0.000 A 
ATOM     24  C   UNL     1       2.200   3.405  18.383  0.00  0.00    +0.000 A 
ATOM     25  F   UNL     1       2.448   3.165  17.090  0.00  0.00    +0.000 F 
ATOM     26  C   UNL     1       1.789   2.322  19.164  0.00  0.00    +0.000 A 
ATOM     27  C   UNL     1       1.537   2.494  20.532  0.00  0.00    +0.000 A 
ATOM     28  C   UNL     1       1.668   3.763  21.086  0.00  0.00    +0.000 A 
ATOM     29  C   UNL     1       2.078   4.839  20.288  0.00  0.00    +0.000 A 
ATOM     30  F   UNL     1       2.191   6.042  20.880  0.00  0.00    +0.000 F 
ENDBRANCH  20  23
ENDBRANCH  18  21
ENDBRANCH   1  18
TORSDOF 3
ENDMDL
MODEL 4
REMARK VINA RESULT:      -8.6      1.261      1.303
REMARK  Name = 
REMARK  3 active torsions:
REMARK  status: ('A' for Active; 'I' for Inactive)
REMARK    1  A    between atoms: C_2  and  C_22
REMARK    2  A    between atoms: N_3  and  C_4
REMARK    3  A    between atoms: C_4  and  C_5
REMARK                            x       y       z     vdW  Elec       q    Type
REMARK                         _______ _______ _______ _____ _____    ______ ____
ROOT
ATOM      1  C   UNL     1       6.328   6.636  17.010  0.00  0.00    +0.000 C 
ATOM      2  C   UNL     1       6.917   5.592  16.025  0.00  0.00    +0.000 C 
ATOM      3  C   UNL     1       7.357   4.361  16.810  0.00  0.00    +0.000 C 
ATOM      4  C   UNL     1       7.413   4.737  18.272  0.00  0.00    +0.000 C 
ATOM      5  C   UNL     1       6.893   6.172  18.378  0.00  0.00    +0.000 C 
ATOM      6  C   UNL     1       8.130   7.061  18.636  0.00  0.00    +0.000 C 
ATOM      7  N   UNL     1       7.856   8.298  17.962  0.00  0.00    +0.000 N 
ATOM      8  C   UNL     1       8.404   9.540  18.252  0.00  0.00    +0.000 A 
ATOM      9  C   UNL     1       9.464   9.689  19.326  0.00  0.00    +0.000 A 
ATOM     10  C   UNL     1       9.969  10.905  19.596  0.00  0.00    +0.000 A 
ATOM     11  C   UNL     1       9.493  12.001  18.861  0.00  0.00    +0.000 A 
ATOM     12  N   UNL     1       9.762  13.288  18.862  0.00  0.00    +0.000 NA
ATOM     13  N   UNL     1       8.952  13.833  17.890  0.00  0.00    +0.000 NA
ATOM     14  N   UNL     1       8.205  12.903  17.306  0.00  0.00    +0.000 NA
ATOM     15  N   UNL     1       8.535  11.748  17.907  0.00  0.00    +0.000 N 
ATOM     16  N   UNL     1       7.971  10.569  17.564  0.00  0.00    +0.000 NA
ATOM     17  C   UNL     1       6.813   8.118  16.956  0.00  0.00    +0.000 C 
ENDROOT
BRANCH   1  18
ATOM     18  C   UNL     1       4.803   6.728  16.672  0.00  0.00    +0.000 C 
BRANCH  18  21
ATOM     19  O   UNL     1       2.135   6.830  17.898  0.00  0.00    +0.000 OA
ATOM     20  C   UNL     1       2.844   5.832  18.053  0.00  0.00    +0.000 C 
ATOM     21  N   UNL     1       4.078   5.707  17.485  0.00  0.00    +0.000 N 
ATOM     22  H   UNL     1       4.605   4.883  17.759  0.00  0.00    +0.000 HD
BRANCH  20  23
ATOM     23  C   UNL     1       2.363   4.672  18.893  0.00  0.00    +0.000 A 
ATOM     24  C   UNL     1       2.082   4.834  20.253  0.00  0.00    +0.000 A 
ATOM     25  F   UNL     1       2.241   6.017  20.856  0.00  0.00    +0.000 F 
ATOM     26  C   UNL     1       1.610   3.778  21.036  0.00  0.00    +0.000 A 
ATOM     27  C   UNL     1       1.394   2.517  20.464  0.00  0.00    +0.000 A 
ATOM     28  C   UNL     1       1.691   2.328  19.119  0.00  0.00    +0.000 A 
ATOM     29  C   UNL     1       2.166   3.396  18.348  0.00  0.00    +0.000 A 
ATOM     30  F   UNL     1       2.432   3.155  17.051  0.00  0.00    +0.000 F 
ENDBRANCH  20  23
ENDBRANCH  18  21
ENDBRANCH   1  18
TORSDOF 3
ENDMDL
MODEL 5
REMARK VINA RESULT:      -7.9     10.170     12.517
REMARK  Name = 
REMARK  3 active torsions:
REMARK  status: ('A' for Active; 'I' for Inactive)
REMARK    1  A    between atoms: C_2  and  C_22
REMARK    2  A    between atoms: N_3  and  C_4
REMARK    3  A    between atoms: C_4  and  C_5
REMARK                            x       y       z     vdW  Elec       q    Type
REMARK                         _______ _______ _______ _____ _____    ______ ____
ROOT
ATOM      1  C   UNL     1      -4.320  13.285  22.932  0.00  0.00    +0.000 C 
ATOM      2  C   UNL     1      -4.318  14.777  23.358  0.00  0.00    +0.000 C 
ATOM      3  C   UNL     1      -5.707  15.152  23.864  0.00  0.00    +0.000 C 
ATOM      4  C   UNL     1      -6.668  14.073  23.426  0.00  0.00    +0.000 C 
ATOM      5  C   UNL     1      -5.831  12.984  22.752  0.00  0.00    +0.000 C 
ATOM      6  C   UNL     1      -6.098  13.112  21.235  0.00  0.00    +0.000 C 
ATOM      7  N   UNL     1      -4.859  12.763  20.601  0.00  0.00    +0.000 N 
ATOM      8  C   UNL     1      -4.695  12.286  19.307  0.00  0.00    +0.000 A 
ATOM      9  C   UNL     1      -5.882  12.161  18.370  0.00  0.00    +0.000 A 
ATOM     10  C   UNL     1      -5.697  11.684  17.127  0.00  0.00    +0.000 A 
ATOM     11  C   UNL     1      -4.398  11.324  16.738  0.00  0.00    +0.000 A 
ATOM     12  N   UNL     1      -3.876  10.843  15.631  0.00  0.00    +0.000 NA
ATOM     13  N   UNL     1      -2.529  10.707  15.889  0.00  0.00    +0.000 NA
ATOM     14  N   UNL     1      -2.233  11.097  17.125  0.00  0.00    +0.000 NA
ATOM     15  N   UNL     1      -3.398  11.486  17.667  0.00  0.00    +0.000 N 
ATOM     16  N   UNL     1      -3.483  11.954  18.932  0.00  0.00    +0.000 NA
ATOM     17  C   UNL     1      -3.748  12.871  21.542  0.00  0.00    +0.000 C 
ENDROOT
BRANCH   1  18
ATOM     18  C   UNL     1      -3.391  12.549  23.954  0.00  0.00    +0.000 C 
BRANCH  18  21
ATOM     19  O   UNL     1      -0.542  12.960  23.369  0.00  0.00    +0.000 OA
ATOM     20  C   UNL     1      -1.120  11.963  22.929  0.00  0.00    +0.000 C 
ATOM     21  N   UNL     1      -2.433  11.696  23.190  0.00  0.00    +0.000 N 
ATOM     22  H   UNL     1      -2.823  10.897  22.699  0.00  0.00    +0.000 HD
BRANCH  20  23
ATOM     23  C   UNL     1      -0.384  10.966  22.067  0.00  0.00    +0.000 A 
ATOM     24  C   UNL     1       0.100   9.768  22.602  0.00  0.00    +0.000 A 
ATOM     25  F   UNL     1      -0.063   9.473  23.898  0.00  0.00    +0.000 F 
ATOM     26  C   UNL     1       0.759   8.823  21.813  0.00  0.00    +0.000 A 
ATOM     27  C   UNL     1       0.942   9.053  20.443  0.00  0.00    +0.000 A 
ATOM     28  C   UNL     1       0.491  10.248  19.895  0.00  0.00    +0.000 A 
ATOM     29  C   UNL     1      -0.165  11.187  20.701  0.00  0.00    +0.000 A 
ATOM     30  F   UNL     1      -0.585  12.324  20.114  0.00  0.00    +0.000 F 
ENDBRANCH  20  23
ENDBRANCH  18  21
ENDBRANCH   1  18
TORSDOF 3
ENDMDL
MODEL 6
REMARK VINA RESULT:      -7.6      5.821      6.733
REMARK  Name = 
REMARK  3 active torsions:
REMARK  status: ('A' for Active; 'I' for Inactive)
REMARK    1  A    between atoms: C_2  and  C_22
REMARK    2  A    between atoms: N_3  and  C_4
REMARK    3  A    between atoms: C_4  and  C_5
REMARK                            x       y       z     vdW  Elec       q    Type
REMARK                         _______ _______ _______ _____ _____    ______ ____
ROOT
ATOM      1  C   UNL     1       1.189  10.100  19.069  0.00  0.00    +0.000 C 
ATOM      2  C   UNL     1       1.302   9.418  20.457  0.00  0.00    +0.000 C 
ATOM      3  C   UNL     1      -0.085   8.969  20.906  0.00  0.00    +0.000 C 
ATOM      4  C   UNL     1      -1.104   9.669  20.037  0.00  0.00    +0.000 C 
ATOM      5  C   UNL     1      -0.319  10.455  18.985  0.00  0.00    +0.000 C 
ATOM      6  C   UNL     1      -0.416  11.941  19.395  0.00  0.00    +0.000 C 
ATOM      7  N   UNL     1       0.838  12.524  19.012  0.00  0.00    +0.000 N 
ATOM      8  C   UNL     1       1.082  13.864  18.743  0.00  0.00    +0.000 A 
ATOM      9  C   UNL     1      -0.009  14.903  18.918  0.00  0.00    +0.000 A 
ATOM     10  C   UNL     1       0.250  16.191  18.638  0.00  0.00    +0.000 A 
ATOM     11  C   UNL     1       1.538  16.530  18.195  0.00  0.00    +0.000 A 
ATOM     12  N   UNL     1       2.117  17.658  17.847  0.00  0.00    +0.000 NA
ATOM     13  N   UNL     1       3.409  17.318  17.510  0.00  0.00    +0.000 NA
ATOM     14  N   UNL     1       3.617  16.013  17.649  0.00  0.00    +0.000 NA
ATOM     15  N   UNL     1       2.450  15.508  18.078  0.00  0.00    +0.000 N 
ATOM     16  N   UNL     1       2.285  14.191  18.335  0.00  0.00    +0.000 NA
ATOM     17  C   UNL     1       1.853  11.491  18.827  0.00  0.00    +0.000 C 
ENDROOT
BRANCH   1  18
ATOM     18  C   UNL     1       1.928   9.152  18.066  0.00  0.00    +0.000 C 
BRANCH  18  21
ATOM     19  O   UNL     1       3.819   6.905  18.093  0.00  0.00    +0.000 OA
ATOM     20  C   UNL     1       2.661   6.736  18.482  0.00  0.00    +0.000 C 
ATOM     21  N   UNL     1       1.742   7.744  18.526  0.00  0.00    +0.000 N 
ATOM     22  H   UNL     1       0.798   7.465  18.776  0.00  0.00    +0.000 HD
BRANCH  20  23
ATOM     23  C   UNL     1       2.199   5.376  18.946  0.00  0.00    +0.000 A 
ATOM     24  C   UNL     1       1.737   5.176  20.251  0.00  0.00    +0.000 A 
ATOM     25  F   UNL     1       1.702   6.182  21.133  0.00  0.00    +0.000 F 
ATOM     26  C   UNL     1       1.280   3.931  20.687  0.00  0.00    +0.000 A 
ATOM     27  C   UNL     1       1.263   2.839  19.809  0.00  0.00    +0.000 A 
ATOM     28  C   UNL     1       1.740   3.009  18.515  0.00  0.00    +0.000 A 
ATOM     29  C   UNL     1       2.198   4.263  18.094  0.00  0.00    +0.000 A 
ATOM     30  F   UNL     1       2.644   4.369  16.828  0.00  0.00    +0.000 F 
ENDBRANCH  20  23
ENDBRANCH  18  21
ENDBRANCH   1  18
TORSDOF 3
ENDMDL
MODEL 7
REMARK VINA RESULT:      -7.5      9.244     11.055
REMARK  Name = 
REMARK  3 active torsions:
REMARK  status: ('A' for Active; 'I' for Inactive)
REMARK    1  A    between atoms: C_2  and  C_22
REMARK    2  A    between atoms: N_3  and  C_4
REMARK    3  A    between atoms: C_4  and  C_5
REMARK                            x       y       z     vdW  Elec       q    Type
REMARK                         _______ _______ _______ _____ _____    ______ ____
ROOT
ATOM      1  C   UNL     1      -1.008  12.514  19.671  0.00  0.00    +0.000 C 
ATOM      2  C   UNL     1      -0.333  13.807  19.145  0.00  0.00    +0.000 C 
ATOM      3  C   UNL     1       1.017  13.980  19.835  0.00  0.00    +0.000 C 
ATOM      4  C   UNL     1       1.048  13.060  21.032  0.00  0.00    +0.000 C 
ATOM      5  C   UNL     1      -0.247  12.245  20.996  0.00  0.00    +0.000 C 
ATOM      6  C   UNL     1      -1.148  12.818  22.112  0.00  0.00    +0.000 C 
ATOM      7  N   UNL     1      -2.489  12.705  21.613  0.00  0.00    +0.000 N 
ATOM      8  C   UNL     1      -3.653  12.645  22.367  0.00  0.00    +0.000 A 
ATOM      9  C   UNL     1      -3.607  12.779  23.877  0.00  0.00    +0.000 A 
ATOM     10  C   UNL     1      -4.748  12.704  24.585  0.00  0.00    +0.000 A 
ATOM     11  C   UNL     1      -5.951  12.508  23.890  0.00  0.00    +0.000 A 
ATOM     12  N   UNL     1      -7.209  12.396  24.255  0.00  0.00    +0.000 NA
ATOM     13  N   UNL     1      -7.916  12.221  23.085  0.00  0.00    +0.000 NA
ATOM     14  N   UNL     1      -7.110  12.227  22.028  0.00  0.00    +0.000 NA
ATOM     15  N   UNL     1      -5.874  12.406  22.521  0.00  0.00    +0.000 N 
ATOM     16  N   UNL     1      -4.783  12.470  21.725  0.00  0.00    +0.000 NA
ATOM     17  C   UNL     1      -2.488  12.551  20.161  0.00  0.00    +0.000 C 
ENDROOT
BRANCH   1  18
ATOM     18  C   UNL     1      -1.039  11.526  18.457  0.00  0.00    +0.000 C 
BRANCH  18  21
ATOM     19  O   UNL     1       1.847  11.003  18.305  0.00  0.00    +0.000 OA
ATOM     20  C   UNL     1       1.084  10.118  18.699  0.00  0.00    +0.000 C 
ATOM     21  N   UNL     1      -0.262  10.305  18.824  0.00  0.00    +0.000 N 
ATOM     22  H   UNL     1      -0.798   9.477  19.068  0.00  0.00    +0.000 HD
BRANCH  20  23
ATOM     23  C   UNL     1       1.618   8.757  19.077  0.00  0.00    +0.000 A 
ATOM     24  C   UNL     1       1.385   8.217  20.345  0.00  0.00    +0.000 A 
ATOM     25  F   UNL     1       0.693   8.894  21.269  0.00  0.00    +0.000 F 
ATOM     26  C   UNL     1       1.848   6.948  20.700  0.00  0.00    +0.000 A 
ATOM     27  C   UNL     1       2.557   6.171  19.774  0.00  0.00    +0.000 A 
ATOM     28  C   UNL     1       2.821   6.698  18.516  0.00  0.00    +0.000 A 
ATOM     29  C   UNL     1       2.352   7.973  18.176  0.00  0.00    +0.000 A 
ATOM     30  F   UNL     1       2.633   8.430  16.941  0.00  0.00    +0.000 F 
ENDBRANCH  20  23
ENDBRANCH  18  21
ENDBRANCH   1  18
TORSDOF 3
ENDMDL
MODEL 8
REMARK VINA RESULT:      -7.5      5.825      6.769
REMARK  Name = 
REMARK  3 active torsions:
REMARK  status: ('A' for Active; 'I' for Inactive)
REMARK    1  A    between atoms: C_2  and  C_22
REMARK    2  A    between atoms: N_3  and  C_4
REMARK    3  A    between atoms: C_4  and  C_5
REMARK                            x       y       z     vdW  Elec       q    Type
REMARK                         _______ _______ _______ _____ _____    ______ ____
ROOT
ATOM      1  C   UNL     1       1.182  10.117  19.061  0.00  0.00    +0.000 C 
ATOM      2  C   UNL     1       1.293   9.435  20.450  0.00  0.00    +0.000 C 
ATOM      3  C   UNL     1      -0.095   8.991  20.899  0.00  0.00    +0.000 C 
ATOM      4  C   UNL     1      -1.112   9.693  20.030  0.00  0.00    +0.000 C 
ATOM      5  C   UNL     1      -0.325  10.475  18.977  0.00  0.00    +0.000 C 
ATOM      6  C   UNL     1      -0.418  11.962  19.386  0.00  0.00    +0.000 C 
ATOM      7  N   UNL     1       0.838  12.541  19.002  0.00  0.00    +0.000 N 
ATOM      8  C   UNL     1       1.086  13.880  18.731  0.00  0.00    +0.000 A 
ATOM      9  C   UNL     1      -0.003  14.922  18.905  0.00  0.00    +0.000 A 
ATOM     10  C   UNL     1       0.260  16.210  18.624  0.00  0.00    +0.000 A 
ATOM     11  C   UNL     1       1.549  16.544  18.180  0.00  0.00    +0.000 A 
ATOM     12  N   UNL     1       2.131  17.670  17.832  0.00  0.00    +0.000 NA
ATOM     13  N   UNL     1       3.423  17.327  17.495  0.00  0.00    +0.000 NA
ATOM     14  N   UNL     1       3.627  16.021  17.636  0.00  0.00    +0.000 NA
ATOM     15  N   UNL     1       2.458  15.519  18.065  0.00  0.00    +0.000 N 
ATOM     16  N   UNL     1       2.290  14.203  18.324  0.00  0.00    +0.000 NA
ATOM     17  C   UNL     1       1.850  11.505  18.818  0.00  0.00    +0.000 C 
ENDROOT
BRANCH   1  18
ATOM     18  C   UNL     1       1.919   9.166  18.059  0.00  0.00    +0.000 C 
BRANCH  18  21
ATOM     19  O   UNL     1       3.802   6.912  18.120  0.00  0.00    +0.000 OA
ATOM     20  C   UNL     1       2.636   6.747  18.487  0.00  0.00    +0.000 C 
ATOM     21  N   UNL     1       1.720   7.757  18.515  0.00  0.00    +0.000 N 
ATOM     22  H   UNL     1       0.771   7.481  18.747  0.00  0.00    +0.000 HD
BRANCH  20  23
ATOM     23  C   UNL     1       2.161   5.388  18.942  0.00  0.00    +0.000 A 
ATOM     24  C   UNL     1       2.193   4.287  18.080  0.00  0.00    +0.000 A 
ATOM     25  F   UNL     1       2.634   4.405  16.823  0.00  0.00    +0.000 F 
ATOM     26  C   UNL     1       1.783   3.017  18.494  0.00  0.00    +0.000 A 
ATOM     27  C   UNL     1       1.334   2.814  19.806  0.00  0.00    +0.000 A 
ATOM     28  C   UNL     1       1.271   3.900  20.672  0.00  0.00    +0.000 A 
ATOM     29  C   UNL     1       1.683   5.167  20.240  0.00  0.00    +0.000 A 
ATOM     30  F   UNL     1       1.604   6.179  21.124  0.00  0.00    +0.000 F 
ENDBRANCH  20  23
ENDBRANCH  18  21
ENDBRANCH   1  18
TORSDOF 3
ENDMDL
MODEL 9
REMARK VINA RESULT:      -7.5      7.999     11.058
REMARK  Name = 
REMARK  3 active torsions:
REMARK  status: ('A' for Active; 'I' for Inactive)
REMARK    1  A    between atoms: C_2  and  C_22
REMARK    2  A    between atoms: N_3  and  C_4
REMARK    3  A    between atoms: C_4  and  C_5
REMARK                            x       y       z     vdW  Elec       q    Type
REMARK                         _______ _______ _______ _____ _____    ______ ____
ROOT
ATOM      1  C   UNL     1       6.763  14.338  23.789  0.00  0.00    +0.000 C 
ATOM      2  C   UNL     1       6.803  15.842  24.169  0.00  0.00    +0.000 C 
ATOM      3  C   UNL     1       8.256  16.271  24.349  0.00  0.00    +0.000 C 
ATOM      4  C   UNL     1       9.099  15.022  24.463  0.00  0.00    +0.000 C 
ATOM      5  C   UNL     1       8.161  13.835  24.236  0.00  0.00    +0.000 C 
ATOM      6  C   UNL     1       7.941  13.187  25.621  0.00  0.00    +0.000 C 
ATOM      7  N   UNL     1       6.590  12.704  25.605  0.00  0.00    +0.000 N 
ATOM      8  C   UNL     1       6.066  11.682  26.385  0.00  0.00    +0.000 A 
ATOM      9  C   UNL     1       6.912  10.999  27.442  0.00  0.00    +0.000 A 
ATOM     10  C   UNL     1       6.383  10.003  28.174  0.00  0.00    +0.000 A 
ATOM     11  C   UNL     1       5.051   9.634  27.932  0.00  0.00    +0.000 A 
ATOM     12  N   UNL     1       4.244   8.736  28.451  0.00  0.00    +0.000 NA
ATOM     13  N   UNL     1       3.053   8.879  27.774  0.00  0.00    +0.000 NA
ATOM     14  N   UNL     1       3.127   9.844  26.864  0.00  0.00    +0.000 NA
ATOM     15  N   UNL     1       4.377  10.326  26.953  0.00  0.00    +0.000 N 
ATOM     16  N   UNL     1       4.819  11.335  26.171  0.00  0.00    +0.000 NA
ATOM     17  C   UNL     1       5.818  13.365  24.557  0.00  0.00    +0.000 C 
ENDROOT
BRANCH   1  18
ATOM     18  C   UNL     1       6.238  14.286  22.315  0.00  0.00    +0.000 C 
BRANCH  18  21
ATOM     19  O   UNL     1       8.413  15.472  20.737  0.00  0.00    +0.000 OA
ATOM     20  C   UNL     1       8.249  14.250  20.732  0.00  0.00    +0.000 C 
ATOM     21  N   UNL     1       7.279  13.632  21.467  0.00  0.00    +0.000 N 
ATOM     22  H   UNL     1       7.181  12.633  21.311  0.00  0.00    +0.000 HD
BRANCH  20  23
ATOM     23  C   UNL     1       9.139  13.359  19.899  0.00  0.00    +0.000 A 
ATOM     24  C   UNL     1      10.108  12.546  20.494  0.00  0.00    +0.000 A 
ATOM     25  F   UNL     1      10.285  12.541  21.821  0.00  0.00    +0.000 F 
ATOM     26  C   UNL     1      10.920  11.696  19.740  0.00  0.00    +0.000 A 
ATOM     27  C   UNL     1      10.771  11.630  18.348  0.00  0.00    +0.000 A 
ATOM     28  C   UNL     1       9.830  12.449  17.733  0.00  0.00    +0.000 A 
ATOM     29  C   UNL     1       9.026  13.297  18.503  0.00  0.00    +0.000 A 
ATOM     30  F   UNL     1       8.130  14.063  17.853  0.00  0.00    +0.000 F 
ENDBRANCH  20  23
ENDBRANCH  18  21
ENDBRANCH   1  18
TORSDOF 3
ENDMDL
