MODEL 1
REMARK VINA RESULT:      -7.0      0.000      0.000
REMARK  Name = 
REMARK  6 active torsions:
REMARK  status: ('A' for Active; 'I' for Inactive)
REMARK    1  A    between atoms: C_1  and  N_2
REMARK    2  A    between atoms: C_6  and  C_7
REMARK    3  A    between atoms: C_7  and  C_8
REMARK    4  A    between atoms: C_10  and  N_11
REMARK    5  A    between atoms: C_17  and  N_18
REMARK    6  A    between atoms: C_25  and  C_26
REMARK                            x       y       z     vdW  Elec       q    Type
REMARK                         _______ _______ _______ _____ _____    ______ ____
ROOT
ATOM      1  C   UNL     1      -4.300  11.624  17.872  0.00  0.00    +0.000 A 
ATOM      2  C   UNL     1      -4.402  11.070  16.581  0.00  0.00    +0.000 A 
ATOM      3  C   UNL     1      -3.477  10.135  16.089  0.00  0.00    +0.000 A 
ATOM      4  C   UNL     1      -2.468   9.749  16.970  0.00  0.00    +0.000 A 
ATOM      5  C   UNL     1      -2.139  10.572  18.052  0.00  0.00    +0.000 A 
ATOM      6  C   UNL     1      -3.150  11.345  18.620  0.00  0.00    +0.000 A 
ENDROOT
BRANCH   5   7
ATOM      7  N   UNL     1      -0.736  11.000  18.175  0.00  0.00    +0.000 N 
ATOM      8  C   UNL     1       0.026  10.194  19.158  0.00  0.00    +0.000 C 
ATOM      9  C   UNL     1      -0.196  10.956  20.434  0.00  0.00    +0.000 A 
ATOM     10  C   UNL     1      -0.452  12.284  20.090  0.00  0.00    +0.000 A 
ATOM     11  C   UNL     1      -0.850  13.236  21.014  0.00  0.00    +0.000 A 
ATOM     12  C   UNL     1      -0.998  12.822  22.337  0.00  0.00    +0.000 A 
ATOM     13  C   UNL     1      -0.731  11.490  22.701  0.00  0.00    +0.000 A 
ATOM     14  C   UNL     1      -0.312  10.531  21.753  0.00  0.00    +0.000 A 
ATOM     15  C   UNL     1      -0.575  12.347  18.617  0.00  0.00    +0.000 C 
ATOM     16  O   UNL     1      -0.715  13.387  17.988  0.00  0.00    +0.000 OA
BRANCH  14  17
ATOM     17  C   UNL     1      -0.085   9.107  22.189  0.00  0.00    +0.000 C 
ATOM     18  F   UNL     1      -0.185   8.913  23.527  0.00  0.00    +0.000 F 
ATOM     19  F   UNL     1      -0.981   8.252  21.624  0.00  0.00    +0.000 F 
ATOM     20  F   UNL     1       1.146   8.642  21.827  0.00  0.00    +0.000 F 
ENDBRANCH  14  17
ENDBRANCH   5   7
BRANCH   3  21
ATOM     21  N   UNL     1      -3.504   9.664  14.794  0.00  0.00    +0.000 N 
ATOM     22  C   UNL     1      -4.638   9.824  13.910  0.00  0.00    +0.000 C 
ATOM     23  C   UNL     1      -4.010   9.977  12.533  0.00  0.00    +0.000 C 
ATOM     24  O   UNL     1      -2.676   9.476  12.611  0.00  0.00    +0.000 OA
ATOM     25  C   UNL     1      -2.308   9.440  13.996  0.00  0.00    +0.000 C 
ENDBRANCH   3  21
BRANCH   1  26
ATOM     26  C   UNL     1      -5.398  12.518  18.412  0.00  0.00    +0.000 C 
BRANCH  26  32
ATOM     27  C   UNL     1      -4.458  14.475  20.697  0.00  0.00    +0.000 C 
ATOM     28  N   UNL     1      -5.249  13.285  20.853  0.00  0.00    +0.000 N 
ATOM     29  C   UNL     1      -5.767  12.836  22.031  0.00  0.00    +0.000 A 
ATOM     30  N   UNL     1      -6.460  11.743  21.813  0.00  0.00    +0.000 NA
ATOM     31  N   UNL     1      -6.402  11.480  20.468  0.00  0.00    +0.000 NA
ATOM     32  C   UNL     1      -5.660  12.403  19.878  0.00  0.00    +0.000 A 
ENDBRANCH  26  32
ENDBRANCH   1  26
TORSDOF 5
ENDMDL
MODEL 2
REMARK VINA RESULT:      -7.0      2.215      3.076
REMARK  Name = 
REMARK  6 active torsions:
REMARK  status: ('A' for Active; 'I' for Inactive)
REMARK    1  A    between atoms: C_1  and  N_2
REMARK    2  A    between atoms: C_6  and  C_7
REMARK    3  A    between atoms: C_7  and  C_8
REMARK    4  A    between atoms: C_10  and  N_11
REMARK    5  A    between atoms: C_17  and  N_18
REMARK    6  A    between atoms: C_25  and  C_26
REMARK                            x       y       z     vdW  Elec       q    Type
REMARK                         _______ _______ _______ _____ _____    ______ ____
ROOT
ATOM      1  C   UNL     1      -4.656  12.615  19.991  0.00  0.00    +0.000 A 
ATOM      2  C   UNL     1      -4.708  11.978  18.736  0.00  0.00    +0.000 A 
ATOM      3  C   UNL     1      -3.672  11.154  18.267  0.00  0.00    +0.000 A 
ATOM      4  C   UNL     1      -2.597  10.967  19.135  0.00  0.00    +0.000 A 
ATOM      5  C   UNL     1      -2.363  11.891  20.158  0.00  0.00    +0.000 A 
ATOM      6  C   UNL     1      -3.460  12.546  20.715  0.00  0.00    +0.000 A 
ENDROOT
BRANCH   5   7
ATOM      7  N   UNL     1      -1.033  12.519  20.213  0.00  0.00    +0.000 N 
ATOM      8  C   UNL     1      -0.098  11.974  19.200  0.00  0.00    +0.000 C 
ATOM      9  C   UNL     1       0.541  10.832  19.941  0.00  0.00    +0.000 A 
ATOM     10  C   UNL     1       0.472  11.125  21.303  0.00  0.00    +0.000 A 
ATOM     11  C   UNL     1       0.831  10.218  22.286  0.00  0.00    +0.000 A 
ATOM     12  C   UNL     1       1.274   8.963  21.868  0.00  0.00    +0.000 A 
ATOM     13  C   UNL     1       1.362   8.658  20.498  0.00  0.00    +0.000 A 
ATOM     14  C   UNL     1       1.005   9.596  19.504  0.00  0.00    +0.000 A 
ATOM     15  C   UNL     1      -0.356  12.342  21.456  0.00  0.00    +0.000 C 
ATOM     16  O   UNL     1      -0.540  12.912  22.523  0.00  0.00    +0.000 OA
BRANCH  14  17
ATOM     17  C   UNL     1       1.073   9.201  18.053  0.00  0.00    +0.000 C 
ATOM     18  F   UNL     1       1.436   7.911  17.844  0.00  0.00    +0.000 F 
ATOM     19  F   UNL     1      -0.125   9.353  17.426  0.00  0.00    +0.000 F 
ATOM     20  F   UNL     1       1.958   9.964  17.346  0.00  0.00    +0.000 F 
ENDBRANCH  14  17
ENDBRANCH   5   7
BRANCH   3  21
ATOM     21  N   UNL     1      -3.662  10.608  17.002  0.00  0.00    +0.000 N 
ATOM     22  C   UNL     1      -3.996  11.355  15.808  0.00  0.00    +0.000 C 
ATOM     23  C   UNL     1      -3.101  10.753  14.736  0.00  0.00    +0.000 C 
ATOM     24  O   UNL     1      -2.660   9.481  15.210  0.00  0.00    +0.000 OA
ATOM     25  C   UNL     1      -2.853   9.457  16.630  0.00  0.00    +0.000 C 
ENDBRANCH   3  21
BRANCH   1  26
ATOM     26  C   UNL     1      -5.857  13.377  20.515  0.00  0.00    +0.000 C 
BRANCH  26  32
ATOM     27  C   UNL     1      -6.036  14.904  23.267  0.00  0.00    +0.000 C 
ATOM     28  N   UNL     1      -6.504  13.573  22.988  0.00  0.00    +0.000 N 
ATOM     29  C   UNL     1      -7.155  12.768  23.873  0.00  0.00    +0.000 A 
ATOM     30  N   UNL     1      -7.467  11.637  23.286  0.00  0.00    +0.000 NA
ATOM     31  N   UNL     1      -7.020  11.709  21.991  0.00  0.00    +0.000 NA
ATOM     32  C   UNL     1      -6.425  12.875  21.803  0.00  0.00    +0.000 A 
ENDBRANCH  26  32
ENDBRANCH   1  26
TORSDOF 5
ENDMDL
MODEL 3
REMARK VINA RESULT:      -7.0      0.515      1.238
REMARK  Name = 
REMARK  6 active torsions:
REMARK  status: ('A' for Active; 'I' for Inactive)
REMARK    1  A    between atoms: C_1  and  N_2
REMARK    2  A    between atoms: C_6  and  C_7
REMARK    3  A    between atoms: C_7  and  C_8
REMARK    4  A    between atoms: C_10  and  N_11
REMARK    5  A    between atoms: C_17  and  N_18
REMARK    6  A    between atoms: C_25  and  C_26
REMARK                            x       y       z     vdW  Elec       q    Type
REMARK                         _______ _______ _______ _____ _____    ______ ____
ROOT
ATOM      1  C   UNL     1      -4.303  11.594  17.732  0.00  0.00    +0.000 A 
ATOM      2  C   UNL     1      -4.394  11.041  16.439  0.00  0.00    +0.000 A 
ATOM      3  C   UNL     1      -3.466  10.105  15.955  0.00  0.00    +0.000 A 
ATOM      4  C   UNL     1      -2.465   9.717  16.845  0.00  0.00    +0.000 A 
ATOM      5  C   UNL     1      -2.145  10.539  17.930  0.00  0.00    +0.000 A 
ATOM      6  C   UNL     1      -3.160  11.313  18.490  0.00  0.00    +0.000 A 
ENDROOT
BRANCH   5   7
ATOM      7  N   UNL     1      -0.743  10.965  18.067  0.00  0.00    +0.000 N 
ATOM      8  C   UNL     1       0.013  10.150  19.047  0.00  0.00    +0.000 C 
ATOM      9  C   UNL     1      -0.217  10.901  20.328  0.00  0.00    +0.000 A 
ATOM     10  C   UNL     1      -0.470  12.232  19.995  0.00  0.00    +0.000 A 
ATOM     11  C   UNL     1      -0.874  13.176  20.924  0.00  0.00    +0.000 A 
ATOM     12  C   UNL     1      -1.031  12.750  22.243  0.00  0.00    +0.000 A 
ATOM     13  C   UNL     1      -0.767  11.415  22.597  0.00  0.00    +0.000 A 
ATOM     14  C   UNL     1      -0.342  10.464  21.643  0.00  0.00    +0.000 A 
ATOM     15  C   UNL     1      -0.584  12.308  18.521  0.00  0.00    +0.000 C 
ATOM     16  O   UNL     1      -0.719  13.354  17.901  0.00  0.00    +0.000 OA
BRANCH  14  17
ATOM     17  C   UNL     1      -0.119   9.036  22.067  0.00  0.00    +0.000 C 
ATOM     18  F   UNL     1      -1.018   8.158  21.557  0.00  0.00    +0.000 F 
ATOM     19  F   UNL     1       1.103   8.575  21.687  0.00  0.00    +0.000 F 
ATOM     20  F   UNL     1      -0.166   8.883  23.423  0.00  0.00    +0.000 F 
ENDBRANCH  14  17
ENDBRANCH   5   7
BRANCH   3  21
ATOM     21  N   UNL     1      -3.481   9.634  14.660  0.00  0.00    +0.000 N 
ATOM     22  C   UNL     1      -4.635   9.726  13.791  0.00  0.00    +0.000 C 
ATOM     23  C   UNL     1      -4.038   9.919  12.407  0.00  0.00    +0.000 C 
ATOM     24  O   UNL     1      -2.674   9.501  12.465  0.00  0.00    +0.000 OA
ATOM     25  C   UNL     1      -2.285   9.486  13.845  0.00  0.00    +0.000 C 
ENDBRANCH   3  21
BRANCH   1  26
ATOM     26  C   UNL     1      -5.405  12.489  18.262  0.00  0.00    +0.000 C 
BRANCH  26  32
ATOM     27  C   UNL     1      -7.133  11.193  20.558  0.00  0.00    +0.000 C 
ATOM     28  N   UNL     1      -6.106  12.188  20.709  0.00  0.00    +0.000 N 
ATOM     29  C   UNL     1      -5.677  12.699  21.897  0.00  0.00    +0.000 A 
ATOM     30  N   UNL     1      -4.711  13.560  21.678  0.00  0.00    +0.000 NA
ATOM     31  N   UNL     1      -4.500  13.605  20.323  0.00  0.00    +0.000 NA
ATOM     32  C   UNL     1      -5.348  12.784  19.725  0.00  0.00    +0.000 A 
ENDBRANCH  26  32
ENDBRANCH   1  26
TORSDOF 5
ENDMDL
MODEL 4
REMARK VINA RESULT:      -6.9      4.675      8.313
REMARK  Name = 
REMARK  6 active torsions:
REMARK  status: ('A' for Active; 'I' for Inactive)
REMARK    1  A    between atoms: C_1  and  N_2
REMARK    2  A    between atoms: C_6  and  C_7
REMARK    3  A    between atoms: C_7  and  C_8
REMARK    4  A    between atoms: C_10  and  N_11
REMARK    5  A    between atoms: C_17  and  N_18
REMARK    6  A    between atoms: C_25  and  C_26
REMARK                            x       y       z     vdW  Elec       q    Type
REMARK                         _______ _______ _______ _____ _____    ______ ____
ROOT
ATOM      1  C   UNL     1       2.964  14.642  18.618  0.00  0.00    +0.000 A 
ATOM      2  C   UNL     1       2.389  15.317  19.713  0.00  0.00    +0.000 A 
ATOM      3  C   UNL     1       1.656  14.650  20.707  0.00  0.00    +0.000 A 
ATOM      4  C   UNL     1       1.562  13.264  20.574  0.00  0.00    +0.000 A 
ATOM      5  C   UNL     1       1.767  12.673  19.323  0.00  0.00    +0.000 A 
ATOM      6  C   UNL     1       2.655  13.288  18.443  0.00  0.00    +0.000 A 
ENDROOT
BRANCH   5   7
ATOM      7  N   UNL     1       0.694  11.814  18.796  0.00  0.00    +0.000 N 
ATOM      8  C   UNL     1      -0.534  11.853  19.626  0.00  0.00    +0.000 C 
ATOM      9  C   UNL     1      -0.288  10.742  20.608  0.00  0.00    +0.000 A 
ATOM     10  C   UNL     1       0.581   9.832  20.004  0.00  0.00    +0.000 A 
ATOM     11  C   UNL     1       1.139   8.762  20.682  0.00  0.00    +0.000 A 
ATOM     12  C   UNL     1       0.805   8.611  22.027  0.00  0.00    +0.000 A 
ATOM     13  C   UNL     1      -0.080   9.512  22.647  0.00  0.00    +0.000 A 
ATOM     14  C   UNL     1      -0.654  10.593  21.941  0.00  0.00    +0.000 A 
ATOM     15  C   UNL     1       1.035  10.430  18.728  0.00  0.00    +0.000 C 
ATOM     16  O   UNL     1       1.741   9.849  17.915  0.00  0.00    +0.000 OA
BRANCH  14  17
ATOM     17  C   UNL     1      -1.558  11.555  22.666  0.00  0.00    +0.000 C 
ATOM     18  F   UNL     1      -2.514  12.116  21.885  0.00  0.00    +0.000 F 
ATOM     19  F   UNL     1      -2.224  10.956  23.691  0.00  0.00    +0.000 F 
ATOM     20  F   UNL     1      -0.871  12.591  23.229  0.00  0.00    +0.000 F 
ENDBRANCH  14  17
ENDBRANCH   5   7
BRANCH   3  21
ATOM     21  N   UNL     1       1.001  15.307  21.725  0.00  0.00    +0.000 N 
ATOM     22  C   UNL     1       1.629  16.306  22.563  0.00  0.00    +0.000 C 
ATOM     23  C   UNL     1       0.506  17.284  22.872  0.00  0.00    +0.000 C 
ATOM     24  O   UNL     1      -0.728  16.619  22.606  0.00  0.00    +0.000 OA
ATOM     25  C   UNL     1      -0.442  15.496  21.763  0.00  0.00    +0.000 C 
ENDBRANCH   3  21
BRANCH   1  26
ATOM     26  C   UNL     1       3.866  15.380  17.650  0.00  0.00    +0.000 C 
BRANCH  26  32
ATOM     27  C   UNL     1       6.892  14.510  17.813  0.00  0.00    +0.000 C 
ATOM     28  N   UNL     1       6.318  15.731  18.311  0.00  0.00    +0.000 N 
ATOM     29  C   UNL     1       7.015  16.743  18.898  0.00  0.00    +0.000 A 
ATOM     30  N   UNL     1       6.191  17.718  19.206  0.00  0.00    +0.000 NA
ATOM     31  N   UNL     1       4.936  17.338  18.804  0.00  0.00    +0.000 NA
ATOM     32  C   UNL     1       5.000  16.130  18.269  0.00  0.00    +0.000 A 
ENDBRANCH  26  32
ENDBRANCH   1  26
TORSDOF 5
ENDMDL
MODEL 5
REMARK VINA RESULT:      -6.9      1.990      2.815
REMARK  Name = 
REMARK  6 active torsions:
REMARK  status: ('A' for Active; 'I' for Inactive)
REMARK    1  A    between atoms: C_1  and  N_2
REMARK    2  A    between atoms: C_6  and  C_7
REMARK    3  A    between atoms: C_7  and  C_8
REMARK    4  A    between atoms: C_10  and  N_11
REMARK    5  A    between atoms: C_17  and  N_18
REMARK    6  A    between atoms: C_25  and  C_26
REMARK                            x       y       z     vdW  Elec       q    Type
REMARK                         _______ _______ _______ _____ _____    ______ ____
ROOT
ATOM      1  C   UNL     1      -5.629  12.178  18.731  0.00  0.00    +0.000 A 
ATOM      2  C   UNL     1      -5.261  11.771  17.433  0.00  0.00    +0.000 A 
ATOM      3  C   UNL     1      -3.979  11.284  17.134  0.00  0.00    +0.000 A 
ATOM      4  C   UNL     1      -3.094  11.184  18.208  0.00  0.00    +0.000 A 
ATOM      5  C   UNL     1      -3.315  11.945  19.361  0.00  0.00    +0.000 A 
ATOM      6  C   UNL     1      -4.631  12.242  19.710  0.00  0.00    +0.000 A 
ENDROOT
BRANCH   5   7
ATOM      7  N   UNL     1      -2.224  12.824  19.810  0.00  0.00    +0.000 N 
ATOM      8  C   UNL     1      -0.904  12.428  19.265  0.00  0.00    +0.000 C 
ATOM      9  C   UNL     1      -0.404  11.470  20.310  0.00  0.00    +0.000 A 
ATOM     10  C   UNL     1      -1.020  11.806  21.517  0.00  0.00    +0.000 A 
ATOM     11  C   UNL     1      -0.903  11.034  22.660  0.00  0.00    +0.000 A 
ATOM     12  C   UNL     1      -0.135   9.873  22.574  0.00  0.00    +0.000 A 
ATOM     13  C   UNL     1       0.502   9.529  21.369  0.00  0.00    +0.000 A 
ATOM     14  C   UNL     1       0.388  10.331  20.212  0.00  0.00    +0.000 A 
ATOM     15  C   UNL     1      -2.035  12.842  21.225  0.00  0.00    +0.000 C 
ATOM     16  O   UNL     1      -2.694  13.413  22.084  0.00  0.00    +0.000 OA
BRANCH  14  17
ATOM     17  C   UNL     1       1.052   9.889  18.935  0.00  0.00    +0.000 C 
ATOM     18  F   UNL     1       1.792   8.759  19.055  0.00  0.00    +0.000 F 
ATOM     19  F   UNL     1       0.148   9.636  17.950  0.00  0.00    +0.000 F 
ATOM     20  F   UNL     1       1.892  10.840  18.430  0.00  0.00    +0.000 F 
ENDBRANCH  14  17
ENDBRANCH   5   7
BRANCH   3  21
ATOM     21  N   UNL     1      -3.572  10.981  15.853  0.00  0.00    +0.000 N 
ATOM     22  C   UNL     1      -2.387  10.204  15.555  0.00  0.00    +0.000 C 
ATOM     23  C   UNL     1      -2.760   9.436  14.297  0.00  0.00    +0.000 C 
ATOM     24  O   UNL     1      -3.879  10.095  13.707  0.00  0.00    +0.000 OA
ATOM     25  C   UNL     1      -4.477  10.920  14.715  0.00  0.00    +0.000 C 
ENDBRANCH   3  21
BRANCH   1  26
ATOM     26  C   UNL     1      -7.064  12.560  19.037  0.00  0.00    +0.000 C 
BRANCH  26  32
ATOM     27  C   UNL     1      -7.796  10.141  20.920  0.00  0.00    +0.000 C 
ATOM     28  N   UNL     1      -7.723  11.529  21.289  0.00  0.00    +0.000 N 
ATOM     29  C   UNL     1      -7.915  12.018  22.546  0.00  0.00    +0.000 A 
ATOM     30  N   UNL     1      -7.746  13.319  22.537  0.00  0.00    +0.000 NA
ATOM     31  N   UNL     1      -7.429  13.685  21.254  0.00  0.00    +0.000 NA
ATOM     32  C   UNL     1      -7.423  12.607  20.486  0.00  0.00    +0.000 A 
ENDBRANCH  26  32
ENDBRANCH   1  26
TORSDOF 5
ENDMDL
MODEL 6
REMARK VINA RESULT:      -6.8      2.840      5.787
REMARK  Name = 
REMARK  6 active torsions:
REMARK  status: ('A' for Active; 'I' for Inactive)
REMARK    1  A    between atoms: C_1  and  N_2
REMARK    2  A    between atoms: C_6  and  C_7
REMARK    3  A    between atoms: C_7  and  C_8
REMARK    4  A    between atoms: C_10  and  N_11
REMARK    5  A    between atoms: C_17  and  N_18
REMARK    6  A    between atoms: C_25  and  C_26
REMARK                            x       y       z     vdW  Elec       q    Type
REMARK                         _______ _______ _______ _____ _____    ______ ____
ROOT
ATOM      1  C   UNL     1       1.361   9.804  18.028  0.00  0.00    +0.000 A 
ATOM      2  C   UNL     1      -0.046   9.728  18.044  0.00  0.00    +0.000 A 
ATOM      3  C   UNL     1      -0.856  10.846  18.297  0.00  0.00    +0.000 A 
ATOM      4  C   UNL     1      -0.189  12.056  18.492  0.00  0.00    +0.000 A 
ATOM      5  C   UNL     1       1.156  12.052  18.873  0.00  0.00    +0.000 A 
ATOM      6  C   UNL     1       1.961  11.002  18.433  0.00  0.00    +0.000 A 
ENDROOT
BRANCH   5   7
ATOM      7  N   UNL     1       1.515  12.781  20.100  0.00  0.00    +0.000 N 
ATOM      8  C   UNL     1       1.611  11.898  21.287  0.00  0.00    +0.000 C 
ATOM      9  C   UNL     1       0.206  11.929  21.820  0.00  0.00    +0.000 A 
ATOM     10  C   UNL     1      -0.372  13.131  21.410  0.00  0.00    +0.000 A 
ATOM     11  C   UNL     1      -1.713  13.422  21.598  0.00  0.00    +0.000 A 
ATOM     12  C   UNL     1      -2.498  12.453  22.222  0.00  0.00    +0.000 A 
ATOM     13  C   UNL     1      -1.926  11.243  22.653  0.00  0.00    +0.000 A 
ATOM     14  C   UNL     1      -0.554  10.962  22.469  0.00  0.00    +0.000 A 
ATOM     15  C   UNL     1       0.573  13.785  20.478  0.00  0.00    +0.000 C 
ATOM     16  O   UNL     1       0.402  14.900  20.004  0.00  0.00    +0.000 OA
BRANCH  14  17
ATOM     17  C   UNL     1      -0.005   9.630  22.906  0.00  0.00    +0.000 C 
ATOM     18  F   UNL     1       1.235   9.356  22.430  0.00  0.00    +0.000 F 
ATOM     19  F   UNL     1       0.092   9.537  24.260  0.00  0.00    +0.000 F 
ATOM     20  F   UNL     1      -0.798   8.588  22.521  0.00  0.00    +0.000 F 
ENDBRANCH  14  17
ENDBRANCH   5   7
BRANCH   3  21
ATOM     21  N   UNL     1      -2.227  10.768  18.420  0.00  0.00    +0.000 N 
ATOM     22  C   UNL     1      -3.067  11.906  18.722  0.00  0.00    +0.000 C 
ATOM     23  C   UNL     1      -4.354  11.623  17.963  0.00  0.00    +0.000 C 
ATOM     24  O   UNL     1      -4.375  10.229  17.657  0.00  0.00    +0.000 OA
ATOM     25  C   UNL     1      -3.033   9.740  17.778  0.00  0.00    +0.000 C 
ENDBRANCH   3  21
BRANCH   1  26
ATOM     26  C   UNL     1       2.189   8.606  17.609  0.00  0.00    +0.000 C 
BRANCH  26  32
ATOM     27  C   UNL     1       3.923   5.980  17.421  0.00  0.00    +0.000 C 
ATOM     28  N   UNL     1       3.119   6.404  18.535  0.00  0.00    +0.000 N 
ATOM     29  C   UNL     1       3.019   5.748  19.725  0.00  0.00    +0.000 A 
ATOM     30  N   UNL     1       2.229   6.422  20.528  0.00  0.00    +0.000 NA
ATOM     31  N   UNL     1       1.814   7.542  19.854  0.00  0.00    +0.000 NA
ATOM     32  C   UNL     1       2.340   7.535  18.639  0.00  0.00    +0.000 A 
ENDBRANCH  26  32
ENDBRANCH   1  26
TORSDOF 5
ENDMDL
MODEL 7
REMARK VINA RESULT:      -6.8      4.635      8.198
REMARK  Name = 
REMARK  6 active torsions:
REMARK  status: ('A' for Active; 'I' for Inactive)
REMARK    1  A    between atoms: C_1  and  N_2
REMARK    2  A    between atoms: C_6  and  C_7
REMARK    3  A    between atoms: C_7  and  C_8
REMARK    4  A    between atoms: C_10  and  N_11
REMARK    5  A    between atoms: C_17  and  N_18
REMARK    6  A    between atoms: C_25  and  C_26
REMARK                            x       y       z     vdW  Elec       q    Type
REMARK                         _______ _______ _______ _____ _____    ______ ____
ROOT
ATOM      1  C   UNL     1       2.731  14.683  18.542  0.00  0.00    +0.000 A 
ATOM      2  C   UNL     1       2.014  15.572  19.367  0.00  0.00    +0.000 A 
ATOM      3  C   UNL     1       1.141  15.126  20.373  0.00  0.00    +0.000 A 
ATOM      4  C   UNL     1       1.053  13.744  20.539  0.00  0.00    +0.000 A 
ATOM      5  C   UNL     1       1.426  12.894  19.492  0.00  0.00    +0.000 A 
ATOM      6  C   UNL     1       2.435  13.318  18.630  0.00  0.00    +0.000 A 
ENDROOT
BRANCH   5   7
ATOM      7  N   UNL     1       0.429  11.918  19.025  0.00  0.00    +0.000 N 
ATOM      8  C   UNL     1      -0.833  11.968  19.800  0.00  0.00    +0.000 C 
ATOM      9  C   UNL     1      -0.564  10.987  20.907  0.00  0.00    +0.000 A 
ATOM     10  C   UNL     1       0.382  10.074  20.438  0.00  0.00    +0.000 A 
ATOM     11  C   UNL     1       0.973   9.121  21.250  0.00  0.00    +0.000 A 
ATOM     12  C   UNL     1       0.591   9.096  22.591  0.00  0.00    +0.000 A 
ATOM     13  C   UNL     1      -0.372  10.000  23.075  0.00  0.00    +0.000 A 
ATOM     14  C   UNL     1      -0.978  10.959  22.234  0.00  0.00    +0.000 A 
ATOM     15  C   UNL     1       0.854  10.559  19.121  0.00  0.00    +0.000 C 
ATOM     16  O   UNL     1       1.627   9.939  18.404  0.00  0.00    +0.000 OA
BRANCH  14  17
ATOM     17  C   UNL     1      -1.967  11.935  22.816  0.00  0.00    +0.000 C 
ATOM     18  F   UNL     1      -2.760  11.413  23.784  0.00  0.00    +0.000 F 
ATOM     19  F   UNL     1      -1.353  13.009  23.381  0.00  0.00    +0.000 F 
ATOM     20  F   UNL     1      -2.809  12.446  21.871  0.00  0.00    +0.000 F 
ENDBRANCH  14  17
ENDBRANCH   5   7
BRANCH   3  21
ATOM     21  N   UNL     1       0.356  15.979  21.118  0.00  0.00    +0.000 N 
ATOM     22  C   UNL     1      -1.019  15.696  21.466  0.00  0.00    +0.000 C 
ATOM     23  C   UNL     1      -1.187  16.328  22.839  0.00  0.00    +0.000 C 
ATOM     24  O   UNL     1      -0.129  17.270  23.010  0.00  0.00    +0.000 OA
ATOM     25  C   UNL     1       0.894  16.950  22.058  0.00  0.00    +0.000 C 
ENDBRANCH   3  21
BRANCH   1  26
ATOM     26  C   UNL     1       3.768  15.208  17.569  0.00  0.00    +0.000 C 
BRANCH  26  32
ATOM     27  C   UNL     1       6.804  14.385  17.772  0.00  0.00    +0.000 C 
ATOM     28  N   UNL     1       6.210  15.609  18.238  0.00  0.00    +0.000 N 
ATOM     29  C   UNL     1       6.888  16.644  18.807  0.00  0.00    +0.000 A 
ATOM     30  N   UNL     1       6.049  17.614  19.086  0.00  0.00    +0.000 NA
ATOM     31  N   UNL     1       4.802  17.207  18.684  0.00  0.00    +0.000 NA
ATOM     32  C   UNL     1       4.886  15.988  18.178  0.00  0.00    +0.000 A 
ENDBRANCH  26  32
ENDBRANCH   1  26
TORSDOF 5
ENDMDL
MODEL 8
REMARK VINA RESULT:      -6.8      4.643      6.965
REMARK  Name = 
REMARK  6 active torsions:
REMARK  status: ('A' for Active; 'I' for Inactive)
REMARK    1  A    between atoms: C_1  and  N_2
REMARK    2  A    between atoms: C_6  and  C_7
REMARK    3  A    between atoms: C_7  and  C_8
REMARK    4  A    between atoms: C_10  and  N_11
REMARK    5  A    between atoms: C_17  and  N_18
REMARK    6  A    between atoms: C_25  and  C_26
REMARK                            x       y       z     vdW  Elec       q    Type
REMARK                         _______ _______ _______ _____ _____    ______ ____
ROOT
ATOM      1  C   UNL     1       0.826  10.529  18.284  0.00  0.00    +0.000 A 
ATOM      2  C   UNL     1      -0.555  10.317  18.102  0.00  0.00    +0.000 A 
ATOM      3  C   UNL     1      -1.488  11.365  18.147  0.00  0.00    +0.000 A 
ATOM      4  C   UNL     1      -0.966  12.643  18.342  0.00  0.00    +0.000 A 
ATOM      5  C   UNL     1       0.301  12.795  18.913  0.00  0.00    +0.000 A 
ATOM      6  C   UNL     1       1.251  11.803  18.678  0.00  0.00    +0.000 A 
ENDROOT
BRANCH   5   7
ATOM      7  N   UNL     1       0.405  13.633  20.119  0.00  0.00    +0.000 N 
ATOM      8  C   UNL     1      -0.059  15.023  19.894  0.00  0.00    +0.000 C 
ATOM      9  C   UNL     1       1.202  15.710  19.452  0.00  0.00    +0.000 A 
ATOM     10  C   UNL     1       2.278  15.002  19.990  0.00  0.00    +0.000 A 
ATOM     11  C   UNL     1       3.595  15.270  19.660  0.00  0.00    +0.000 A 
ATOM     12  C   UNL     1       3.830  16.295  18.744  0.00  0.00    +0.000 A 
ATOM     13  C   UNL     1       2.758  17.026  18.203  0.00  0.00    +0.000 A 
ATOM     14  C   UNL     1       1.419  16.753  18.557  0.00  0.00    +0.000 A 
ATOM     15  C   UNL     1       1.734  13.776  20.617  0.00  0.00    +0.000 C 
ATOM     16  O   UNL     1       2.409  12.979  21.255  0.00  0.00    +0.000 OA
BRANCH  14  17
ATOM     17  C   UNL     1       0.306  17.536  17.911  0.00  0.00    +0.000 C 
ATOM     18  F   UNL     1      -0.725  16.775  17.469  0.00  0.00    +0.000 F 
ATOM     19  F   UNL     1      -0.244  18.442  18.765  0.00  0.00    +0.000 F 
ATOM     20  F   UNL     1       0.735  18.257  16.835  0.00  0.00    +0.000 F 
ENDBRANCH  14  17
ENDBRANCH   5   7
BRANCH   3  21
ATOM     21  N   UNL     1      -2.849  11.161  18.075  0.00  0.00    +0.000 N 
ATOM     22  C   UNL     1      -3.804  11.841  18.923  0.00  0.00    +0.000 C 
ATOM     23  C   UNL     1      -5.026  12.012  18.036  0.00  0.00    +0.000 C 
ATOM     24  O   UNL     1      -4.904  11.089  16.954  0.00  0.00    +0.000 OA
ATOM     25  C   UNL     1      -3.529  10.693  16.876  0.00  0.00    +0.000 C 
ENDBRANCH   3  21
BRANCH   1  26
ATOM     26  C   UNL     1       1.809   9.392  18.085  0.00  0.00    +0.000 C 
BRANCH  26  32
ATOM     27  C   UNL     1       3.106   6.522  17.956  0.00  0.00    +0.000 C 
ATOM     28  N   UNL     1       2.386   7.093  19.061  0.00  0.00    +0.000 N 
ATOM     29  C   UNL     1       2.190   6.490  20.267  0.00  0.00    +0.000 A 
ATOM     30  N   UNL     1       1.521   7.298  21.055  0.00  0.00    +0.000 NA
ATOM     31  N   UNL     1       1.284   8.453  20.355  0.00  0.00    +0.000 NA
ATOM     32  C   UNL     1       1.795   8.336  19.140  0.00  0.00    +0.000 A 
ENDBRANCH  26  32
ENDBRANCH   1  26
TORSDOF 5
ENDMDL
MODEL 9
REMARK VINA RESULT:      -6.7      4.918      7.732
REMARK  Name = 
REMARK  6 active torsions:
REMARK  status: ('A' for Active; 'I' for Inactive)
REMARK    1  A    between atoms: C_1  and  N_2
REMARK    2  A    between atoms: C_6  and  C_7
REMARK    3  A    between atoms: C_7  and  C_8
REMARK    4  A    between atoms: C_10  and  N_11
REMARK    5  A    between atoms: C_17  and  N_18
REMARK    6  A    between atoms: C_25  and  C_26
REMARK                            x       y       z     vdW  Elec       q    Type
REMARK                         _______ _______ _______ _____ _____    ______ ____
ROOT
ATOM      1  C   UNL     1       0.234  11.076  20.674  0.00  0.00    +0.000 A 
ATOM      2  C   UNL     1      -1.119  11.327  20.975  0.00  0.00    +0.000 A 
ATOM      3  C   UNL     1      -1.692  12.603  20.853  0.00  0.00    +0.000 A 
ATOM      4  C   UNL     1      -0.852  13.609  20.375  0.00  0.00    +0.000 A 
ATOM      5  C   UNL     1       0.534  13.458  20.470  0.00  0.00    +0.000 A 
ATOM      6  C   UNL     1       1.062  12.170  20.398  0.00  0.00    +0.000 A 
ENDROOT
BRANCH   5   7
ATOM      7  N   UNL     1       1.284  14.516  21.167  0.00  0.00    +0.000 N 
ATOM      8  C   UNL     1       1.011  15.868  20.623  0.00  0.00    +0.000 C 
ATOM      9  C   UNL     1       2.057  15.996  19.552  0.00  0.00    +0.000 A 
ATOM     10  C   UNL     1       3.123  15.166  19.903  0.00  0.00    +0.000 A 
ATOM     11  C   UNL     1       4.195  14.924  19.063  0.00  0.00    +0.000 A 
ATOM     12  C   UNL     1       4.184  15.545  17.814  0.00  0.00    +0.000 A 
ATOM     13  C   UNL     1       3.124  16.394  17.451  0.00  0.00    +0.000 A 
ATOM     14  C   UNL     1       2.041  16.645  18.322  0.00  0.00    +0.000 A 
ATOM     15  C   UNL     1       2.702  14.377  21.083  0.00  0.00    +0.000 C 
ATOM     16  O   UNL     1       3.440  13.614  21.692  0.00  0.00    +0.000 OA
BRANCH  14  17
ATOM     17  C   UNL     1       0.909  17.525  17.863  0.00  0.00    +0.000 C 
ATOM     18  F   UNL     1      -0.286  16.890  17.767  0.00  0.00    +0.000 F 
ATOM     19  F   UNL     1       0.703  18.573  18.706  0.00  0.00    +0.000 F 
ATOM     20  F   UNL     1       1.144  18.078  16.637  0.00  0.00    +0.000 F 
ENDBRANCH  14  17
ENDBRANCH   5   7
BRANCH   3  21
ATOM     21  N   UNL     1      -2.984  12.886  21.241  0.00  0.00    +0.000 N 
ATOM     22  C   UNL     1      -4.092  12.981  20.316  0.00  0.00    +0.000 C 
ATOM     23  C   UNL     1      -5.279  12.459  21.111  0.00  0.00    +0.000 C 
ATOM     24  O   UNL     1      -4.928  12.515  22.493  0.00  0.00    +0.000 OA
ATOM     25  C   UNL     1      -3.501  12.612  22.574  0.00  0.00    +0.000 C 
ENDBRANCH   3  21
BRANCH   1  26
ATOM     26  C   UNL     1       0.771   9.658  20.681  0.00  0.00    +0.000 C 
BRANCH  26  32
ATOM     27  C   UNL     1       2.219   6.914  20.125  0.00  0.00    +0.000 C 
ATOM     28  N   UNL     1       2.028   7.993  19.193  0.00  0.00    +0.000 N 
ATOM     29  C   UNL     1       2.408   7.976  17.885  0.00  0.00    +0.000 A 
ATOM     30  N   UNL     1       2.058   9.105  17.315  0.00  0.00    +0.000 NA
ATOM     31  N   UNL     1       1.429   9.868  18.266  0.00  0.00    +0.000 NA
ATOM     32  C   UNL     1       1.416   9.207  19.412  0.00  0.00    +0.000 A 
ENDBRANCH  26  32
ENDBRANCH   1  26
TORSDOF 5
ENDMDL
