MODEL 1
REMARK VINA RESULT:      -8.5      0.000      0.000
REMARK  Name = 
REMARK  6 active torsions:
REMARK  status: ('A' for Active; 'I' for Inactive)
REMARK    1  A    between atoms: C_2  and  C_3
REMARK    2  A    between atoms: C_3  and  N_4
REMARK    3  A    between atoms: C_7  and  C_8
REMARK    4  A    between atoms: N_15  and  C_16
REMARK    5  A    between atoms: C_20  and  S_21
REMARK    6  A    between atoms: S_21  and  N_24
REMARK                            x       y       z     vdW  Elec       q    Type
REMARK                         _______ _______ _______ _____ _____    ______ ____
ROOT
ATOM      1  O   UNL     1       1.649   8.534  17.773  0.00  0.00    +0.000 OA
ATOM      2  C   UNL     1       1.865   8.286  18.959  0.00  0.00    +0.000 C 
ATOM      3  N   UNL     1       2.453   7.121  19.447  0.00  0.00    +0.000 N 
ATOM      4  H   UNL     1       2.440   6.968  20.452  0.00  0.00    +0.000 HD
ENDROOT
BRANCH   3   5
ATOM      5  C   UNL     1       2.941   6.055  18.648  0.00  0.00    +0.000 A 
ATOM      6  C   UNL     1       2.521   4.735  18.839  0.00  0.00    +0.000 A 
ATOM      7  C   UNL     1       3.128   3.677  18.159  0.00  0.00    +0.000 A 
ATOM      8  C   UNL     1       4.126   3.937  17.232  0.00  0.00    +0.000 A 
ATOM      9  C   UNL     1       4.455   5.258  16.928  0.00  0.00    +0.000 A 
ATOM     10  C   UNL     1       3.890   6.325  17.651  0.00  0.00    +0.000 A 
BRANCH   9  11
ATOM     11  S   UNL     1       5.678   5.552  15.662  0.00  0.00    +0.000 S 
ATOM     12  O   UNL     1       5.746   4.356  14.847  0.00  0.00    +0.000 OA
ATOM     13  O   UNL     1       5.385   6.838  15.074  0.00  0.00    +0.000 OA
BRANCH  11  14
ATOM     14  N   UNL     1       7.132   5.687  16.517  0.00  0.00    +0.000 NA
ATOM     15  C   UNL     1       7.519   4.622  17.458  0.00  0.00    +0.000 C 
ATOM     16  C   UNL     1       7.364   5.266  18.823  0.00  0.00    +0.000 C 
ATOM     17  C   UNL     1       7.768   6.713  18.592  0.00  0.00    +0.000 C 
ATOM     18  C   UNL     1       7.507   6.988  17.113  0.00  0.00    +0.000 C 
ENDBRANCH  11  14
ENDBRANCH   9  11
ENDBRANCH   3   5
BRANCH   2  19
ATOM     19  C   UNL     1       1.375   9.248  20.005  0.00  0.00    +0.000 C 
BRANCH  19  20
ATOM     20  N   UNL     1       0.462  10.199  19.434  0.00  0.00    +0.000 N 
ATOM     21  N   UNL     1       0.871  11.389  18.978  0.00  0.00    +0.000 NA
ATOM     22  N   UNL     1      -0.213  11.935  18.451  0.00  0.00    +0.000 NA
ATOM     23  C   UNL     1      -1.239  11.030  18.609  0.00  0.00    +0.000 A 
ATOM     24  N   UNL     1      -0.843   9.912  19.250  0.00  0.00    +0.000 NA
BRANCH  23  25
ATOM     25  C   UNL     1      -2.582  11.279  18.108  0.00  0.00    +0.000 A 
ATOM     26  C   UNL     1      -3.575  11.763  18.975  0.00  0.00    +0.000 A 
ATOM     27  C   UNL     1      -4.863  12.026  18.507  0.00  0.00    +0.000 A 
ATOM     28  C   UNL     1      -5.174  11.806  17.168  0.00  0.00    +0.000 A 
ATOM     29  C   UNL     1      -4.201  11.322  16.296  0.00  0.00    +0.000 A 
ATOM     30  C   UNL     1      -2.909  11.060  16.762  0.00  0.00    +0.000 A 
ENDBRANCH  23  25
ENDBRANCH  19  20
ENDBRANCH   2  19
TORSDOF 6
ENDMDL
MODEL 2
REMARK VINA RESULT:      -8.4      1.075      1.108
REMARK  Name = 
REMARK  6 active torsions:
REMARK  status: ('A' for Active; 'I' for Inactive)
REMARK    1  A    between atoms: C_2  and  C_3
REMARK    2  A    between atoms: C_3  and  N_4
REMARK    3  A    between atoms: C_7  and  C_8
REMARK    4  A    between atoms: N_15  and  C_16
REMARK    5  A    between atoms: C_20  and  S_21
REMARK    6  A    between atoms: S_21  and  N_24
REMARK                            x       y       z     vdW  Elec       q    Type
REMARK                         _______ _______ _______ _____ _____    ______ ____
ROOT
ATOM      1  O   UNL     1       1.473   6.126  20.873  0.00  0.00    +0.000 OA
ATOM      2  C   UNL     1       1.833   7.147  20.288  0.00  0.00    +0.000 C 
ATOM      3  N   UNL     1       2.577   7.185  19.111  0.00  0.00    +0.000 N 
ATOM      4  H   UNL     1       2.940   8.085  18.808  0.00  0.00    +0.000 HD
ENDROOT
BRANCH   3   5
ATOM      5  C   UNL     1       2.998   6.049  18.373  0.00  0.00    +0.000 A 
ATOM      6  C   UNL     1       2.421   4.789  18.561  0.00  0.00    +0.000 A 
ATOM      7  C   UNL     1       2.954   3.651  17.950  0.00  0.00    +0.000 A 
ATOM      8  C   UNL     1       4.037   3.773  17.093  0.00  0.00    +0.000 A 
ATOM      9  C   UNL     1       4.530   5.040  16.786  0.00  0.00    +0.000 A 
ATOM     10  C   UNL     1       4.039   6.184  17.443  0.00  0.00    +0.000 A 
BRANCH   9  11
ATOM     11  S   UNL     1       5.865   5.162  15.606  0.00  0.00    +0.000 S 
ATOM     12  O   UNL     1       6.009   3.859  14.988  0.00  0.00    +0.000 OA
ATOM     13  O   UNL     1       5.626   6.341  14.809  0.00  0.00    +0.000 OA
BRANCH  11  14
ATOM     14  N   UNL     1       7.234   5.444  16.560  0.00  0.00    +0.000 NA
ATOM     15  C   UNL     1       7.491   4.583  17.727  0.00  0.00    +0.000 C 
ATOM     16  C   UNL     1       7.229   5.489  18.915  0.00  0.00    +0.000 C 
ATOM     17  C   UNL     1       7.702   6.855  18.445  0.00  0.00    +0.000 C 
ATOM     18  C   UNL     1       7.595   6.832  16.922  0.00  0.00    +0.000 C 
ENDBRANCH  11  14
ENDBRANCH   9  11
ENDBRANCH   3   5
BRANCH   2  19
ATOM     19  C   UNL     1       1.554   8.483  20.919  0.00  0.00    +0.000 C 
BRANCH  19  20
ATOM     20  N   UNL     1       0.827   9.331  20.015  0.00  0.00    +0.000 N 
ATOM     21  N   UNL     1       1.425   9.956  18.993  0.00  0.00    +0.000 NA
ATOM     22  N   UNL     1       0.439  10.552  18.344  0.00  0.00    +0.000 NA
ATOM     23  C   UNL     1      -0.727  10.245  19.010  0.00  0.00    +0.000 A 
ATOM     24  N   UNL     1      -0.512   9.477  20.095  0.00  0.00    +0.000 NA
BRANCH  23  25
ATOM     25  C   UNL     1      -2.030  10.703  18.550  0.00  0.00    +0.000 A 
ATOM     26  C   UNL     1      -2.690  11.738  19.232  0.00  0.00    +0.000 A 
ATOM     27  C   UNL     1      -3.931  12.201  18.793  0.00  0.00    +0.000 A 
ATOM     28  C   UNL     1      -4.528  11.634  17.671  0.00  0.00    +0.000 A 
ATOM     29  C   UNL     1      -3.888  10.603  16.986  0.00  0.00    +0.000 A 
ATOM     30  C   UNL     1      -2.643  10.138  17.422  0.00  0.00    +0.000 A 
ENDBRANCH  23  25
ENDBRANCH  19  20
ENDBRANCH   2  19
TORSDOF 6
ENDMDL
MODEL 3
REMARK VINA RESULT:      -8.3      2.325      3.711
REMARK  Name = 
REMARK  6 active torsions:
REMARK  status: ('A' for Active; 'I' for Inactive)
REMARK    1  A    between atoms: C_2  and  C_3
REMARK    2  A    between atoms: C_3  and  N_4
REMARK    3  A    between atoms: C_7  and  C_8
REMARK    4  A    between atoms: N_15  and  C_16
REMARK    5  A    between atoms: C_20  and  S_21
REMARK    6  A    between atoms: S_21  and  N_24
REMARK                            x       y       z     vdW  Elec       q    Type
REMARK                         _______ _______ _______ _____ _____    ______ ____
ROOT
ATOM      1  O   UNL     1       1.905   7.585  19.144  0.00  0.00    +0.000 OA
ATOM      2  C   UNL     1       2.514   8.044  18.179  0.00  0.00    +0.000 C 
ATOM      3  N   UNL     1       3.616   7.454  17.563  0.00  0.00    +0.000 N 
ATOM      4  H   UNL     1       4.123   8.002  16.873  0.00  0.00    +0.000 HD
ENDROOT
BRANCH   3   5
ATOM      5  C   UNL     1       4.181   6.204  17.924  0.00  0.00    +0.000 A 
ATOM      6  C   UNL     1       5.531   6.074  18.266  0.00  0.00    +0.000 A 
ATOM      7  C   UNL     1       6.110   4.818  18.459  0.00  0.00    +0.000 A 
ATOM      8  C   UNL     1       5.327   3.677  18.370  0.00  0.00    +0.000 A 
ATOM      9  C   UNL     1       3.952   3.802  18.171  0.00  0.00    +0.000 A 
ATOM     10  C   UNL     1       3.372   5.059  17.916  0.00  0.00    +0.000 A 
BRANCH   9  11
ATOM     11  S   UNL     1       2.965   2.315  18.156  0.00  0.00    +0.000 S 
ATOM     12  O   UNL     1       1.976   2.469  17.107  0.00  0.00    +0.000 OA
ATOM     13  O   UNL     1       3.875   1.195  18.161  0.00  0.00    +0.000 OA
BRANCH  11  14
ATOM     14  N   UNL     1       2.158   2.340  19.643  0.00  0.00    +0.000 NA
ATOM     15  C   UNL     1       0.829   2.969  19.734  0.00  0.00    +0.000 C 
ATOM     16  C   UNL     1       1.075   4.231  20.538  0.00  0.00    +0.000 C 
ATOM     17  C   UNL     1       2.159   3.831  21.525  0.00  0.00    +0.000 C 
ATOM     18  C   UNL     1       2.910   2.673  20.873  0.00  0.00    +0.000 C 
ENDBRANCH  11  14
ENDBRANCH   9  11
ENDBRANCH   3   5
BRANCH   2  19
ATOM     19  C   UNL     1       2.132   9.401  17.655  0.00  0.00    +0.000 C 
BRANCH  19  20
ATOM     20  N   UNL     1       0.981   9.909  18.348  0.00  0.00    +0.000 N 
ATOM     21  N   UNL     1       1.066  10.428  19.579  0.00  0.00    +0.000 NA
ATOM     22  N   UNL     1      -0.154  10.867  19.841  0.00  0.00    +0.000 NA
ATOM     23  C   UNL     1      -0.927  10.596  18.733  0.00  0.00    +0.000 A 
ATOM     24  N   UNL     1      -0.233   9.968  17.764  0.00  0.00    +0.000 NA
BRANCH  23  25
ATOM     25  C   UNL     1      -2.329  10.980  18.649  0.00  0.00    +0.000 A 
ATOM     26  C   UNL     1      -2.820  12.020  19.455  0.00  0.00    +0.000 A 
ATOM     27  C   UNL     1      -4.156  12.413  19.374  0.00  0.00    +0.000 A 
ATOM     28  C   UNL     1      -5.017  11.770  18.488  0.00  0.00    +0.000 A 
ATOM     29  C   UNL     1      -4.546  10.734  17.685  0.00  0.00    +0.000 A 
ATOM     30  C   UNL     1      -3.207  10.339  17.763  0.00  0.00    +0.000 A 
ENDBRANCH  23  25
ENDBRANCH  19  20
ENDBRANCH   2  19
TORSDOF 6
ENDMDL
MODEL 4
REMARK VINA RESULT:      -8.1      2.046      2.528
REMARK  Name = 
REMARK  6 active torsions:
REMARK  status: ('A' for Active; 'I' for Inactive)
REMARK    1  A    between atoms: C_2  and  C_3
REMARK    2  A    between atoms: C_3  and  N_4
REMARK    3  A    between atoms: C_7  and  C_8
REMARK    4  A    between atoms: N_15  and  C_16
REMARK    5  A    between atoms: C_20  and  S_21
REMARK    6  A    between atoms: S_21  and  N_24
REMARK                            x       y       z     vdW  Elec       q    Type
REMARK                         _______ _______ _______ _____ _____    ______ ____
ROOT
ATOM      1  O   UNL     1       0.626   8.119  22.182  0.00  0.00    +0.000 OA
ATOM      2  C   UNL     1       1.117   8.669  21.197  0.00  0.00    +0.000 C 
ATOM      3  N   UNL     1       1.792   8.024  20.163  0.00  0.00    +0.000 N 
ATOM      4  H   UNL     1       2.281   8.601  19.484  0.00  0.00    +0.000 HD
ENDROOT
BRANCH   3   5
ATOM      5  C   UNL     1       1.979   6.622  20.058  0.00  0.00    +0.000 A 
ATOM      6  C   UNL     1       1.114   5.712  20.674  0.00  0.00    +0.000 A 
ATOM      7  C   UNL     1       1.401   4.345  20.700  0.00  0.00    +0.000 A 
ATOM      8  C   UNL     1       2.532   3.866  20.056  0.00  0.00    +0.000 A 
ATOM      9  C   UNL     1       3.325   4.744  19.318  0.00  0.00    +0.000 A 
ATOM     10  C   UNL     1       3.076   6.130  19.336  0.00  0.00    +0.000 A 
BRANCH   9  11
ATOM     11  S   UNL     1       4.719   4.074  18.426  0.00  0.00    +0.000 S 
ATOM     12  O   UNL     1       5.786   3.876  19.387  0.00  0.00    +0.000 OA
ATOM     13  O   UNL     1       4.228   2.980  17.624  0.00  0.00    +0.000 OA
BRANCH  11  14
ATOM     14  N   UNL     1       5.179   5.323  17.382  0.00  0.00    +0.000 NA
ATOM     15  C   UNL     1       5.312   5.049  15.941  0.00  0.00    +0.000 C 
ATOM     16  C   UNL     1       6.806   5.114  15.691  0.00  0.00    +0.000 C 
ATOM     17  C   UNL     1       7.289   6.198  16.641  0.00  0.00    +0.000 C 
ATOM     18  C   UNL     1       6.271   6.238  17.779  0.00  0.00    +0.000 C 
ENDBRANCH  11  14
ENDBRANCH   9  11
ENDBRANCH   3   5
BRANCH   2  19
ATOM     19  C   UNL     1       1.097  10.170  21.117  0.00  0.00    +0.000 C 
BRANCH  19  20
ATOM     20  N   UNL     1      -0.081  10.628  20.435  0.00  0.00    +0.000 N 
ATOM     21  N   UNL     1      -0.772  11.697  20.850  0.00  0.00    +0.000 NA
ATOM     22  N   UNL     1      -1.713  11.863  19.935  0.00  0.00    +0.000 NA
ATOM     23  C   UNL     1      -1.536  10.875  18.991  0.00  0.00    +0.000 A 
ATOM     24  N   UNL     1      -0.508  10.057  19.289  0.00  0.00    +0.000 NA
BRANCH  23  25
ATOM     25  C   UNL     1      -2.375  10.772  17.806  0.00  0.00    +0.000 A 
ATOM     26  C   UNL     1      -3.558  11.524  17.717  0.00  0.00    +0.000 A 
ATOM     27  C   UNL     1      -4.364  11.452  16.580  0.00  0.00    +0.000 A 
ATOM     28  C   UNL     1      -3.998  10.627  15.520  0.00  0.00    +0.000 A 
ATOM     29  C   UNL     1      -2.830   9.871  15.595  0.00  0.00    +0.000 A 
ATOM     30  C   UNL     1      -2.019   9.943  16.732  0.00  0.00    +0.000 A 
ENDBRANCH  23  25
ENDBRANCH  19  20
ENDBRANCH   2  19
TORSDOF 6
ENDMDL
MODEL 5
REMARK VINA RESULT:      -8.1      5.006      8.486
REMARK  Name = 
REMARK  6 active torsions:
REMARK  status: ('A' for Active; 'I' for Inactive)
REMARK    1  A    between atoms: C_2  and  C_3
REMARK    2  A    between atoms: C_3  and  N_4
REMARK    3  A    between atoms: C_7  and  C_8
REMARK    4  A    between atoms: N_15  and  C_16
REMARK    5  A    between atoms: C_20  and  S_21
REMARK    6  A    between atoms: S_21  and  N_24
REMARK                            x       y       z     vdW  Elec       q    Type
REMARK                         _______ _______ _______ _____ _____    ______ ____
ROOT
ATOM      1  O   UNL     1       4.791   4.860  16.703  0.00  0.00    +0.000 OA
ATOM      2  C   UNL     1       5.306   5.856  17.211  0.00  0.00    +0.000 C 
ATOM      3  N   UNL     1       4.839   6.518  18.344  0.00  0.00    +0.000 N 
ATOM      4  H   UNL     1       5.261   7.413  18.578  0.00  0.00    +0.000 HD
ENDROOT
BRANCH   3   5
ATOM      5  C   UNL     1       3.720   6.120  19.120  0.00  0.00    +0.000 A 
ATOM      6  C   UNL     1       2.698   7.013  19.457  0.00  0.00    +0.000 A 
ATOM      7  C   UNL     1       1.690   6.654  20.355  0.00  0.00    +0.000 A 
ATOM      8  C   UNL     1       1.661   5.371  20.880  0.00  0.00    +0.000 A 
ATOM      9  C   UNL     1       2.591   4.428  20.442  0.00  0.00    +0.000 A 
ATOM     10  C   UNL     1       3.644   4.799  19.585  0.00  0.00    +0.000 A 
BRANCH   9  11
ATOM     11  S   UNL     1       2.462   2.762  21.071  0.00  0.00    +0.000 S 
ATOM     12  O   UNL     1       3.764   2.404  21.599  0.00  0.00    +0.000 OA
ATOM     13  O   UNL     1       1.282   2.707  21.900  0.00  0.00    +0.000 OA
BRANCH  11  14
ATOM     14  N   UNL     1       2.179   1.822  19.693  0.00  0.00    +0.000 NA
ATOM     15  C   UNL     1       3.307   1.136  19.040  0.00  0.00    +0.000 C 
ATOM     16  C   UNL     1       3.493   1.892  17.739  0.00  0.00    +0.000 C 
ATOM     17  C   UNL     1       2.080   2.284  17.339  0.00  0.00    +0.000 C 
ATOM     18  C   UNL     1       1.277   2.332  18.637  0.00  0.00    +0.000 C 
ENDBRANCH  11  14
ENDBRANCH   9  11
ENDBRANCH   3   5
BRANCH   2  19
ATOM     19  C   UNL     1       6.477   6.500  16.523  0.00  0.00    +0.000 C 
BRANCH  19  20
ATOM     20  N   UNL     1       7.275   7.239  17.462  0.00  0.00    +0.000 N 
ATOM     21  N   UNL     1       7.932   6.639  18.462  0.00  0.00    +0.000 NA
ATOM     22  N   UNL     1       8.617   7.612  19.042  0.00  0.00    +0.000 NA
ATOM     23  C   UNL     1       8.342   8.769  18.347  0.00  0.00    +0.000 A 
ATOM     24  N   UNL     1       7.473   8.568  17.337  0.00  0.00    +0.000 NA
BRANCH  23  25
ATOM     25  C   UNL     1       8.958  10.044  18.684  0.00  0.00    +0.000 A 
ATOM     26  C   UNL     1       9.325  10.316  20.012  0.00  0.00    +0.000 A 
ATOM     27  C   UNL     1       9.933  11.526  20.349  0.00  0.00    +0.000 A 
ATOM     28  C   UNL     1      10.181  12.478  19.364  0.00  0.00    +0.000 A 
ATOM     29  C   UNL     1       9.820  12.224  18.042  0.00  0.00    +0.000 A 
ATOM     30  C   UNL     1       9.211  11.012  17.702  0.00  0.00    +0.000 A 
ENDBRANCH  23  25
ENDBRANCH  19  20
ENDBRANCH   2  19
TORSDOF 6
ENDMDL
MODEL 6
REMARK VINA RESULT:      -8.0      3.747      5.152
REMARK  Name = 
REMARK  6 active torsions:
REMARK  status: ('A' for Active; 'I' for Inactive)
REMARK    1  A    between atoms: C_2  and  C_3
REMARK    2  A    between atoms: C_3  and  N_4
REMARK    3  A    between atoms: C_7  and  C_8
REMARK    4  A    between atoms: N_15  and  C_16
REMARK    5  A    between atoms: C_20  and  S_21
REMARK    6  A    between atoms: S_21  and  N_24
REMARK                            x       y       z     vdW  Elec       q    Type
REMARK                         _______ _______ _______ _____ _____    ______ ____
ROOT
ATOM      1  O   UNL     1      -0.910   8.170  21.883  0.00  0.00    +0.000 OA
ATOM      2  C   UNL     1      -0.295   9.222  22.052  0.00  0.00    +0.000 C 
ATOM      3  N   UNL     1       0.820   9.633  21.323  0.00  0.00    +0.000 N 
ATOM      4  H   UNL     1       1.329  10.448  21.655  0.00  0.00    +0.000 HD
ENDROOT
BRANCH   3   5
ATOM      5  C   UNL     1       1.394   8.922  20.239  0.00  0.00    +0.000 A 
ATOM      6  C   UNL     1       1.373   9.422  18.933  0.00  0.00    +0.000 A 
ATOM      7  C   UNL     1       1.794   8.641  17.853  0.00  0.00    +0.000 A 
ATOM      8  C   UNL     1       2.300   7.370  18.078  0.00  0.00    +0.000 A 
ATOM      9  C   UNL     1       2.459   6.916  19.386  0.00  0.00    +0.000 A 
ATOM     10  C   UNL     1       1.982   7.671  20.475  0.00  0.00    +0.000 A 
BRANCH   9  11
ATOM     11  S   UNL     1       3.200   5.311  19.637  0.00  0.00    +0.000 S 
ATOM     12  O   UNL     1       4.634   5.479  19.515  0.00  0.00    +0.000 OA
ATOM     13  O   UNL     1       2.615   4.751  20.832  0.00  0.00    +0.000 OA
BRANCH  11  14
ATOM     14  N   UNL     1       2.665   4.399  18.316  0.00  0.00    +0.000 NA
ATOM     15  C   UNL     1       1.294   3.859  18.318  0.00  0.00    +0.000 C 
ATOM     16  C   UNL     1       1.488   2.365  18.491  0.00  0.00    +0.000 C 
ATOM     17  C   UNL     1       2.772   2.072  17.731  0.00  0.00    +0.000 C 
ATOM     18  C   UNL     1       3.560   3.381  17.725  0.00  0.00    +0.000 C 
ENDBRANCH  11  14
ENDBRANCH   9  11
ENDBRANCH   3   5
BRANCH   2  19
ATOM     19  C   UNL     1      -0.685  10.118  23.194  0.00  0.00    +0.000 C 
BRANCH  19  20
ATOM     20  N   UNL     1      -1.503  11.205  22.733  0.00  0.00    +0.000 N 
ATOM     21  N   UNL     1      -1.253  11.842  21.582  0.00  0.00    +0.000 NA
ATOM     22  N   UNL     1      -2.254  12.698  21.451  0.00  0.00    +0.000 NA
ATOM     23  C   UNL     1      -3.077  12.527  22.541  0.00  0.00    +0.000 A 
ATOM     24  N   UNL     1      -2.617  11.588  23.391  0.00  0.00    +0.000 NA
BRANCH  23  25
ATOM     25  C   UNL     1      -4.310  13.281  22.712  0.00  0.00    +0.000 A 
ATOM     26  C   UNL     1      -5.473  12.886  22.030  0.00  0.00    +0.000 A 
ATOM     27  C   UNL     1      -6.668  13.586  22.195  0.00  0.00    +0.000 A 
ATOM     28  C   UNL     1      -6.716  14.690  23.043  0.00  0.00    +0.000 A 
ATOM     29  C   UNL     1      -5.570  15.097  23.723  0.00  0.00    +0.000 A 
ATOM     30  C   UNL     1      -4.371  14.396  23.560  0.00  0.00    +0.000 A 
ENDBRANCH  23  25
ENDBRANCH  19  20
ENDBRANCH   2  19
TORSDOF 6
ENDMDL
MODEL 7
REMARK VINA RESULT:      -8.0      3.983      5.273
REMARK  Name = 
REMARK  6 active torsions:
REMARK  status: ('A' for Active; 'I' for Inactive)
REMARK    1  A    between atoms: C_2  and  C_3
REMARK    2  A    between atoms: C_3  and  N_4
REMARK    3  A    between atoms: C_7  and  C_8
REMARK    4  A    between atoms: N_15  and  C_16
REMARK    5  A    between atoms: C_20  and  S_21
REMARK    6  A    between atoms: S_21  and  N_24
REMARK                            x       y       z     vdW  Elec       q    Type
REMARK                         _______ _______ _______ _____ _____    ______ ____
ROOT
ATOM      1  O   UNL     1      -0.898   8.092  21.691  0.00  0.00    +0.000 OA
ATOM      2  C   UNL     1      -0.202   9.047  22.037  0.00  0.00    +0.000 C 
ATOM      3  N   UNL     1       0.918   9.519  21.356  0.00  0.00    +0.000 N 
ATOM      4  H   UNL     1       1.495  10.217  21.819  0.00  0.00    +0.000 HD
ENDROOT
BRANCH   3   5
ATOM      5  C   UNL     1       1.408   9.001  20.130  0.00  0.00    +0.000 A 
ATOM      6  C   UNL     1       1.337   9.729  18.938  0.00  0.00    +0.000 A 
ATOM      7  C   UNL     1       1.671   9.145  17.713  0.00  0.00    +0.000 A 
ATOM      8  C   UNL     1       2.139   7.841  17.677  0.00  0.00    +0.000 A 
ATOM      9  C   UNL     1       2.350   7.153  18.871  0.00  0.00    +0.000 A 
ATOM     10  C   UNL     1       1.960   7.711  20.103  0.00  0.00    +0.000 A 
BRANCH   9  11
ATOM     11  S   UNL     1       3.042   5.509  18.787  0.00  0.00    +0.000 S 
ATOM     12  O   UNL     1       3.565   5.335  17.446  0.00  0.00    +0.000 OA
ATOM     13  O   UNL     1       3.887   5.340  19.944  0.00  0.00    +0.000 OA
BRANCH  11  14
ATOM     14  N   UNL     1       1.703   4.489  18.963  0.00  0.00    +0.000 NA
ATOM     15  C   UNL     1       1.154   4.242  20.308  0.00  0.00    +0.000 C 
ATOM     16  C   UNL     1       1.522   2.799  20.594  0.00  0.00    +0.000 C 
ATOM     17  C   UNL     1       1.425   2.120  19.238  0.00  0.00    +0.000 C 
ATOM     18  C   UNL     1       1.650   3.221  18.204  0.00  0.00    +0.000 C 
ENDBRANCH  11  14
ENDBRANCH   9  11
ENDBRANCH   3   5
BRANCH   2  19
ATOM     19  C   UNL     1      -0.493   9.722  23.348  0.00  0.00    +0.000 C 
BRANCH  19  20
ATOM     20  N   UNL     1      -0.996  11.051  23.136  0.00  0.00    +0.000 N 
ATOM     21  N   UNL     1      -0.248  12.013  22.583  0.00  0.00    +0.000 NA
ATOM     22  N   UNL     1      -1.066  13.046  22.465  0.00  0.00    +0.000 NA
ATOM     23  C   UNL     1      -2.292  12.648  22.952  0.00  0.00    +0.000 A 
ATOM     24  N   UNL     1      -2.277  11.379  23.404  0.00  0.00    +0.000 NA
BRANCH  23  25
ATOM     25  C   UNL     1      -3.455  13.523  22.942  0.00  0.00    +0.000 A 
ATOM     26  C   UNL     1      -3.454  14.681  22.147  0.00  0.00    +0.000 A 
ATOM     27  C   UNL     1      -4.568  15.521  22.112  0.00  0.00    +0.000 A 
ATOM     28  C   UNL     1      -5.693  15.215  22.872  0.00  0.00    +0.000 A 
ATOM     29  C   UNL     1      -5.708  14.073  23.669  0.00  0.00    +0.000 A 
ATOM     30  C   UNL     1      -4.594  13.228  23.705  0.00  0.00    +0.000 A 
ENDBRANCH  23  25
ENDBRANCH  19  20
ENDBRANCH   2  19
TORSDOF 6
ENDMDL
MODEL 8
REMARK VINA RESULT:      -8.0      1.882      2.307
REMARK  Name = 
REMARK  6 active torsions:
REMARK  status: ('A' for Active; 'I' for Inactive)
REMARK    1  A    between atoms: C_2  and  C_3
REMARK    2  A    between atoms: C_3  and  N_4
REMARK    3  A    between atoms: C_7  and  C_8
REMARK    4  A    between atoms: N_15  and  C_16
REMARK    5  A    between atoms: C_20  and  S_21
REMARK    6  A    between atoms: S_21  and  N_24
REMARK                            x       y       z     vdW  Elec       q    Type
REMARK                         _______ _______ _______ _____ _____    ______ ____
ROOT
ATOM      1  O   UNL     1       1.673   8.226  18.830  0.00  0.00    +0.000 OA
ATOM      2  C   UNL     1       1.622   8.229  20.060  0.00  0.00    +0.000 C 
ATOM      3  N   UNL     1       1.605   7.097  20.872  0.00  0.00    +0.000 N 
ATOM      4  H   UNL     1       1.410   7.226  21.862  0.00  0.00    +0.000 HD
ENDROOT
BRANCH   3   5
ATOM      5  C   UNL     1       1.690   5.759  20.410  0.00  0.00    +0.000 A 
ATOM      6  C   UNL     1       0.612   4.873  20.506  0.00  0.00    +0.000 A 
ATOM      7  C   UNL     1       0.760   3.518  20.199  0.00  0.00    +0.000 A 
ATOM      8  C   UNL     1       1.978   3.046  19.735  0.00  0.00    +0.000 A 
ATOM      9  C   UNL     1       3.018   3.944  19.499  0.00  0.00    +0.000 A 
ATOM     10  C   UNL     1       2.896   5.299  19.861  0.00  0.00    +0.000 A 
BRANCH   9  11
ATOM     11  S   UNL     1       4.539   3.311  18.812  0.00  0.00    +0.000 S 
ATOM     12  O   UNL     1       5.276   2.699  19.900  0.00  0.00    +0.000 OA
ATOM     13  O   UNL     1       4.195   2.559  17.629  0.00  0.00    +0.000 OA
BRANCH  11  14
ATOM     14  N   UNL     1       5.379   4.696  18.325  0.00  0.00    +0.000 NA
ATOM     15  C   UNL     1       5.927   4.767  16.959  0.00  0.00    +0.000 C 
ATOM     16  C   UNL     1       7.427   4.671  17.161  0.00  0.00    +0.000 C 
ATOM     17  C   UNL     1       7.668   5.407  18.469  0.00  0.00    +0.000 C 
ATOM     18  C   UNL     1       6.357   5.316  19.246  0.00  0.00    +0.000 C 
ENDBRANCH  11  14
ENDBRANCH   9  11
ENDBRANCH   3   5
BRANCH   2  19
ATOM     19  C   UNL     1       1.463   9.541  20.778  0.00  0.00    +0.000 C 
BRANCH  19  20
ATOM     20  N   UNL     1       0.562  10.405  20.066  0.00  0.00    +0.000 N 
ATOM     21  N   UNL     1       0.893  11.660  19.738  0.00  0.00    +0.000 NA
ATOM     22  N   UNL     1      -0.130  12.098  19.023  0.00  0.00    +0.000 NA
ATOM     23  C   UNL     1      -1.039  11.067  18.945  0.00  0.00    +0.000 A 
ATOM     24  N   UNL     1      -0.633   9.971  19.616  0.00  0.00    +0.000 NA
BRANCH  23  25
ATOM     25  C   UNL     1      -2.281  11.179  18.193  0.00  0.00    +0.000 A 
ATOM     26  C   UNL     1      -3.424  11.720  18.805  0.00  0.00    +0.000 A 
ATOM     27  C   UNL     1      -4.617  11.853  18.094  0.00  0.00    +0.000 A 
ATOM     28  C   UNL     1      -4.682  11.444  16.764  0.00  0.00    +0.000 A 
ATOM     29  C   UNL     1      -3.559  10.901  16.145  0.00  0.00    +0.000 A 
ATOM     30  C   UNL     1      -2.361  10.769  16.855  0.00  0.00    +0.000 A 
ENDBRANCH  23  25
ENDBRANCH  19  20
ENDBRANCH   2  19
TORSDOF 6
ENDMDL
MODEL 9
REMARK VINA RESULT:      -8.0      2.255      2.911
REMARK  Name = 
REMARK  6 active torsions:
REMARK  status: ('A' for Active; 'I' for Inactive)
REMARK    1  A    between atoms: C_2  and  C_3
REMARK    2  A    between atoms: C_3  and  N_4
REMARK    3  A    between atoms: C_7  and  C_8
REMARK    4  A    between atoms: N_15  and  C_16
REMARK    5  A    between atoms: C_20  and  S_21
REMARK    6  A    between atoms: S_21  and  N_24
REMARK                            x       y       z     vdW  Elec       q    Type
REMARK                         _______ _______ _______ _____ _____    ______ ____
ROOT
ATOM      1  O   UNL     1       1.568   8.374  18.120  0.00  0.00    +0.000 OA
ATOM      2  C   UNL     1       1.851   8.056  19.275  0.00  0.00    +0.000 C 
ATOM      3  N   UNL     1       2.499   6.883  19.655  0.00  0.00    +0.000 N 
ATOM      4  H   UNL     1       2.543   6.665  20.647  0.00  0.00    +0.000 HD
ENDROOT
BRANCH   3   5
ATOM      5  C   UNL     1       2.978   5.888  18.764  0.00  0.00    +0.000 A 
ATOM      6  C   UNL     1       2.602   4.546  18.882  0.00  0.00    +0.000 A 
ATOM      7  C   UNL     1       3.205   3.555  18.104  0.00  0.00    +0.000 A 
ATOM      8  C   UNL     1       4.152   3.906  17.153  0.00  0.00    +0.000 A 
ATOM      9  C   UNL     1       4.430   5.254  16.927  0.00  0.00    +0.000 A 
ATOM     10  C   UNL     1       3.872   6.253  17.746  0.00  0.00    +0.000 A 
BRANCH   9  11
ATOM     11  S   UNL     1       5.585   5.669  15.630  0.00  0.00    +0.000 S 
ATOM     12  O   UNL     1       5.643   4.534  14.730  0.00  0.00    +0.000 OA
ATOM     13  O   UNL     1       5.234   6.984  15.149  0.00  0.00    +0.000 OA
BRANCH  11  14
ATOM     14  N   UNL     1       7.074   5.784  16.425  0.00  0.00    +0.000 NA
ATOM     15  C   UNL     1       7.573   4.631  17.195  0.00  0.00    +0.000 C 
ATOM     16  C   UNL     1       7.459   5.078  18.640  0.00  0.00    +0.000 C 
ATOM     17  C   UNL     1       7.764   6.566  18.588  0.00  0.00    +0.000 C 
ATOM     18  C   UNL     1       7.406   7.016  17.173  0.00  0.00    +0.000 C 
ENDBRANCH  11  14
ENDBRANCH   9  11
ENDBRANCH   3   5
BRANCH   2  19
ATOM     19  C   UNL     1       1.387   8.932  20.405  0.00  0.00    +0.000 C 
BRANCH  19  20
ATOM     20  N   UNL     1       0.789  10.138  19.903  0.00  0.00    +0.000 N 
ATOM     21  N   UNL     1      -0.522  10.228  19.651  0.00  0.00    +0.000 NA
ATOM     22  N   UNL     1      -0.709  11.490  19.302  0.00  0.00    +0.000 NA
ATOM     23  C   UNL     1       0.517  12.114  19.370  0.00  0.00    +0.000 A 
ATOM     24  N   UNL     1       1.502  11.271  19.738  0.00  0.00    +0.000 NA
BRANCH  23  25
ATOM     25  C   UNL     1       0.686  13.532  19.090  0.00  0.00    +0.000 A 
ATOM     26  C   UNL     1      -0.426  14.389  19.118  0.00  0.00    +0.000 A 
ATOM     27  C   UNL     1      -0.280  15.754  18.869  0.00  0.00    +0.000 A 
ATOM     28  C   UNL     1       0.979  16.278  18.588  0.00  0.00    +0.000 A 
ATOM     29  C   UNL     1       2.092  15.440  18.553  0.00  0.00    +0.000 A 
ATOM     30  C   UNL     1       1.948  14.072  18.803  0.00  0.00    +0.000 A 
ENDBRANCH  23  25
ENDBRANCH  19  20
ENDBRANCH   2  19
TORSDOF 6
ENDMDL
