MODEL 1
REMARK VINA RESULT:      -9.3      0.000      0.000
REMARK  Name = 
REMARK  4 active torsions:
REMARK  status: ('A' for Active; 'I' for Inactive)
REMARK    1  A    between atoms: C_1  and  C_2
REMARK    2  A    between atoms: C_2  and  C_3
REMARK    3  A    between atoms: N_12  and  C_13
REMARK    4  A    between atoms: C_13  and  C_14
REMARK                            x       y       z     vdW  Elec       q    Type
REMARK                         _______ _______ _______ _____ _____    ______ ____
ROOT
ATOM      1  C   UNL     1       3.633   3.545  18.321  0.00  0.00    +0.000 C 
ATOM      2  C   UNL     1       4.330   4.871  18.040  0.00  0.00    +0.000 C 
ATOM      3  N   UNL     1       4.816   4.930  16.676  0.00  0.00    +0.000 N 
ATOM      4  C   UNL     1       6.091   5.429  16.599  0.00  0.00    +0.000 C 
ATOM      5  O   UNL     1       6.729   5.527  15.560  0.00  0.00    +0.000 OA
ATOM      6  N   UNL     1       6.525   5.726  17.848  0.00  0.00    +0.000 N 
ATOM      7  C   UNL     1       5.712   5.058  18.726  0.00  0.00    +0.000 C 
ATOM      8  O   UNL     1       6.003   4.720  19.866  0.00  0.00    +0.000 OA
ATOM      9  H   UNL     1       4.295   4.664  15.852  0.00  0.00    +0.000 HD
ENDROOT
BRANCH   2  10
ATOM     10  C   UNL     1       3.434   6.057  18.407  0.00  0.00    +0.000 A 
ATOM     11  C   UNL     1       2.710   6.038  19.616  0.00  0.00    +0.000 A 
ATOM     12  C   UNL     1       1.959   7.138  20.024  0.00  0.00    +0.000 A 
ATOM     13  C   UNL     1       1.884   8.264  19.213  0.00  0.00    +0.000 A 
ATOM     14  C   UNL     1       2.553   8.285  17.990  0.00  0.00    +0.000 A 
ATOM     15  C   UNL     1       3.321   7.189  17.587  0.00  0.00    +0.000 A 
ENDBRANCH   2  10
BRANCH   6  16
ATOM     16  C   UNL     1       7.835   6.259  18.194  0.00  0.00    +0.000 C 
BRANCH  16  17
ATOM     17  C   UNL     1       7.951   7.775  17.943  0.00  0.00    +0.000 C 
ATOM     18  O   UNL     1       7.427   8.297  16.964  0.00  0.00    +0.000 OA
ATOM     19  N   UNL     1       8.644   8.420  18.953  0.00  0.00    +0.000 N 
ATOM     20  C   UNL     1       8.999   9.744  18.941  0.00  0.00    +0.000 A 
ATOM     21  N   UNL     1       8.653  10.722  18.136  0.00  0.00    +0.000 NA
ATOM     22  C   UNL     1       9.403  11.812  18.525  0.00  0.00    +0.000 A 
ATOM     23  C   UNL     1       9.475  13.107  17.990  0.00  0.00    +0.000 A 
ATOM     24  C   UNL     1      10.395  14.016  18.536  0.00  0.00    +0.000 A 
ATOM     25  C   UNL     1      11.216  13.649  19.606  0.00  0.00    +0.000 A 
ATOM     26  C   UNL     1      11.130  12.378  20.182  0.00  0.00    +0.000 A 
ATOM     27  C   UNL     1      10.213  11.491  19.610  0.00  0.00    +0.000 A 
ATOM     28  N   UNL     1       9.880  10.195  19.894  0.00  0.00    +0.000 N 
ATOM     29  H   UNL     1       9.093   7.837  19.657  0.00  0.00    +0.000 HD
ATOM     30  H   UNL     1      10.273   9.636  20.638  0.00  0.00    +0.000 HD
ENDBRANCH  16  17
ENDBRANCH   6  16
TORSDOF 3
ENDMDL
MODEL 2
REMARK VINA RESULT:      -8.6      0.781      1.126
REMARK  Name = 
REMARK  4 active torsions:
REMARK  status: ('A' for Active; 'I' for Inactive)
REMARK    1  A    between atoms: C_1  and  C_2
REMARK    2  A    between atoms: C_2  and  C_3
REMARK    3  A    between atoms: N_12  and  C_13
REMARK    4  A    between atoms: C_13  and  C_14
REMARK                            x       y       z     vdW  Elec       q    Type
REMARK                         _______ _______ _______ _____ _____    ______ ____
ROOT
ATOM      1  C   UNL     1       4.369   3.342  17.919  0.00  0.00    +0.000 C 
ATOM      2  C   UNL     1       4.936   4.741  17.719  0.00  0.00    +0.000 C 
ATOM      3  N   UNL     1       5.665   4.838  16.469  0.00  0.00    +0.000 N 
ATOM      4  C   UNL     1       6.859   5.498  16.614  0.00  0.00    +0.000 C 
ATOM      5  O   UNL     1       7.667   5.660  15.711  0.00  0.00    +0.000 OA
ATOM      6  N   UNL     1       7.003   5.871  17.908  0.00  0.00    +0.000 N 
ATOM      7  C   UNL     1       6.126   5.119  18.645  0.00  0.00    +0.000 C 
ATOM      8  O   UNL     1       6.232   4.842  19.832  0.00  0.00    +0.000 OA
ATOM      9  H   UNL     1       5.349   4.492  15.574  0.00  0.00    +0.000 HD
ENDROOT
BRANCH   2  10
ATOM     10  C   UNL     1       3.846   5.807  17.859  0.00  0.00    +0.000 A 
ATOM     11  C   UNL     1       4.128   7.144  17.515  0.00  0.00    +0.000 A 
ATOM     12  C   UNL     1       3.134   8.121  17.542  0.00  0.00    +0.000 A 
ATOM     13  C   UNL     1       1.848   7.788  17.951  0.00  0.00    +0.000 A 
ATOM     14  C   UNL     1       1.560   6.482  18.340  0.00  0.00    +0.000 A 
ATOM     15  C   UNL     1       2.551   5.496  18.298  0.00  0.00    +0.000 A 
ENDBRANCH   2  10
BRANCH   6  16
ATOM     16  C   UNL     1       8.146   6.576  18.472  0.00  0.00    +0.000 C 
BRANCH  16  17
ATOM     17  C   UNL     1       8.149   8.080  18.132  0.00  0.00    +0.000 C 
ATOM     18  O   UNL     1       7.521   8.514  17.172  0.00  0.00    +0.000 OA
ATOM     19  N   UNL     1       8.877   8.820  19.049  0.00  0.00    +0.000 N 
ATOM     20  C   UNL     1       9.150  10.159  18.938  0.00  0.00    +0.000 A 
ATOM     21  N   UNL     1       8.684  11.068  18.112  0.00  0.00    +0.000 NA
ATOM     22  C   UNL     1       9.394  12.219  18.382  0.00  0.00    +0.000 A 
ATOM     23  C   UNL     1       9.346  13.483  17.774  0.00  0.00    +0.000 A 
ATOM     24  C   UNL     1      10.248  14.473  18.196  0.00  0.00    +0.000 A 
ATOM     25  C   UNL     1      11.169  14.215  19.215  0.00  0.00    +0.000 A 
ATOM     26  C   UNL     1      11.205  12.976  19.863  0.00  0.00    +0.000 A 
ATOM     27  C   UNL     1      10.302  12.008  19.414  0.00  0.00    +0.000 A 
ATOM     28  N   UNL     1      10.071  10.713  19.792  0.00  0.00    +0.000 N 
ATOM     29  H   UNL     1       9.414   8.305  19.744  0.00  0.00    +0.000 HD
ATOM     30  H   UNL     1      10.554  10.221  20.530  0.00  0.00    +0.000 HD
ENDBRANCH  16  17
ENDBRANCH   6  16
TORSDOF 3
ENDMDL
MODEL 3
REMARK VINA RESULT:      -8.5      6.506      9.535
REMARK  Name = 
REMARK  4 active torsions:
REMARK  status: ('A' for Active; 'I' for Inactive)
REMARK    1  A    between atoms: C_1  and  C_2
REMARK    2  A    between atoms: C_2  and  C_3
REMARK    3  A    between atoms: N_12  and  C_13
REMARK    4  A    between atoms: C_13  and  C_14
REMARK                            x       y       z     vdW  Elec       q    Type
REMARK                         _______ _______ _______ _____ _____    ______ ____
ROOT
ATOM      1  C   UNL     1       0.011  13.401  18.468  0.00  0.00    +0.000 C 
ATOM      2  C   UNL     1      -0.461  12.279  19.385  0.00  0.00    +0.000 C 
ATOM      3  N   UNL     1      -0.838  12.791  20.688  0.00  0.00    +0.000 N 
ATOM      4  C   UNL     1      -0.348  12.019  21.711  0.00  0.00    +0.000 C 
ATOM      5  O   UNL     1      -0.493  12.278  22.897  0.00  0.00    +0.000 OA
ATOM      6  N   UNL     1       0.356  10.986  21.186  0.00  0.00    +0.000 N 
ATOM      7  C   UNL     1       0.649  11.316  19.890  0.00  0.00    +0.000 C 
ATOM      8  O   UNL     1       1.585  10.886  19.229  0.00  0.00    +0.000 OA
ATOM      9  H   UNL     1      -1.412  13.604  20.859  0.00  0.00    +0.000 HD
ENDROOT
BRANCH   2  10
ATOM     10  C   UNL     1      -1.568  11.453  18.725  0.00  0.00    +0.000 A 
ATOM     11  C   UNL     1      -2.914  11.845  18.870  0.00  0.00    +0.000 A 
ATOM     12  C   UNL     1      -3.937  11.170  18.208  0.00  0.00    +0.000 A 
ATOM     13  C   UNL     1      -3.640  10.066  17.419  0.00  0.00    +0.000 A 
ATOM     14  C   UNL     1      -2.321   9.631  17.300  0.00  0.00    +0.000 A 
ATOM     15  C   UNL     1      -1.290  10.317  17.950  0.00  0.00    +0.000 A 
ENDBRANCH   2  10
BRANCH   6  16
ATOM     16  C   UNL     1       1.051   9.955  21.943  0.00  0.00    +0.000 C 
BRANCH  16  17
ATOM     17  C   UNL     1       0.710   8.529  21.466  0.00  0.00    +0.000 C 
ATOM     18  O   UNL     1      -0.428   8.082  21.566  0.00  0.00    +0.000 OA
ATOM     19  N   UNL     1       1.801   7.894  20.896  0.00  0.00    +0.000 N 
ATOM     20  C   UNL     1       1.825   6.585  20.492  0.00  0.00    +0.000 A 
ATOM     21  N   UNL     1       0.859   5.704  20.366  0.00  0.00    +0.000 NA
ATOM     22  C   UNL     1       1.476   4.516  20.034  0.00  0.00    +0.000 A 
ATOM     23  C   UNL     1       0.938   3.237  19.824  0.00  0.00    +0.000 A 
ATOM     24  C   UNL     1       1.811   2.167  19.572  0.00  0.00    +0.000 A 
ATOM     25  C   UNL     1       3.192   2.369  19.511  0.00  0.00    +0.000 A 
ATOM     26  C   UNL     1       3.746   3.642  19.675  0.00  0.00    +0.000 A 
ATOM     27  C   UNL     1       2.853   4.685  19.936  0.00  0.00    +0.000 A 
ATOM     28  N   UNL     1       3.034   6.023  20.161  0.00  0.00    +0.000 N 
ATOM     29  H   UNL     1       2.702   8.364  20.965  0.00  0.00    +0.000 HD
ATOM     30  H   UNL     1       3.921   6.505  20.159  0.00  0.00    +0.000 HD
ENDBRANCH  16  17
ENDBRANCH   6  16
TORSDOF 3
ENDMDL
MODEL 4
REMARK VINA RESULT:      -8.4      6.558      9.566
REMARK  Name = 
REMARK  4 active torsions:
REMARK  status: ('A' for Active; 'I' for Inactive)
REMARK    1  A    between atoms: C_1  and  C_2
REMARK    2  A    between atoms: C_2  and  C_3
REMARK    3  A    between atoms: N_12  and  C_13
REMARK    4  A    between atoms: C_13  and  C_14
REMARK                            x       y       z     vdW  Elec       q    Type
REMARK                         _______ _______ _______ _____ _____    ______ ____
ROOT
ATOM      1  C   UNL     1      -1.240  13.778  20.336  0.00  0.00    +0.000 C 
ATOM      2  C   UNL     1      -1.149  12.260  20.428  0.00  0.00    +0.000 C 
ATOM      3  N   UNL     1      -1.703  11.776  21.678  0.00  0.00    +0.000 N 
ATOM      4  C   UNL     1      -0.908  10.824  22.264  0.00  0.00    +0.000 C 
ATOM      5  O   UNL     1      -1.144  10.305  23.346  0.00  0.00    +0.000 OA
ATOM      6  N   UNL     1       0.179  10.614  21.483  0.00  0.00    +0.000 N 
ATOM      7  C   UNL     1       0.281  11.688  20.638  0.00  0.00    +0.000 C 
ATOM      8  O   UNL     1       1.304  12.088  20.099  0.00  0.00    +0.000 OA
ATOM      9  H   UNL     1      -2.580  12.068  22.087  0.00  0.00    +0.000 HD
ENDROOT
BRANCH   2  10
ATOM     10  C   UNL     1      -1.773  11.592  19.201  0.00  0.00    +0.000 A 
ATOM     11  C   UNL     1      -1.003  10.706  18.420  0.00  0.00    +0.000 A 
ATOM     12  C   UNL     1      -1.565  10.010  17.352  0.00  0.00    +0.000 A 
ATOM     13  C   UNL     1      -2.897  10.216  17.017  0.00  0.00    +0.000 A 
ATOM     14  C   UNL     1      -3.665  11.124  17.746  0.00  0.00    +0.000 A 
ATOM     15  C   UNL     1      -3.107  11.810  18.829  0.00  0.00    +0.000 A 
ENDBRANCH   2  10
BRANCH   6  16
ATOM     16  C   UNL     1       1.271   9.694  21.768  0.00  0.00    +0.000 C 
BRANCH  16  17
ATOM     17  C   UNL     1       1.489   8.657  20.648  0.00  0.00    +0.000 C 
ATOM     18  O   UNL     1       1.360   8.964  19.468  0.00  0.00    +0.000 OA
ATOM     19  N   UNL     1       1.880   7.426  21.146  0.00  0.00    +0.000 N 
ATOM     20  C   UNL     1       2.032   6.288  20.397  0.00  0.00    +0.000 A 
ATOM     21  N   UNL     1       2.036   6.107  19.097  0.00  0.00    +0.000 NA
ATOM     22  C   UNL     1       2.112   4.743  18.908  0.00  0.00    +0.000 A 
ATOM     23  C   UNL     1       2.105   3.984  17.727  0.00  0.00    +0.000 A 
ATOM     24  C   UNL     1       2.114   2.583  17.822  0.00  0.00    +0.000 A 
ATOM     25  C   UNL     1       2.147   1.950  19.066  0.00  0.00    +0.000 A 
ATOM     26  C   UNL     1       2.198   2.687  20.253  0.00  0.00    +0.000 A 
ATOM     27  C   UNL     1       2.177   4.079  20.128  0.00  0.00    +0.000 A 
ATOM     28  N   UNL     1       2.197   5.091  21.049  0.00  0.00    +0.000 N 
ATOM     29  H   UNL     1       1.858   7.303  22.157  0.00  0.00    +0.000 HD
ATOM     30  H   UNL     1       2.247   4.973  22.051  0.00  0.00    +0.000 HD
ENDBRANCH  16  17
ENDBRANCH   6  16
TORSDOF 3
ENDMDL
MODEL 5
REMARK VINA RESULT:      -8.2      4.908      6.335
REMARK  Name = 
REMARK  4 active torsions:
REMARK  status: ('A' for Active; 'I' for Inactive)
REMARK    1  A    between atoms: C_1  and  C_2
REMARK    2  A    between atoms: C_2  and  C_3
REMARK    3  A    between atoms: N_12  and  C_13
REMARK    4  A    between atoms: C_13  and  C_14
REMARK                            x       y       z     vdW  Elec       q    Type
REMARK                         _______ _______ _______ _____ _____    ______ ____
ROOT
ATOM      1  C   UNL     1       5.015   1.773  19.736  0.00  0.00    +0.000 C 
ATOM      2  C   UNL     1       4.343   2.844  18.886  0.00  0.00    +0.000 C 
ATOM      3  N   UNL     1       4.539   2.590  17.472  0.00  0.00    +0.000 N 
ATOM      4  C   UNL     1       4.882   3.725  16.783  0.00  0.00    +0.000 C 
ATOM      5  O   UNL     1       5.144   3.750  15.588  0.00  0.00    +0.000 OA
ATOM      6  N   UNL     1       4.935   4.767  17.647  0.00  0.00    +0.000 N 
ATOM      7  C   UNL     1       5.026   4.240  18.908  0.00  0.00    +0.000 C 
ATOM      8  O   UNL     1       5.505   4.792  19.889  0.00  0.00    +0.000 OA
ATOM      9  H   UNL     1       4.422   1.698  17.011  0.00  0.00    +0.000 HD
ENDROOT
BRANCH   2  10
ATOM     10  C   UNL     1       2.869   3.009  19.265  0.00  0.00    +0.000 A 
ATOM     11  C   UNL     1       1.876   2.346  18.515  0.00  0.00    +0.000 A 
ATOM     12  C   UNL     1       0.535   2.401  18.888  0.00  0.00    +0.000 A 
ATOM     13  C   UNL     1       0.154   3.150  19.994  0.00  0.00    +0.000 A 
ATOM     14  C   UNL     1       1.114   3.852  20.721  0.00  0.00    +0.000 A 
ATOM     15  C   UNL     1       2.463   3.786  20.359  0.00  0.00    +0.000 A 
ENDBRANCH   2  10
BRANCH   6  16
ATOM     16  C   UNL     1       5.285   6.140  17.309  0.00  0.00    +0.000 C 
BRANCH  16  17
ATOM     17  C   UNL     1       4.107   7.119  17.485  0.00  0.00    +0.000 C 
ATOM     18  O   UNL     1       3.808   7.916  16.602  0.00  0.00    +0.000 OA
ATOM     19  N   UNL     1       3.450   6.934  18.690  0.00  0.00    +0.000 N 
ATOM     20  C   UNL     1       2.443   7.732  19.167  0.00  0.00    +0.000 A 
ATOM     21  N   UNL     1       1.756   8.689  18.588  0.00  0.00    +0.000 NA
ATOM     22  C   UNL     1       0.954   9.225  19.575  0.00  0.00    +0.000 A 
ATOM     23  C   UNL     1       0.051  10.298  19.533  0.00  0.00    +0.000 A 
ATOM     24  C   UNL     1      -0.588  10.693  20.719  0.00  0.00    +0.000 A 
ATOM     25  C   UNL     1      -0.346  10.021  21.920  0.00  0.00    +0.000 A 
ATOM     26  C   UNL     1       0.517   8.923  21.975  0.00  0.00    +0.000 A 
ATOM     27  C   UNL     1       1.146   8.560  20.781  0.00  0.00    +0.000 A 
ATOM     28  N   UNL     1       2.043   7.574  20.471  0.00  0.00    +0.000 N 
ATOM     29  H   UNL     1       3.871   6.289  19.357  0.00  0.00    +0.000 HD
ATOM     30  H   UNL     1       2.409   6.887  21.116  0.00  0.00    +0.000 HD
ENDBRANCH  16  17
ENDBRANCH   6  16
TORSDOF 3
ENDMDL
MODEL 6
REMARK VINA RESULT:      -8.2      5.827      9.340
REMARK  Name = 
REMARK  4 active torsions:
REMARK  status: ('A' for Active; 'I' for Inactive)
REMARK    1  A    between atoms: C_1  and  C_2
REMARK    2  A    between atoms: C_2  and  C_3
REMARK    3  A    between atoms: N_12  and  C_13
REMARK    4  A    between atoms: C_13  and  C_14
REMARK                            x       y       z     vdW  Elec       q    Type
REMARK                         _______ _______ _______ _____ _____    ______ ____
ROOT
ATOM      1  C   UNL     1      -2.005  13.304  20.028  0.00  0.00    +0.000 C 
ATOM      2  C   UNL     1      -1.418  11.997  19.510  0.00  0.00    +0.000 C 
ATOM      3  N   UNL     1      -1.126  11.085  20.599  0.00  0.00    +0.000 N 
ATOM      4  C   UNL     1       0.101  10.489  20.463  0.00  0.00    +0.000 C 
ATOM      5  O   UNL     1       0.585   9.719  21.281  0.00  0.00    +0.000 OA
ATOM      6  N   UNL     1       0.687  10.938  19.326  0.00  0.00    +0.000 N 
ATOM      7  C   UNL     1       0.035  12.087  18.965  0.00  0.00    +0.000 C 
ATOM      8  O   UNL     1       0.495  12.995  18.285  0.00  0.00    +0.000 OA
ATOM      9  H   UNL     1      -1.742  10.873  21.371  0.00  0.00    +0.000 HD
ENDROOT
BRANCH   2  10
ATOM     10  C   UNL     1      -2.311  11.376  18.434  0.00  0.00    +0.000 A 
ATOM     11  C   UNL     1      -3.678  11.716  18.377  0.00  0.00    +0.000 A 
ATOM     12  C   UNL     1      -4.498  11.241  17.356  0.00  0.00    +0.000 A 
ATOM     13  C   UNL     1      -3.978  10.386  16.392  0.00  0.00    +0.000 A 
ATOM     14  C   UNL     1      -2.640   9.999  16.456  0.00  0.00    +0.000 A 
ATOM     15  C   UNL     1      -1.811  10.487  17.471  0.00  0.00    +0.000 A 
ENDBRANCH   2  10
BRANCH   6  16
ATOM     16  C   UNL     1       2.005  10.559  18.838  0.00  0.00    +0.000 C 
BRANCH  16  17
ATOM     17  C   UNL     1       2.071   9.093  18.364  0.00  0.00    +0.000 C 
ATOM     18  O   UNL     1       2.051   8.812  17.170  0.00  0.00    +0.000 OA
ATOM     19  N   UNL     1       2.202   8.208  19.421  0.00  0.00    +0.000 N 
ATOM     20  C   UNL     1       2.169   6.843  19.311  0.00  0.00    +0.000 A 
ATOM     21  N   UNL     1       2.192   6.063  18.255  0.00  0.00    +0.000 NA
ATOM     22  C   UNL     1       2.018   4.780  18.732  0.00  0.00    +0.000 A 
ATOM     23  C   UNL     1       1.917   3.559  18.047  0.00  0.00    +0.000 A 
ATOM     24  C   UNL     1       1.658   2.390  18.781  0.00  0.00    +0.000 A 
ATOM     25  C   UNL     1       1.520   2.433  20.171  0.00  0.00    +0.000 A 
ATOM     26  C   UNL     1       1.660   3.633  20.876  0.00  0.00    +0.000 A 
ATOM     27  C   UNL     1       1.906   4.781  20.118  0.00  0.00    +0.000 A 
ATOM     28  N   UNL     1       2.078   6.095  20.459  0.00  0.00    +0.000 N 
ATOM     29  H   UNL     1       2.116   8.589  20.361  0.00  0.00    +0.000 HD
ATOM     30  H   UNL     1       2.064   6.465  21.399  0.00  0.00    +0.000 HD
ENDBRANCH  16  17
ENDBRANCH   6  16
TORSDOF 3
ENDMDL
MODEL 7
REMARK VINA RESULT:      -7.9      1.872      3.143
REMARK  Name = 
REMARK  4 active torsions:
REMARK  status: ('A' for Active; 'I' for Inactive)
REMARK    1  A    between atoms: C_1  and  C_2
REMARK    2  A    between atoms: C_2  and  C_3
REMARK    3  A    between atoms: N_12  and  C_13
REMARK    4  A    between atoms: C_13  and  C_14
REMARK                            x       y       z     vdW  Elec       q    Type
REMARK                         _______ _______ _______ _____ _____    ______ ____
ROOT
ATOM      1  C   UNL     1       1.463   4.393  17.145  0.00  0.00    +0.000 C 
ATOM      2  C   UNL     1       2.751   4.761  17.870  0.00  0.00    +0.000 C 
ATOM      3  N   UNL     1       2.888   6.199  17.999  0.00  0.00    +0.000 N 
ATOM      4  C   UNL     1       4.155   6.630  17.696  0.00  0.00    +0.000 C 
ATOM      5  O   UNL     1       4.497   7.804  17.687  0.00  0.00    +0.000 OA
ATOM      6  N   UNL     1       4.917   5.560  17.361  0.00  0.00    +0.000 N 
ATOM      7  C   UNL     1       4.060   4.534  17.063  0.00  0.00    +0.000 C 
ATOM      8  O   UNL     1       4.303   3.578  16.337  0.00  0.00    +0.000 OA
ATOM      9  H   UNL     1       2.163   6.836  18.297  0.00  0.00    +0.000 HD
ENDROOT
BRANCH   2  10
ATOM     10  C   UNL     1       2.864   4.028  19.208  0.00  0.00    +0.000 A 
ATOM     11  C   UNL     1       1.933   4.295  20.232  0.00  0.00    +0.000 A 
ATOM     12  C   UNL     1       1.950   3.580  21.428  0.00  0.00    +0.000 A 
ATOM     13  C   UNL     1       2.922   2.610  21.640  0.00  0.00    +0.000 A 
ATOM     14  C   UNL     1       3.882   2.363  20.660  0.00  0.00    +0.000 A 
ATOM     15  C   UNL     1       3.856   3.067  19.452  0.00  0.00    +0.000 A 
ENDBRANCH   2  10
BRANCH   6  16
ATOM     16  C   UNL     1       6.314   5.601  16.955  0.00  0.00    +0.000 C 
BRANCH  16  17
ATOM     17  C   UNL     1       7.180   6.484  17.875  0.00  0.00    +0.000 C 
ATOM     18  O   UNL     1       7.566   6.076  18.966  0.00  0.00    +0.000 OA
ATOM     19  N   UNL     1       7.480   7.706  17.295  0.00  0.00    +0.000 N 
ATOM     20  C   UNL     1       8.133   8.734  17.923  0.00  0.00    +0.000 A 
ATOM     21  N   UNL     1       8.764   8.780  19.073  0.00  0.00    +0.000 NA
ATOM     22  C   UNL     1       9.126  10.099  19.251  0.00  0.00    +0.000 A 
ATOM     23  C   UNL     1       9.780  10.728  20.321  0.00  0.00    +0.000 A 
ATOM     24  C   UNL     1       9.958  12.121  20.282  0.00  0.00    +0.000 A 
ATOM     25  C   UNL     1       9.509  12.870  19.191  0.00  0.00    +0.000 A 
ATOM     26  C   UNL     1       8.893  12.257  18.096  0.00  0.00    +0.000 A 
ATOM     27  C   UNL     1       8.720  10.872  18.168  0.00  0.00    +0.000 A 
ATOM     28  N   UNL     1       8.158   9.964  17.312  0.00  0.00    +0.000 N 
ATOM     29  H   UNL     1       7.014   7.933  16.419  0.00  0.00    +0.000 HD
ATOM     30  H   UNL     1       7.758  10.177  16.409  0.00  0.00    +0.000 HD
ENDBRANCH  16  17
ENDBRANCH   6  16
TORSDOF 3
ENDMDL
MODEL 8
REMARK VINA RESULT:      -7.9      5.738      8.999
REMARK  Name = 
REMARK  4 active torsions:
REMARK  status: ('A' for Active; 'I' for Inactive)
REMARK    1  A    between atoms: C_1  and  C_2
REMARK    2  A    between atoms: C_2  and  C_3
REMARK    3  A    between atoms: N_12  and  C_13
REMARK    4  A    between atoms: C_13  and  C_14
REMARK                            x       y       z     vdW  Elec       q    Type
REMARK                         _______ _______ _______ _____ _____    ______ ____
ROOT
ATOM      1  C   UNL     1      -2.788  11.312  15.790  0.00  0.00    +0.000 C 
ATOM      2  C   UNL     1      -2.402  11.485  17.254  0.00  0.00    +0.000 C 
ATOM      3  N   UNL     1      -1.536  12.634  17.435  0.00  0.00    +0.000 N 
ATOM      4  C   UNL     1      -0.477  12.361  18.262  0.00  0.00    +0.000 C 
ATOM      5  O   UNL     1       0.412  13.158  18.525  0.00  0.00    +0.000 OA
ATOM      6  N   UNL     1      -0.557  11.072  18.672  0.00  0.00    +0.000 N 
ATOM      7  C   UNL     1      -1.409  10.429  17.813  0.00  0.00    +0.000 C 
ATOM      8  O   UNL     1      -1.422   9.229  17.573  0.00  0.00    +0.000 OA
ATOM      9  H   UNL     1      -1.680  13.550  17.033  0.00  0.00    +0.000 HD
ENDROOT
BRANCH   2  10
ATOM     10  C   UNL     1      -3.640  11.522  18.153  0.00  0.00    +0.000 A 
ATOM     11  C   UNL     1      -3.628  12.301  19.328  0.00  0.00    +0.000 A 
ATOM     12  C   UNL     1      -4.767  12.430  20.120  0.00  0.00    +0.000 A 
ATOM     13  C   UNL     1      -5.930  11.754  19.774  0.00  0.00    +0.000 A 
ATOM     14  C   UNL     1      -5.950  10.940  18.642  0.00  0.00    +0.000 A 
ATOM     15  C   UNL     1      -4.814  10.822  17.837  0.00  0.00    +0.000 A 
ENDBRANCH   2  10
BRANCH   6  16
ATOM     16  C   UNL     1       0.390  10.392  19.543  0.00  0.00    +0.000 C 
BRANCH  16  17
ATOM     17  C   UNL     1       1.525   9.695  18.766  0.00  0.00    +0.000 C 
ATOM     18  O   UNL     1       2.184  10.300  17.927  0.00  0.00    +0.000 OA
ATOM     19  N   UNL     1       1.708   8.384  19.174  0.00  0.00    +0.000 N 
ATOM     20  C   UNL     1       2.562   7.490  18.583  0.00  0.00    +0.000 A 
ATOM     21  N   UNL     1       3.496   7.660  17.676  0.00  0.00    +0.000 NA
ATOM     22  C   UNL     1       3.958   6.397  17.371  0.00  0.00    +0.000 A 
ATOM     23  C   UNL     1       4.920   5.979  16.439  0.00  0.00    +0.000 A 
ATOM     24  C   UNL     1       5.149   4.604  16.271  0.00  0.00    +0.000 A 
ATOM     25  C   UNL     1       4.446   3.663  17.029  0.00  0.00    +0.000 A 
ATOM     26  C   UNL     1       3.515   4.060  17.994  0.00  0.00    +0.000 A 
ATOM     27  C   UNL     1       3.301   5.435  18.130  0.00  0.00    +0.000 A 
ATOM     28  N   UNL     1       2.474   6.166  18.939  0.00  0.00    +0.000 N 
ATOM     29  H   UNL     1       1.024   7.997  19.821  0.00  0.00    +0.000 HD
ATOM     30  H   UNL     1       1.845   5.788  19.633  0.00  0.00    +0.000 HD
ENDBRANCH  16  17
ENDBRANCH   6  16
TORSDOF 3
ENDMDL
MODEL 9
REMARK VINA RESULT:      -7.8      5.915      9.207
REMARK  Name = 
REMARK  4 active torsions:
REMARK  status: ('A' for Active; 'I' for Inactive)
REMARK    1  A    between atoms: C_1  and  C_2
REMARK    2  A    between atoms: C_2  and  C_3
REMARK    3  A    between atoms: N_12  and  C_13
REMARK    4  A    between atoms: C_13  and  C_14
REMARK                            x       y       z     vdW  Elec       q    Type
REMARK                         _______ _______ _______ _____ _____    ______ ____
ROOT
ATOM      1  C   UNL     1      -3.022  11.266  16.158  0.00  0.00    +0.000 C 
ATOM      2  C   UNL     1      -2.504  11.555  17.562  0.00  0.00    +0.000 C 
ATOM      3  N   UNL     1      -1.513  12.613  17.547  0.00  0.00    +0.000 N 
ATOM      4  C   UNL     1      -0.424  12.316  18.327  0.00  0.00    +0.000 C 
ATOM      5  O   UNL     1       0.561  13.033  18.433  0.00  0.00    +0.000 OA
ATOM      6  N   UNL     1      -0.605  11.097  18.891  0.00  0.00    +0.000 N 
ATOM      7  C   UNL     1      -1.584  10.462  18.173  0.00  0.00    +0.000 C 
ATOM      8  O   UNL     1      -1.740   9.252  18.078  0.00  0.00    +0.000 OA
ATOM      9  H   UNL     1      -1.593  13.489  17.051  0.00  0.00    +0.000 HD
ENDROOT
BRANCH   2  10
ATOM     10  C   UNL     1      -3.656  11.829  18.532  0.00  0.00    +0.000 A 
ATOM     11  C   UNL     1      -4.947  11.345  18.239  0.00  0.00    +0.000 A 
ATOM     12  C   UNL     1      -5.996  11.496  19.143  0.00  0.00    +0.000 A 
ATOM     13  C   UNL     1      -5.787  12.169  20.340  0.00  0.00    +0.000 A 
ATOM     14  C   UNL     1      -4.530  12.698  20.629  0.00  0.00    +0.000 A 
ATOM     15  C   UNL     1      -3.471  12.533  19.731  0.00  0.00    +0.000 A 
ENDBRANCH   2  10
BRANCH   6  16
ATOM     16  C   UNL     1       0.334  10.415  19.770  0.00  0.00    +0.000 C 
BRANCH  16  17
ATOM     17  C   UNL     1       1.286   9.468  19.012  0.00  0.00    +0.000 C 
ATOM     18  O   UNL     1       1.668   9.729  17.877  0.00  0.00    +0.000 OA
ATOM     19  N   UNL     1       1.659   8.378  19.781  0.00  0.00    +0.000 N 
ATOM     20  C   UNL     1       2.401   7.317  19.332  0.00  0.00    +0.000 A 
ATOM     21  N   UNL     1       3.063   7.141  18.211  0.00  0.00    +0.000 NA
ATOM     22  C   UNL     1       3.524   5.842  18.248  0.00  0.00    +0.000 A 
ATOM     23  C   UNL     1       4.250   5.105  17.299  0.00  0.00    +0.000 A 
ATOM     24  C   UNL     1       4.528   3.754  17.558  0.00  0.00    +0.000 A 
ATOM     25  C   UNL     1       4.107   3.151  18.747  0.00  0.00    +0.000 A 
ATOM     26  C   UNL     1       3.421   3.879  19.724  0.00  0.00    +0.000 A 
ATOM     27  C   UNL     1       3.149   5.218  19.433  0.00  0.00    +0.000 A 
ATOM     28  N   UNL     1       2.501   6.202  20.128  0.00  0.00    +0.000 N 
ATOM     29  H   UNL     1       1.188   8.255  20.675  0.00  0.00    +0.000 HD
ATOM     30  H   UNL     1       2.094   6.103  21.048  0.00  0.00    +0.000 HD
ENDBRANCH  16  17
ENDBRANCH   6  16
TORSDOF 3
ENDMDL
