MODEL 1
REMARK VINA RESULT:      -8.9      0.000      0.000
REMARK  Name = 
REMARK  6 active torsions:
REMARK  status: ('A' for Active; 'I' for Inactive)
REMARK    1  A    between atoms: C_1  and  C_2
REMARK    2  A    between atoms: C_4  and  C_5
REMARK    3  A    between atoms: N_7  and  C_8
REMARK    4  A    between atoms: C_13  and  C_14
REMARK    5  A    between atoms: C_14  and  C_15
REMARK    6  A    between atoms: N_22  and  C_23
REMARK                            x       y       z     vdW  Elec       q    Type
REMARK                         _______ _______ _______ _____ _____    ______ ____
ROOT
ATOM      1  C   UNL     1       2.536   7.415  17.854  0.00  0.00    +0.000 C 
ATOM      2  O   UNL     1       1.784   6.489  17.578  0.00  0.00    +0.000 OA
ATOM      3  N   UNL     1       3.931   7.384  17.724  0.00  0.00    +0.000 N 
ATOM      4  H   UNL     1       4.414   8.187  18.108  0.00  0.00    +0.000 HD
ENDROOT
BRANCH   1   8
ATOM      5  C   UNL     1       1.649  12.239  18.532  0.00  0.00    +0.000 C 
ATOM      6  C   UNL     1       1.557  10.761  18.605  0.00  0.00    +0.000 A 
ATOM      7  N   UNL     1       2.175   9.919  17.793  0.00  0.00    +0.000 NA
ATOM      8  C   UNL     1       2.008   8.692  18.406  0.00  0.00    +0.000 A 
ATOM      9  N   UNL     1       1.341   8.763  19.571  0.00  0.00    +0.000 NA
ATOM     10  N   UNL     1       0.957  10.056  19.641  0.00  0.00    +0.000 N 
BRANCH  10  11
ATOM     11  C   UNL     1       0.095  10.505  20.685  0.00  0.00    +0.000 A 
ATOM     12  C   UNL     1       0.160   9.891  21.950  0.00  0.00    +0.000 A 
ATOM     13  C   UNL     1      -0.650  10.344  22.997  0.00  0.00    +0.000 A 
ATOM     14  C   UNL     1      -1.552  11.377  22.777  0.00  0.00    +0.000 A 
ATOM     15  F   UNL     1      -2.333  11.806  23.778  0.00  0.00    +0.000 F 
ATOM     16  C   UNL     1      -1.662  11.963  21.521  0.00  0.00    +0.000 A 
ATOM     17  C   UNL     1      -0.839  11.531  20.475  0.00  0.00    +0.000 A 
ENDBRANCH  10  11
ENDBRANCH   1   8
BRANCH   3  18
ATOM     18  C   UNL     1       4.705   6.343  17.141  0.00  0.00    +0.000 A 
ATOM     19  C   UNL     1       5.071   6.395  15.784  0.00  0.00    +0.000 A 
ATOM     20  C   UNL     1       5.843   5.397  15.185  0.00  0.00    +0.000 A 
ATOM     21  C   UNL     1       6.294   4.327  15.938  0.00  0.00    +0.000 A 
ATOM     22  C   UNL     1       5.951   4.250  17.284  0.00  0.00    +0.000 A 
ATOM     23  C   UNL     1       5.144   5.235  17.906  0.00  0.00    +0.000 A 
BRANCH  23  24
ATOM     24  C   UNL     1       4.745   4.967  19.346  0.00  0.00    +0.000 C 
BRANCH  24  25
ATOM     25  C   UNL     1       3.390   4.324  19.526  0.00  0.00    +0.000 A 
ATOM     26  C   UNL     1       2.984   3.284  18.679  0.00  0.00    +0.000 A 
ATOM     27  C   UNL     1       1.725   2.698  18.826  0.00  0.00    +0.000 A 
ATOM     28  C   UNL     1       0.858   3.139  19.823  0.00  0.00    +0.000 A 
ATOM     29  C   UNL     1       1.255   4.156  20.687  0.00  0.00    +0.000 A 
ATOM     30  C   UNL     1       2.514   4.744  20.541  0.00  0.00    +0.000 A 
ENDBRANCH  24  25
ENDBRANCH  23  24
ENDBRANCH   3  18
TORSDOF 5
ENDMDL
MODEL 2
REMARK VINA RESULT:      -8.8      0.201      1.276
REMARK  Name = 
REMARK  6 active torsions:
REMARK  status: ('A' for Active; 'I' for Inactive)
REMARK    1  A    between atoms: C_1  and  C_2
REMARK    2  A    between atoms: C_4  and  C_5
REMARK    3  A    between atoms: N_7  and  C_8
REMARK    4  A    between atoms: C_13  and  C_14
REMARK    5  A    between atoms: C_14  and  C_15
REMARK    6  A    between atoms: N_22  and  C_23
REMARK                            x       y       z     vdW  Elec       q    Type
REMARK                         _______ _______ _______ _____ _____    ______ ____
ROOT
ATOM      1  C   UNL     1       2.460   7.538  17.894  0.00  0.00    +0.000 C 
ATOM      2  O   UNL     1       1.700   6.625  17.597  0.00  0.00    +0.000 OA
ATOM      3  N   UNL     1       3.856   7.490  17.789  0.00  0.00    +0.000 N 
ATOM      4  H   UNL     1       4.343   8.282  18.189  0.00  0.00    +0.000 HD
ENDROOT
BRANCH   1   8
ATOM      5  C   UNL     1       1.597  12.366  18.578  0.00  0.00    +0.000 C 
ATOM      6  C   UNL     1       1.499  10.888  18.651  0.00  0.00    +0.000 A 
ATOM      7  N   UNL     1       2.110  10.043  17.836  0.00  0.00    +0.000 NA
ATOM      8  C   UNL     1       1.939   8.818  18.449  0.00  0.00    +0.000 A 
ATOM      9  N   UNL     1       1.277   8.891  19.617  0.00  0.00    +0.000 NA
ATOM     10  N   UNL     1       0.898  10.185  19.688  0.00  0.00    +0.000 N 
BRANCH  10  11
ATOM     11  C   UNL     1       0.042  10.638  20.735  0.00  0.00    +0.000 A 
ATOM     12  C   UNL     1      -0.885  11.665  20.476  0.00  0.00    +0.000 A 
ATOM     13  C   UNL     1      -1.760  12.095  21.481  0.00  0.00    +0.000 A 
ATOM     14  C   UNL     1      -1.686  11.535  22.750  0.00  0.00    +0.000 A 
ATOM     15  F   UNL     1      -2.519  11.952  23.713  0.00  0.00    +0.000 F 
ATOM     16  C   UNL     1      -0.744  10.553  23.035  0.00  0.00    +0.000 A 
ATOM     17  C   UNL     1       0.119  10.102  22.029  0.00  0.00    +0.000 A 
ENDBRANCH  10  11
ENDBRANCH   1   8
BRANCH   3  18
ATOM     18  C   UNL     1       4.626   6.443  17.210  0.00  0.00    +0.000 A 
ATOM     19  C   UNL     1       5.041   6.515  15.868  0.00  0.00    +0.000 A 
ATOM     20  C   UNL     1       5.810   5.513  15.273  0.00  0.00    +0.000 A 
ATOM     21  C   UNL     1       6.209   4.416  16.017  0.00  0.00    +0.000 A 
ATOM     22  C   UNL     1       5.818   4.319  17.349  0.00  0.00    +0.000 A 
ATOM     23  C   UNL     1       5.013   5.309  17.964  0.00  0.00    +0.000 A 
BRANCH  23  24
ATOM     24  C   UNL     1       4.558   5.020  19.383  0.00  0.00    +0.000 C 
BRANCH  24  25
ATOM     25  C   UNL     1       3.237   4.295  19.497  0.00  0.00    +0.000 A 
ATOM     26  C   UNL     1       2.433   4.465  20.632  0.00  0.00    +0.000 A 
ATOM     27  C   UNL     1       1.221   3.783  20.754  0.00  0.00    +0.000 A 
ATOM     28  C   UNL     1       0.793   2.927  19.741  0.00  0.00    +0.000 A 
ATOM     29  C   UNL     1       1.570   2.763  18.597  0.00  0.00    +0.000 A 
ATOM     30  C   UNL     1       2.783   3.445  18.474  0.00  0.00    +0.000 A 
ENDBRANCH  24  25
ENDBRANCH  23  24
ENDBRANCH   3  18
TORSDOF 5
ENDMDL
MODEL 3
REMARK VINA RESULT:      -8.6      1.695      2.481
REMARK  Name = 
REMARK  6 active torsions:
REMARK  status: ('A' for Active; 'I' for Inactive)
REMARK    1  A    between atoms: C_1  and  C_2
REMARK    2  A    between atoms: C_4  and  C_5
REMARK    3  A    between atoms: N_7  and  C_8
REMARK    4  A    between atoms: C_13  and  C_14
REMARK    5  A    between atoms: C_14  and  C_15
REMARK    6  A    between atoms: N_22  and  C_23
REMARK                            x       y       z     vdW  Elec       q    Type
REMARK                         _______ _______ _______ _____ _____    ______ ____
ROOT
ATOM      1  C   UNL     1       2.606   6.775  18.079  0.00  0.00    +0.000 C 
ATOM      2  O   UNL     1       1.932   5.834  17.681  0.00  0.00    +0.000 OA
ATOM      3  N   UNL     1       3.993   6.895  17.922  0.00  0.00    +0.000 N 
ATOM      4  H   UNL     1       4.414   7.674  18.413  0.00  0.00    +0.000 HD
ENDROOT
BRANCH   1   8
ATOM      5  C   UNL     1       0.588   9.468  21.712  0.00  0.00    +0.000 C 
ATOM      6  C   UNL     1       1.221   9.070  20.431  0.00  0.00    +0.000 A 
ATOM      7  N   UNL     1       1.789   7.899  20.194  0.00  0.00    +0.000 NA
ATOM      8  C   UNL     1       1.982   7.901  18.826  0.00  0.00    +0.000 A 
ATOM      9  N   UNL     1       1.527   9.013  18.223  0.00  0.00    +0.000 NA
ATOM     10  N   UNL     1       1.149   9.802  19.252  0.00  0.00    +0.000 N 
BRANCH  10  11
ATOM     11  C   UNL     1       0.729  11.146  19.025  0.00  0.00    +0.000 A 
ATOM     12  C   UNL     1       1.679  12.184  19.058  0.00  0.00    +0.000 A 
ATOM     13  C   UNL     1       1.292  13.504  18.799  0.00  0.00    +0.000 A 
ATOM     14  C   UNL     1      -0.042  13.797  18.548  0.00  0.00    +0.000 A 
ATOM     15  F   UNL     1      -0.414  15.062  18.306  0.00  0.00    +0.000 F 
ATOM     16  C   UNL     1      -1.001  12.791  18.557  0.00  0.00    +0.000 A 
ATOM     17  C   UNL     1      -0.618  11.465  18.793  0.00  0.00    +0.000 A 
ENDBRANCH  10  11
ENDBRANCH   1   8
BRANCH   3  18
ATOM     18  C   UNL     1       4.839   6.029  17.176  0.00  0.00    +0.000 A 
ATOM     19  C   UNL     1       5.106   6.281  15.818  0.00  0.00    +0.000 A 
ATOM     20  C   UNL     1       5.944   5.460  15.060  0.00  0.00    +0.000 A 
ATOM     21  C   UNL     1       6.561   4.371  15.651  0.00  0.00    +0.000 A 
ATOM     22  C   UNL     1       6.320   4.098  16.994  0.00  0.00    +0.000 A 
ATOM     23  C   UNL     1       5.450   4.901  17.774  0.00  0.00    +0.000 A 
BRANCH  23  24
ATOM     24  C   UNL     1       5.181   4.422  19.189  0.00  0.00    +0.000 C 
BRANCH  24  25
ATOM     25  C   UNL     1       3.850   3.736  19.390  0.00  0.00    +0.000 A 
ATOM     26  C   UNL     1       3.432   2.732  18.507  0.00  0.00    +0.000 A 
ATOM     27  C   UNL     1       2.194   2.108  18.674  0.00  0.00    +0.000 A 
ATOM     28  C   UNL     1       1.361   2.474  19.730  0.00  0.00    +0.000 A 
ATOM     29  C   UNL     1       1.771   3.454  20.629  0.00  0.00    +0.000 A 
ATOM     30  C   UNL     1       3.009   4.080  20.463  0.00  0.00    +0.000 A 
ENDBRANCH  24  25
ENDBRANCH  23  24
ENDBRANCH   3  18
TORSDOF 5
ENDMDL
MODEL 4
REMARK VINA RESULT:      -8.6      1.658      2.282
REMARK  Name = 
REMARK  6 active torsions:
REMARK  status: ('A' for Active; 'I' for Inactive)
REMARK    1  A    between atoms: C_1  and  C_2
REMARK    2  A    between atoms: C_4  and  C_5
REMARK    3  A    between atoms: N_7  and  C_8
REMARK    4  A    between atoms: C_13  and  C_14
REMARK    5  A    between atoms: C_14  and  C_15
REMARK    6  A    between atoms: N_22  and  C_23
REMARK                            x       y       z     vdW  Elec       q    Type
REMARK                         _______ _______ _______ _____ _____    ______ ____
ROOT
ATOM      1  C   UNL     1       2.910   7.770  17.894  0.00  0.00    +0.000 C 
ATOM      2  O   UNL     1       2.956   8.178  16.740  0.00  0.00    +0.000 OA
ATOM      3  N   UNL     1       3.641   6.685  18.393  0.00  0.00    +0.000 N 
ATOM      4  H   UNL     1       3.399   6.402  19.335  0.00  0.00    +0.000 HD
ENDROOT
BRANCH   1   8
ATOM      5  C   UNL     1       0.241   8.561  21.989  0.00  0.00    +0.000 C 
ATOM      6  C   UNL     1       0.960   8.766  20.709  0.00  0.00    +0.000 A 
ATOM      7  N   UNL     1       1.818   7.914  20.172  0.00  0.00    +0.000 NA
ATOM      8  C   UNL     1       2.008   8.404  18.895  0.00  0.00    +0.000 A 
ATOM      9  N   UNL     1       1.275   9.498  18.626  0.00  0.00    +0.000 NA
ATOM     10  N   UNL     1       0.699   9.795  19.811  0.00  0.00    +0.000 N 
BRANCH  10  11
ATOM     11  C   UNL     1      -0.062  10.990  19.974  0.00  0.00    +0.000 A 
ATOM     12  C   UNL     1      -1.315  11.105  19.342  0.00  0.00    +0.000 A 
ATOM     13  C   UNL     1      -2.093  12.255  19.521  0.00  0.00    +0.000 A 
ATOM     14  C   UNL     1      -1.609  13.304  20.293  0.00  0.00    +0.000 A 
ATOM     15  F   UNL     1      -2.351  14.407  20.459  0.00  0.00    +0.000 F 
ATOM     16  C   UNL     1      -0.354  13.225  20.885  0.00  0.00    +0.000 A 
ATOM     17  C   UNL     1       0.420  12.070  20.729  0.00  0.00    +0.000 A 
ENDBRANCH  10  11
ENDBRANCH   1   8
BRANCH   3  18
ATOM     18  C   UNL     1       4.645   5.950  17.704  0.00  0.00    +0.000 A 
ATOM     19  C   UNL     1       5.905   6.521  17.450  0.00  0.00    +0.000 A 
ATOM     20  C   UNL     1       6.918   5.822  16.789  0.00  0.00    +0.000 A 
ATOM     21  C   UNL     1       6.704   4.516  16.383  0.00  0.00    +0.000 A 
ATOM     22  C   UNL     1       5.469   3.923  16.623  0.00  0.00    +0.000 A 
ATOM     23  C   UNL     1       4.417   4.623  17.266  0.00  0.00    +0.000 A 
BRANCH  23  24
ATOM     24  C   UNL     1       3.085   3.901  17.356  0.00  0.00    +0.000 C 
BRANCH  24  25
ATOM     25  C   UNL     1       2.610   3.606  18.759  0.00  0.00    +0.000 A 
ATOM     26  C   UNL     1       3.439   2.920  19.656  0.00  0.00    +0.000 A 
ATOM     27  C   UNL     1       3.000   2.626  20.948  0.00  0.00    +0.000 A 
ATOM     28  C   UNL     1       1.729   3.017  21.363  0.00  0.00    +0.000 A 
ATOM     29  C   UNL     1       0.900   3.719  20.491  0.00  0.00    +0.000 A 
ATOM     30  C   UNL     1       1.338   4.014  19.198  0.00  0.00    +0.000 A 
ENDBRANCH  24  25
ENDBRANCH  23  24
ENDBRANCH   3  18
TORSDOF 5
ENDMDL
MODEL 5
REMARK VINA RESULT:      -8.6      2.018      2.846
REMARK  Name = 
REMARK  6 active torsions:
REMARK  status: ('A' for Active; 'I' for Inactive)
REMARK    1  A    between atoms: C_1  and  C_2
REMARK    2  A    between atoms: C_4  and  C_5
REMARK    3  A    between atoms: N_7  and  C_8
REMARK    4  A    between atoms: C_13  and  C_14
REMARK    5  A    between atoms: C_14  and  C_15
REMARK    6  A    between atoms: N_22  and  C_23
REMARK                            x       y       z     vdW  Elec       q    Type
REMARK                         _______ _______ _______ _____ _____    ______ ____
ROOT
ATOM      1  C   UNL     1       3.259   6.543  19.166  0.00  0.00    +0.000 C 
ATOM      2  O   UNL     1       3.874   5.863  19.978  0.00  0.00    +0.000 OA
ATOM      3  N   UNL     1       3.439   6.498  17.777  0.00  0.00    +0.000 N 
ATOM      4  H   UNL     1       2.940   7.209  17.257  0.00  0.00    +0.000 HD
ENDROOT
BRANCH   1   8
ATOM      5  C   UNL     1      -0.340   8.770  21.736  0.00  0.00    +0.000 C 
ATOM      6  C   UNL     1       0.782   8.521  20.799  0.00  0.00    +0.000 A 
ATOM      7  N   UNL     1       1.551   7.445  20.801  0.00  0.00    +0.000 NA
ATOM      8  C   UNL     1       2.250   7.542  19.613  0.00  0.00    +0.000 A 
ATOM      9  N   UNL     1       1.911   8.616  18.879  0.00  0.00    +0.000 NA
ATOM     10  N   UNL     1       1.065   9.297  19.681  0.00  0.00    +0.000 N 
BRANCH  10  11
ATOM     11  C   UNL     1       0.584  10.586  19.307  0.00  0.00    +0.000 A 
ATOM     12  C   UNL     1       1.341  11.729  19.627  0.00  0.00    +0.000 A 
ATOM     13  C   UNL     1       0.904  12.999  19.233  0.00  0.00    +0.000 A 
ATOM     14  C   UNL     1      -0.303  13.137  18.560  0.00  0.00    +0.000 A 
ATOM     15  F   UNL     1      -0.724  14.354  18.189  0.00  0.00    +0.000 F 
ATOM     16  C   UNL     1      -1.086  12.024  18.277  0.00  0.00    +0.000 A 
ATOM     17  C   UNL     1      -0.644  10.748  18.647  0.00  0.00    +0.000 A 
ENDBRANCH  10  11
ENDBRANCH   1   8
BRANCH   3  18
ATOM     18  C   UNL     1       4.259   5.585  17.058  0.00  0.00    +0.000 A 
ATOM     19  C   UNL     1       5.496   5.994  16.529  0.00  0.00    +0.000 A 
ATOM     20  C   UNL     1       6.332   5.119  15.831  0.00  0.00    +0.000 A 
ATOM     21  C   UNL     1       5.961   3.796  15.664  0.00  0.00    +0.000 A 
ATOM     22  C   UNL     1       4.744   3.360  16.180  0.00  0.00    +0.000 A 
ATOM     23  C   UNL     1       3.867   4.238  16.866  0.00  0.00    +0.000 A 
BRANCH  23  24
ATOM     24  C   UNL     1       2.521   3.664  17.269  0.00  0.00    +0.000 C 
BRANCH  24  25
ATOM     25  C   UNL     1       2.390   3.306  18.731  0.00  0.00    +0.000 A 
ATOM     26  C   UNL     1       1.205   3.588  19.423  0.00  0.00    +0.000 A 
ATOM     27  C   UNL     1       1.082   3.279  20.779  0.00  0.00    +0.000 A 
ATOM     28  C   UNL     1       2.140   2.680  21.460  0.00  0.00    +0.000 A 
ATOM     29  C   UNL     1       3.317   2.374  20.781  0.00  0.00    +0.000 A 
ATOM     30  C   UNL     1       3.441   2.683  19.424  0.00  0.00    +0.000 A 
ENDBRANCH  24  25
ENDBRANCH  23  24
ENDBRANCH   3  18
TORSDOF 5
ENDMDL
MODEL 6
REMARK VINA RESULT:      -8.5      1.646      2.396
REMARK  Name = 
REMARK  6 active torsions:
REMARK  status: ('A' for Active; 'I' for Inactive)
REMARK    1  A    between atoms: C_1  and  C_2
REMARK    2  A    between atoms: C_4  and  C_5
REMARK    3  A    between atoms: N_7  and  C_8
REMARK    4  A    between atoms: C_13  and  C_14
REMARK    5  A    between atoms: C_14  and  C_15
REMARK    6  A    between atoms: N_22  and  C_23
REMARK                            x       y       z     vdW  Elec       q    Type
REMARK                         _______ _______ _______ _____ _____    ______ ____
ROOT
ATOM      1  C   UNL     1       2.199   8.429  18.241  0.00  0.00    +0.000 C 
ATOM      2  O   UNL     1       2.267   8.963  17.141  0.00  0.00    +0.000 OA
ATOM      3  N   UNL     1       2.795   7.208  18.582  0.00  0.00    +0.000 N 
ATOM      4  H   UNL     1       2.542   6.849  19.494  0.00  0.00    +0.000 HD
ENDROOT
BRANCH   1   8
ATOM      5  C   UNL     1      -0.175   9.081  22.538  0.00  0.00    +0.000 C 
ATOM      6  C   UNL     1       0.496   9.336  21.240  0.00  0.00    +0.000 A 
ATOM      7  N   UNL     1       1.241   8.463  20.583  0.00  0.00    +0.000 NA
ATOM      8  C   UNL     1       1.413   9.048  19.343  0.00  0.00    +0.000 A 
ATOM      9  N   UNL     1       0.776  10.225  19.214  0.00  0.00    +0.000 NA
ATOM     10  N   UNL     1       0.291  10.462  20.452  0.00  0.00    +0.000 N 
BRANCH  10  11
ATOM     11  C   UNL     1      -0.343  11.702  20.761  0.00  0.00    +0.000 A 
ATOM     12  C   UNL     1       0.408  12.735  21.355  0.00  0.00    +0.000 A 
ATOM     13  C   UNL     1      -0.187  13.971  21.630  0.00  0.00    +0.000 A 
ATOM     14  C   UNL     1      -1.534  14.168  21.354  0.00  0.00    +0.000 A 
ATOM     15  F   UNL     1      -2.105  15.350  21.624  0.00  0.00    +0.000 F 
ATOM     16  C   UNL     1      -2.301  13.144  20.811  0.00  0.00    +0.000 A 
ATOM     17  C   UNL     1      -1.708  11.911  20.512  0.00  0.00    +0.000 A 
ENDBRANCH  10  11
ENDBRANCH   1   8
BRANCH   3  18
ATOM     18  C   UNL     1       3.677   6.440  17.772  0.00  0.00    +0.000 A 
ATOM     19  C   UNL     1       4.857   7.008  17.258  0.00  0.00    +0.000 A 
ATOM     20  C   UNL     1       5.751   6.277  16.473  0.00  0.00    +0.000 A 
ATOM     21  C   UNL     1       5.500   4.944  16.199  0.00  0.00    +0.000 A 
ATOM     22  C   UNL     1       4.343   4.354  16.697  0.00  0.00    +0.000 A 
ATOM     23  C   UNL     1       3.407   5.084  17.471  0.00  0.00    +0.000 A 
BRANCH  23  24
ATOM     24  C   UNL     1       2.131   4.353  17.848  0.00  0.00    +0.000 C 
BRANCH  24  25
ATOM     25  C   UNL     1       2.140   3.710  19.216  0.00  0.00    +0.000 A 
ATOM     26  C   UNL     1       3.335   3.218  19.756  0.00  0.00    +0.000 A 
ATOM     27  C   UNL     1       3.349   2.605  21.010  0.00  0.00    +0.000 A 
ATOM     28  C   UNL     1       2.171   2.481  21.743  0.00  0.00    +0.000 A 
ATOM     29  C   UNL     1       0.978   2.984  21.229  0.00  0.00    +0.000 A 
ATOM     30  C   UNL     1       0.963   3.598  19.974  0.00  0.00    +0.000 A 
ENDBRANCH  24  25
ENDBRANCH  23  24
ENDBRANCH   3  18
TORSDOF 5
ENDMDL
MODEL 7
REMARK VINA RESULT:      -8.5      3.802      8.467
REMARK  Name = 
REMARK  6 active torsions:
REMARK  status: ('A' for Active; 'I' for Inactive)
REMARK    1  A    between atoms: C_1  and  C_2
REMARK    2  A    between atoms: C_4  and  C_5
REMARK    3  A    between atoms: N_7  and  C_8
REMARK    4  A    between atoms: C_13  and  C_14
REMARK    5  A    between atoms: C_14  and  C_15
REMARK    6  A    between atoms: N_22  and  C_23
REMARK                            x       y       z     vdW  Elec       q    Type
REMARK                         _______ _______ _______ _____ _____    ______ ____
ROOT
ATOM      1  C   UNL     1       1.190   9.404  20.249  0.00  0.00    +0.000 C 
ATOM      2  O   UNL     1       0.765   9.755  21.342  0.00  0.00    +0.000 OA
ATOM      3  N   UNL     1       1.214  10.204  19.099  0.00  0.00    +0.000 N 
ATOM      4  H   UNL     1       1.486   9.724  18.250  0.00  0.00    +0.000 HD
ENDROOT
BRANCH   1   8
ATOM      5  C   UNL     1       2.234   4.611  20.931  0.00  0.00    +0.000 C 
ATOM      6  C   UNL     1       2.047   5.942  20.305  0.00  0.00    +0.000 A 
ATOM      7  N   UNL     1       1.385   6.952  20.845  0.00  0.00    +0.000 NA
ATOM      8  C   UNL     1       1.709   8.024  20.037  0.00  0.00    +0.000 A 
ATOM      9  N   UNL     1       2.565   7.710  19.049  0.00  0.00    +0.000 NA
ATOM     10  N   UNL     1       2.689   6.369  19.149  0.00  0.00    +0.000 N 
BRANCH  10  11
ATOM     11  C   UNL     1       3.421   5.630  18.173  0.00  0.00    +0.000 A 
ATOM     12  C   UNL     1       4.508   6.237  17.516  0.00  0.00    +0.000 A 
ATOM     13  C   UNL     1       5.262   5.515  16.584  0.00  0.00    +0.000 A 
ATOM     14  C   UNL     1       4.912   4.206  16.276  0.00  0.00    +0.000 A 
ATOM     15  F   UNL     1       5.630   3.517  15.378  0.00  0.00    +0.000 F 
ATOM     16  C   UNL     1       3.813   3.607  16.881  0.00  0.00    +0.000 A 
ATOM     17  C   UNL     1       3.068   4.316  17.831  0.00  0.00    +0.000 A 
ENDBRANCH  10  11
ENDBRANCH   1   8
BRANCH   3  18
ATOM     18  C   UNL     1       0.875  11.583  19.019  0.00  0.00    +0.000 A 
ATOM     19  C   UNL     1       1.878  12.568  18.981  0.00  0.00    +0.000 A 
ATOM     20  C   UNL     1       1.580  13.929  18.887  0.00  0.00    +0.000 A 
ATOM     21  C   UNL     1       0.261  14.342  18.805  0.00  0.00    +0.000 A 
ATOM     22  C   UNL     1      -0.753  13.391  18.836  0.00  0.00    +0.000 A 
ATOM     23  C   UNL     1      -0.475  12.007  18.961  0.00  0.00    +0.000 A 
BRANCH  23  24
ATOM     24  C   UNL     1      -1.675  11.090  19.106  0.00  0.00    +0.000 C 
BRANCH  24  25
ATOM     25  C   UNL     1      -2.470  10.870  17.839  0.00  0.00    +0.000 A 
ATOM     26  C   UNL     1      -1.982  10.020  16.839  0.00  0.00    +0.000 A 
ATOM     27  C   UNL     1      -2.701   9.826  15.657  0.00  0.00    +0.000 A 
ATOM     28  C   UNL     1      -3.918  10.476  15.463  0.00  0.00    +0.000 A 
ATOM     29  C   UNL     1      -4.427  11.307  16.457  0.00  0.00    +0.000 A 
ATOM     30  C   UNL     1      -3.709  11.501  17.640  0.00  0.00    +0.000 A 
ENDBRANCH  24  25
ENDBRANCH  23  24
ENDBRANCH   3  18
TORSDOF 5
ENDMDL
MODEL 8
REMARK VINA RESULT:      -8.4      3.838      8.498
REMARK  Name = 
REMARK  6 active torsions:
REMARK  status: ('A' for Active; 'I' for Inactive)
REMARK    1  A    between atoms: C_1  and  C_2
REMARK    2  A    between atoms: C_4  and  C_5
REMARK    3  A    between atoms: N_7  and  C_8
REMARK    4  A    between atoms: C_13  and  C_14
REMARK    5  A    between atoms: C_14  and  C_15
REMARK    6  A    between atoms: N_22  and  C_23
REMARK                            x       y       z     vdW  Elec       q    Type
REMARK                         _______ _______ _______ _____ _____    ______ ____
ROOT
ATOM      1  C   UNL     1       1.108   9.187  20.429  0.00  0.00    +0.000 C 
ATOM      2  O   UNL     1       0.623   9.554  21.492  0.00  0.00    +0.000 OA
ATOM      3  N   UNL     1       1.187   9.965  19.268  0.00  0.00    +0.000 N 
ATOM      4  H   UNL     1       1.507   9.473  18.443  0.00  0.00    +0.000 HD
ENDROOT
BRANCH   1   8
ATOM      5  C   UNL     1       2.066   4.390  21.200  0.00  0.00    +0.000 C 
ATOM      6  C   UNL     1       1.953   5.724  20.564  0.00  0.00    +0.000 A 
ATOM      7  N   UNL     1       1.233   6.732  21.030  0.00  0.00    +0.000 NA
ATOM      8  C   UNL     1       1.648   7.808  20.271  0.00  0.00    +0.000 A 
ATOM      9  N   UNL     1       2.612   7.499  19.386  0.00  0.00    +0.000 NA
ATOM     10  N   UNL     1       2.724   6.157  19.492  0.00  0.00    +0.000 N 
BRANCH  10  11
ATOM     11  C   UNL     1       3.563   5.423  18.603  0.00  0.00    +0.000 A 
ATOM     12  C   UNL     1       2.981   4.623  17.602  0.00  0.00    +0.000 A 
ATOM     13  C   UNL     1       3.789   3.926  16.696  0.00  0.00    +0.000 A 
ATOM     14  C   UNL     1       5.172   3.992  16.811  0.00  0.00    +0.000 A 
ATOM     15  F   UNL     1       5.946   3.319  15.947  0.00  0.00    +0.000 F 
ATOM     16  C   UNL     1       5.763   4.740  17.822  0.00  0.00    +0.000 A 
ATOM     17  C   UNL     1       4.961   5.457  18.718  0.00  0.00    +0.000 A 
ENDBRANCH  10  11
ENDBRANCH   1   8
BRANCH   3  18
ATOM     18  C   UNL     1       0.842  11.340  19.144  0.00  0.00    +0.000 A 
ATOM     19  C   UNL     1       1.834  12.336  19.188  0.00  0.00    +0.000 A 
ATOM     20  C   UNL     1       1.531  13.693  19.055  0.00  0.00    +0.000 A 
ATOM     21  C   UNL     1       0.222  14.091  18.849  0.00  0.00    +0.000 A 
ATOM     22  C   UNL     1      -0.782  13.128  18.796  0.00  0.00    +0.000 A 
ATOM     23  C   UNL     1      -0.501  11.748  18.959  0.00  0.00    +0.000 A 
BRANCH  23  24
ATOM     24  C   UNL     1      -1.700  10.819  19.002  0.00  0.00    +0.000 C 
BRANCH  24  25
ATOM     25  C   UNL     1      -2.474  10.710  17.708  0.00  0.00    +0.000 A 
ATOM     26  C   UNL     1      -3.670  11.419  17.539  0.00  0.00    +0.000 A 
ATOM     27  C   UNL     1      -4.401  11.308  16.355  0.00  0.00    +0.000 A 
ATOM     28  C   UNL     1      -3.943  10.493  15.322  0.00  0.00    +0.000 A 
ATOM     29  C   UNL     1      -2.744   9.798  15.466  0.00  0.00    +0.000 A 
ATOM     30  C   UNL     1      -2.012   9.908  16.651  0.00  0.00    +0.000 A 
ENDBRANCH  24  25
ENDBRANCH  23  24
ENDBRANCH   3  18
TORSDOF 5
ENDMDL
MODEL 9
REMARK VINA RESULT:      -8.4      1.668      2.861
REMARK  Name = 
REMARK  6 active torsions:
REMARK  status: ('A' for Active; 'I' for Inactive)
REMARK    1  A    between atoms: C_1  and  C_2
REMARK    2  A    between atoms: C_4  and  C_5
REMARK    3  A    between atoms: N_7  and  C_8
REMARK    4  A    between atoms: C_13  and  C_14
REMARK    5  A    between atoms: C_14  and  C_15
REMARK    6  A    between atoms: N_22  and  C_23
REMARK                            x       y       z     vdW  Elec       q    Type
REMARK                         _______ _______ _______ _____ _____    ______ ____
ROOT
ATOM      1  C   UNL     1       2.424   7.296  18.048  0.00  0.00    +0.000 C 
ATOM      2  O   UNL     1       1.691   6.409  17.629  0.00  0.00    +0.000 OA
ATOM      3  N   UNL     1       3.822   7.295  17.957  0.00  0.00    +0.000 N 
ATOM      4  H   UNL     1       4.285   8.043  18.459  0.00  0.00    +0.000 HD
ENDROOT
BRANCH   1   8
ATOM      5  C   UNL     1       0.227  10.152  21.445  0.00  0.00    +0.000 C 
ATOM      6  C   UNL     1       1.017   9.701  20.274  0.00  0.00    +0.000 A 
ATOM      7  N   UNL     1       1.418   8.459  20.058  0.00  0.00    +0.000 NA
ATOM      8  C   UNL     1       1.865   8.483  18.751  0.00  0.00    +0.000 A 
ATOM      9  N   UNL     1       1.722   9.681  18.159  0.00  0.00    +0.000 NA
ATOM     10  N   UNL     1       1.292  10.482  19.158  0.00  0.00    +0.000 N 
BRANCH  10  11
ATOM     11  C   UNL     1       1.151  11.887  18.957  0.00  0.00    +0.000 A 
ATOM     12  C   UNL     1      -0.129  12.430  18.736  0.00  0.00    +0.000 A 
ATOM     13  C   UNL     1      -0.291  13.811  18.575  0.00  0.00    +0.000 A 
ATOM     14  C   UNL     1       0.820  14.645  18.594  0.00  0.00    +0.000 A 
ATOM     15  F   UNL     1       0.665  15.967  18.434  0.00  0.00    +0.000 F 
ATOM     16  C   UNL     1       2.095  14.120  18.765  0.00  0.00    +0.000 A 
ATOM     17  C   UNL     1       2.263  12.742  18.949  0.00  0.00    +0.000 A 
ENDBRANCH  10  11
ENDBRANCH   1   8
BRANCH   3  18
ATOM     18  C   UNL     1       4.625   6.348  17.262  0.00  0.00    +0.000 A 
ATOM     19  C   UNL     1       4.974   6.554  15.915  0.00  0.00    +0.000 A 
ATOM     20  C   UNL     1       5.773   5.652  15.209  0.00  0.00    +0.000 A 
ATOM     21  C   UNL     1       6.268   4.525  15.842  0.00  0.00    +0.000 A 
ATOM     22  C   UNL     1       5.945   4.297  17.176  0.00  0.00    +0.000 A 
ATOM     23  C   UNL     1       5.111   5.183  17.903  0.00  0.00    +0.000 A 
BRANCH  23  24
ATOM     24  C   UNL     1       4.739   4.753  19.311  0.00  0.00    +0.000 C 
BRANCH  24  25
ATOM     25  C   UNL     1       3.367   4.136  19.450  0.00  0.00    +0.000 A 
ATOM     26  C   UNL     1       2.551   4.467  20.539  0.00  0.00    +0.000 A 
ATOM     27  C   UNL     1       1.289   3.887  20.685  0.00  0.00    +0.000 A 
ATOM     28  C   UNL     1       0.826   2.971  19.743  0.00  0.00    +0.000 A 
ATOM     29  C   UNL     1       1.616   2.647  18.643  0.00  0.00    +0.000 A 
ATOM     30  C   UNL     1       2.878   3.228  18.495  0.00  0.00    +0.000 A 
ENDBRANCH  24  25
ENDBRANCH  23  24
ENDBRANCH   3  18
TORSDOF 5
ENDMDL
