MODEL 1
REMARK VINA RESULT:      -9.0      0.000      0.000
REMARK  Name = 
REMARK  4 active torsions:
REMARK  status: ('A' for Active; 'I' for Inactive)
REMARK    1  A    between atoms: C_1  and  C_2
REMARK    2  A    between atoms: C_2  and  N_3
REMARK    3  A    between atoms: C_2  and  C_17
REMARK    4  A    between atoms: C_4  and  C_6
REMARK                            x       y       z     vdW  Elec       q    Type
REMARK                         _______ _______ _______ _____ _____    ______ ____
ROOT
ATOM      1  N   UNL     1       0.800   9.526  19.194  0.00  0.00    +0.000 N 
ATOM      2  C   UNL     1       1.814   9.215  18.304  0.00  0.00    +0.000 C 
ATOM      3  O   UNL     1       2.210   9.981  17.431  0.00  0.00    +0.000 OA
ATOM      4  H   UNL     1       0.683   8.956  20.019  0.00  0.00    +0.000 HD
ENDROOT
BRANCH   2   5
ATOM      5  C   UNL     1       2.457   7.877  18.470  0.00  0.00    +0.000 A 
ATOM      6  C   UNL     1       3.466   7.438  17.602  0.00  0.00    +0.000 A 
ATOM      7  C   UNL     1       4.048   6.181  17.778  0.00  0.00    +0.000 A 
ATOM      8  C   UNL     1       3.614   5.354  18.813  0.00  0.00    +0.000 A 
ATOM      9  C   UNL     1       2.623   5.783  19.702  0.00  0.00    +0.000 A 
ATOM     10  C   UNL     1       2.060   7.058  19.540  0.00  0.00    +0.000 A 
ATOM     11  C   UNL     1       2.265   4.902  20.869  0.00  0.00    +0.000 C 
ATOM     12  C   UNL     1       2.390   3.432  20.492  0.00  0.00    +0.000 C 
ATOM     13  C   UNL     1       3.721   3.137  19.839  0.00  0.00    +0.000 C 
ATOM     14  O   UNL     1       4.299   2.062  19.972  0.00  0.00    +0.000 OA
ATOM     15  N   UNL     1       4.195   4.093  18.978  0.00  0.00    +0.000 N 
ATOM     16  H   UNL     1       5.012   3.831  18.441  0.00  0.00    +0.000 HD
ENDBRANCH   2   5
BRANCH   1  18
ATOM     17  C   UNL     1       0.140  11.433  20.606  0.00  0.00    +0.000 C 
ATOM     18  C   UNL     1       0.173  10.838  19.195  0.00  0.00    +0.000 C 
BRANCH  18  19
ATOM     19  C   UNL     1      -1.226  10.798  18.586  0.00  0.00    +0.000 A 
ATOM     20  C   UNL     1      -1.426  10.051  17.396  0.00  0.00    +0.000 A 
ATOM     21  C   UNL     1      -2.647  10.064  16.714  0.00  0.00    +0.000 A 
ATOM     22  C   UNL     1      -3.659  10.827  17.249  0.00  0.00    +0.000 A 
ATOM     23  C   UNL     1      -3.508  11.544  18.432  0.00  0.00    +0.000 A 
ATOM     24  C   UNL     1      -2.303  11.534  19.121  0.00  0.00    +0.000 A 
ATOM     25  C   UNL     1      -4.786  12.277  18.729  0.00  0.00    +0.000 C 
ATOM     26  C   UNL     1      -5.675  11.878  17.543  0.00  0.00    +0.000 C 
ATOM     27  O   UNL     1      -6.825  12.237  17.338  0.00  0.00    +0.000 OA
ATOM     28  N   UNL     1      -4.931  11.027  16.734  0.00  0.00    +0.000 N 
ATOM     29  H   UNL     1      -5.291  10.634  15.878  0.00  0.00    +0.000 HD
ENDBRANCH  18  19
ENDBRANCH   1  18
TORSDOF 3
ENDMDL
MODEL 2
REMARK VINA RESULT:      -8.8      0.745      1.534
REMARK  Name = 
REMARK  4 active torsions:
REMARK  status: ('A' for Active; 'I' for Inactive)
REMARK    1  A    between atoms: C_1  and  C_2
REMARK    2  A    between atoms: C_2  and  N_3
REMARK    3  A    between atoms: C_2  and  C_17
REMARK    4  A    between atoms: C_4  and  C_6
REMARK                            x       y       z     vdW  Elec       q    Type
REMARK                         _______ _______ _______ _____ _____    ______ ____
ROOT
ATOM      1  N   UNL     1       0.507   9.646  19.128  0.00  0.00    +0.000 N 
ATOM      2  C   UNL     1       1.587   9.135  18.428  0.00  0.00    +0.000 C 
ATOM      3  O   UNL     1       2.137   9.725  17.504  0.00  0.00    +0.000 OA
ATOM      4  H   UNL     1       0.253   9.224  20.009  0.00  0.00    +0.000 HD
ENDROOT
BRANCH   2   5
ATOM      5  C   UNL     1       2.098   7.804  18.874  0.00  0.00    +0.000 A 
ATOM      6  C   UNL     1       1.744   7.264  20.118  0.00  0.00    +0.000 A 
ATOM      7  C   UNL     1       2.240   6.020  20.513  0.00  0.00    +0.000 A 
ATOM      8  C   UNL     1       3.101   5.318  19.672  0.00  0.00    +0.000 A 
ATOM      9  C   UNL     1       3.450   5.831  18.417  0.00  0.00    +0.000 A 
ATOM     10  C   UNL     1       2.928   7.068  18.012  0.00  0.00    +0.000 A 
ATOM     11  C   UNL     1       4.294   4.988  17.499  0.00  0.00    +0.000 C 
ATOM     12  C   UNL     1       5.278   4.143  18.296  0.00  0.00    +0.000 C 
ATOM     13  C   UNL     1       4.589   3.395  19.415  0.00  0.00    +0.000 C 
ATOM     14  O   UNL     1       4.958   2.286  19.794  0.00  0.00    +0.000 OA
ATOM     15  N   UNL     1       3.601   4.077  20.076  0.00  0.00    +0.000 N 
ATOM     16  H   UNL     1       3.241   3.626  20.907  0.00  0.00    +0.000 HD
ENDBRANCH   2   5
BRANCH   1  18
ATOM     17  C   UNL     1       0.114  11.883  20.080  0.00  0.00    +0.000 C 
ATOM     18  C   UNL     1      -0.010  10.976  18.852  0.00  0.00    +0.000 C 
BRANCH  18  19
ATOM     19  C   UNL     1      -1.450  10.932  18.348  0.00  0.00    +0.000 A 
ATOM     20  C   UNL     1      -1.729  10.215  17.155  0.00  0.00    +0.000 A 
ATOM     21  C   UNL     1      -2.999  10.228  16.568  0.00  0.00    +0.000 A 
ATOM     22  C   UNL     1      -3.978  10.959  17.199  0.00  0.00    +0.000 A 
ATOM     23  C   UNL     1      -3.747  11.646  18.388  0.00  0.00    +0.000 A 
ATOM     24  C   UNL     1      -2.493  11.636  18.983  0.00  0.00    +0.000 A 
ATOM     25  C   UNL     1      -5.009  12.350  18.801  0.00  0.00    +0.000 C 
ATOM     26  C   UNL     1      -5.979  11.970  17.674  0.00  0.00    +0.000 C 
ATOM     27  O   UNL     1      -7.146  12.317  17.566  0.00  0.00    +0.000 OA
ATOM     28  N   UNL     1      -5.288  11.154  16.787  0.00  0.00    +0.000 N 
ATOM     29  H   UNL     1      -5.705  10.780  15.949  0.00  0.00    +0.000 HD
ENDBRANCH  18  19
ENDBRANCH   1  18
TORSDOF 3
ENDMDL
MODEL 3
REMARK VINA RESULT:      -8.6      1.032      1.068
REMARK  Name = 
REMARK  4 active torsions:
REMARK  status: ('A' for Active; 'I' for Inactive)
REMARK    1  A    between atoms: C_1  and  C_2
REMARK    2  A    between atoms: C_2  and  N_3
REMARK    3  A    between atoms: C_2  and  C_17
REMARK    4  A    between atoms: C_4  and  C_6
REMARK                            x       y       z     vdW  Elec       q    Type
REMARK                         _______ _______ _______ _____ _____    ______ ____
ROOT
ATOM      1  N   UNL     1       1.168   8.980  19.077  0.00  0.00    +0.000 N 
ATOM      2  C   UNL     1       2.069   8.672  18.072  0.00  0.00    +0.000 C 
ATOM      3  O   UNL     1       2.451   9.479  17.232  0.00  0.00    +0.000 OA
ATOM      4  H   UNL     1       1.074   8.350  19.860  0.00  0.00    +0.000 HD
ENDROOT
BRANCH   2   5
ATOM      5  C   UNL     1       2.606   7.278  18.067  0.00  0.00    +0.000 A 
ATOM      6  C   UNL     1       3.865   6.982  17.527  0.00  0.00    +0.000 A 
ATOM      7  C   UNL     1       4.342   5.669  17.531  0.00  0.00    +0.000 A 
ATOM      8  C   UNL     1       3.557   4.648  18.063  0.00  0.00    +0.000 A 
ATOM      9  C   UNL     1       2.307   4.927  18.626  0.00  0.00    +0.000 A 
ATOM     10  C   UNL     1       1.842   6.250  18.644  0.00  0.00    +0.000 A 
ATOM     11  C   UNL     1       1.543   3.810  19.286  0.00  0.00    +0.000 C 
ATOM     12  C   UNL     1       1.800   2.488  18.575  0.00  0.00    +0.000 C 
ATOM     13  C   UNL     1       3.279   2.240  18.381  0.00  0.00    +0.000 C 
ATOM     14  O   UNL     1       3.768   1.113  18.399  0.00  0.00    +0.000 OA
ATOM     15  N   UNL     1       4.036   3.335  18.056  0.00  0.00    +0.000 N 
ATOM     16  H   UNL     1       4.994   3.141  17.794  0.00  0.00    +0.000 HD
ENDBRANCH   2   5
BRANCH   1  18
ATOM     17  C   UNL     1       0.748  10.777  20.708  0.00  0.00    +0.000 C 
ATOM     18  C   UNL     1       0.658  10.332  19.245  0.00  0.00    +0.000 C 
BRANCH  18  19
ATOM     19  C   UNL     1      -0.767  10.471  18.717  0.00  0.00    +0.000 A 
ATOM     20  C   UNL     1      -1.104   9.824  17.499  0.00  0.00    +0.000 A 
ATOM     21  C   UNL     1      -2.352  10.003  16.891  0.00  0.00    +0.000 A 
ATOM     22  C   UNL     1      -3.250  10.827  17.528  0.00  0.00    +0.000 A 
ATOM     23  C   UNL     1      -2.965  11.449  18.740  0.00  0.00    +0.000 A 
ATOM     24  C   UNL     1      -1.733  11.275  19.355  0.00  0.00    +0.000 A 
ATOM     25  C   UNL     1      -4.143  12.285  19.152  0.00  0.00    +0.000 C 
ATOM     26  C   UNL     1      -5.129  12.052  17.999  0.00  0.00    +0.000 C 
ATOM     27  O   UNL     1      -6.245  12.537  17.882  0.00  0.00    +0.000 OA
ATOM     28  N   UNL     1      -4.520  11.185  17.100  0.00  0.00    +0.000 N 
ATOM     29  H   UNL     1      -4.962  10.886  16.245  0.00  0.00    +0.000 HD
ENDBRANCH  18  19
ENDBRANCH   1  18
TORSDOF 3
ENDMDL
MODEL 4
REMARK VINA RESULT:      -8.6      6.252      9.501
REMARK  Name = 
REMARK  4 active torsions:
REMARK  status: ('A' for Active; 'I' for Inactive)
REMARK    1  A    between atoms: C_1  and  C_2
REMARK    2  A    between atoms: C_2  and  N_3
REMARK    3  A    between atoms: C_2  and  C_17
REMARK    4  A    between atoms: C_4  and  C_6
REMARK                            x       y       z     vdW  Elec       q    Type
REMARK                         _______ _______ _______ _____ _____    ______ ____
ROOT
ATOM      1  N   UNL     1       7.166   7.105  16.935  0.00  0.00    +0.000 N 
ATOM      2  C   UNL     1       7.880   7.481  18.060  0.00  0.00    +0.000 C 
ATOM      3  O   UNL     1       8.229   6.697  18.936  0.00  0.00    +0.000 OA
ATOM      4  H   UNL     1       7.112   7.743  16.155  0.00  0.00    +0.000 HD
ENDROOT
BRANCH   2   5
ATOM      5  C   UNL     1       8.254   8.924  18.157  0.00  0.00    +0.000 A 
ATOM      6  C   UNL     1       7.714   9.880  17.286  0.00  0.00    +0.000 A 
ATOM      7  C   UNL     1       8.084  11.222  17.397  0.00  0.00    +0.000 A 
ATOM      8  C   UNL     1       9.004  11.610  18.369  0.00  0.00    +0.000 A 
ATOM      9  C   UNL     1       9.537  10.674  19.262  0.00  0.00    +0.000 A 
ATOM     10  C   UNL     1       9.143   9.332  19.166  0.00  0.00    +0.000 A 
ATOM     11  C   UNL     1      10.442  11.157  20.364  0.00  0.00    +0.000 C 
ATOM     12  C   UNL     1      11.267  12.350  19.900  0.00  0.00    +0.000 C 
ATOM     13  C   UNL     1      10.401  13.409  19.258  0.00  0.00    +0.000 C 
ATOM     14  O   UNL     1      10.654  14.609  19.338  0.00  0.00    +0.000 OA
ATOM     15  N   UNL     1       9.377  12.954  18.469  0.00  0.00    +0.000 N 
ATOM     16  H   UNL     1       8.889  13.661  17.935  0.00  0.00    +0.000 HD
ENDBRANCH   2   5
BRANCH   1  18
ATOM     17  C   UNL     1       7.131   5.331  15.227  0.00  0.00    +0.000 C 
ATOM     18  C   UNL     1       6.836   5.712  16.681  0.00  0.00    +0.000 C 
BRANCH  18  19
ATOM     19  C   UNL     1       5.389   5.394  17.047  0.00  0.00    +0.000 A 
ATOM     20  C   UNL     1       4.569   6.444  17.540  0.00  0.00    +0.000 A 
ATOM     21  C   UNL     1       3.272   6.207  18.007  0.00  0.00    +0.000 A 
ATOM     22  C   UNL     1       2.813   4.911  17.963  0.00  0.00    +0.000 A 
ATOM     23  C   UNL     1       3.577   3.865  17.454  0.00  0.00    +0.000 A 
ATOM     24  C   UNL     1       4.864   4.088  16.983  0.00  0.00    +0.000 A 
ATOM     25  C   UNL     1       2.795   2.587  17.564  0.00  0.00    +0.000 C 
ATOM     26  C   UNL     1       1.486   3.059  18.213  0.00  0.00    +0.000 C 
ATOM     27  O   UNL     1       0.526   2.364  18.510  0.00  0.00    +0.000 OA
ATOM     28  N   UNL     1       1.589   4.431  18.405  0.00  0.00    +0.000 N 
ATOM     29  H   UNL     1       0.858   4.980  18.830  0.00  0.00    +0.000 HD
ENDBRANCH  18  19
ENDBRANCH   1  18
TORSDOF 3
ENDMDL
MODEL 5
REMARK VINA RESULT:      -8.6      3.480      9.438
REMARK  Name = 
REMARK  4 active torsions:
REMARK  status: ('A' for Active; 'I' for Inactive)
REMARK    1  A    between atoms: C_1  and  C_2
REMARK    2  A    between atoms: C_2  and  N_3
REMARK    3  A    between atoms: C_2  and  C_17
REMARK    4  A    between atoms: C_4  and  C_6
REMARK                            x       y       z     vdW  Elec       q    Type
REMARK                         _______ _______ _______ _____ _____    ______ ____
ROOT
ATOM      1  N   UNL     1       3.459   5.186  19.403  0.00  0.00    +0.000 N 
ATOM      2  C   UNL     1       2.470   5.911  18.760  0.00  0.00    +0.000 C 
ATOM      3  O   UNL     1       1.986   5.589  17.680  0.00  0.00    +0.000 OA
ATOM      4  H   UNL     1       3.645   5.373  20.377  0.00  0.00    +0.000 HD
ENDROOT
BRANCH   2   5
ATOM      5  C   UNL     1       1.970   7.127  19.469  0.00  0.00    +0.000 A 
ATOM      6  C   UNL     1       1.638   7.095  20.830  0.00  0.00    +0.000 A 
ATOM      7  C   UNL     1       1.168   8.246  21.468  0.00  0.00    +0.000 A 
ATOM      8  C   UNL     1       1.018   9.427  20.744  0.00  0.00    +0.000 A 
ATOM      9  C   UNL     1       1.364   9.485  19.390  0.00  0.00    +0.000 A 
ATOM     10  C   UNL     1       1.861   8.335  18.759  0.00  0.00    +0.000 A 
ATOM     11  C   UNL     1       1.289  10.809  18.678  0.00  0.00    +0.000 C 
ATOM     12  C   UNL     1       0.144  11.650  19.225  0.00  0.00    +0.000 C 
ATOM     13  C   UNL     1       0.182  11.725  20.735  0.00  0.00    +0.000 C 
ATOM     14  O   UNL     1      -0.192  12.716  21.357  0.00  0.00    +0.000 OA
ATOM     15  N   UNL     1       0.539  10.573  21.386  0.00  0.00    +0.000 N 
ATOM     16  H   UNL     1       0.430  10.588  22.392  0.00  0.00    +0.000 HD
ENDBRANCH   2   5
BRANCH   1  18
ATOM     17  C   UNL     1       4.467   3.013  19.971  0.00  0.00    +0.000 C 
ATOM     18  C   UNL     1       3.949   3.930  18.859  0.00  0.00    +0.000 C 
BRANCH  18  19
ATOM     19  C   UNL     1       5.016   4.152  17.791  0.00  0.00    +0.000 A 
ATOM     20  C   UNL     1       6.268   4.692  18.186  0.00  0.00    +0.000 A 
ATOM     21  C   UNL     1       7.250   5.034  17.250  0.00  0.00    +0.000 A 
ATOM     22  C   UNL     1       6.960   4.817  15.923  0.00  0.00    +0.000 A 
ATOM     23  C   UNL     1       5.756   4.257  15.504  0.00  0.00    +0.000 A 
ATOM     24  C   UNL     1       4.776   3.909  16.423  0.00  0.00    +0.000 A 
ATOM     25  C   UNL     1       5.750   4.171  14.004  0.00  0.00    +0.000 C 
ATOM     26  C   UNL     1       7.116   4.767  13.637  0.00  0.00    +0.000 C 
ATOM     27  O   UNL     1       7.570   4.917  12.513  0.00  0.00    +0.000 OA
ATOM     28  N   UNL     1       7.751   5.112  14.824  0.00  0.00    +0.000 N 
ATOM     29  H   UNL     1       8.664   5.539  14.851  0.00  0.00    +0.000 HD
ENDBRANCH  18  19
ENDBRANCH   1  18
TORSDOF 3
ENDMDL
MODEL 6
REMARK VINA RESULT:      -8.5      1.177      1.849
REMARK  Name = 
REMARK  4 active torsions:
REMARK  status: ('A' for Active; 'I' for Inactive)
REMARK    1  A    between atoms: C_1  and  C_2
REMARK    2  A    between atoms: C_2  and  N_3
REMARK    3  A    between atoms: C_2  and  C_17
REMARK    4  A    between atoms: C_4  and  C_6
REMARK                            x       y       z     vdW  Elec       q    Type
REMARK                         _______ _______ _______ _____ _____    ______ ____
ROOT
ATOM      1  N   UNL     1       0.588   9.261  19.592  0.00  0.00    +0.000 N 
ATOM      2  C   UNL     1       1.687   9.099  18.766  0.00  0.00    +0.000 C 
ATOM      3  O   UNL     1       2.143   9.993  18.059  0.00  0.00    +0.000 OA
ATOM      4  H   UNL     1       0.408   8.572  20.306  0.00  0.00    +0.000 HD
ENDROOT
BRANCH   2   5
ATOM      5  C   UNL     1       2.346   7.759  18.791  0.00  0.00    +0.000 A 
ATOM      6  C   UNL     1       3.265   7.377  17.805  0.00  0.00    +0.000 A 
ATOM      7  C   UNL     1       3.864   6.116  17.850  0.00  0.00    +0.000 A 
ATOM      8  C   UNL     1       3.536   5.229  18.874  0.00  0.00    +0.000 A 
ATOM      9  C   UNL     1       2.637   5.600  19.880  0.00  0.00    +0.000 A 
ATOM     10  C   UNL     1       2.058   6.877  19.846  0.00  0.00    +0.000 A 
ATOM     11  C   UNL     1       2.397   4.651  21.024  0.00  0.00    +0.000 C 
ATOM     12  C   UNL     1       2.486   3.206  20.552  0.00  0.00    +0.000 C 
ATOM     13  C   UNL     1       3.747   2.958  19.756  0.00  0.00    +0.000 C 
ATOM     14  O   UNL     1       4.337   1.881  19.770  0.00  0.00    +0.000 OA
ATOM     15  N   UNL     1       4.132   3.965  18.909  0.00  0.00    +0.000 N 
ATOM     16  H   UNL     1       4.892   3.740  18.280  0.00  0.00    +0.000 HD
ENDBRANCH   2   5
BRANCH   1  18
ATOM     17  C   UNL     1      -0.626  10.738  21.143  0.00  0.00    +0.000 C 
ATOM     18  C   UNL     1      -0.071  10.550  19.728  0.00  0.00    +0.000 C 
BRANCH  18  19
ATOM     19  C   UNL     1      -1.163  10.744  18.681  0.00  0.00    +0.000 A 
ATOM     20  C   UNL     1      -2.293  11.535  19.018  0.00  0.00    +0.000 A 
ATOM     21  C   UNL     1      -3.388  11.660  18.157  0.00  0.00    +0.000 A 
ATOM     22  C   UNL     1      -3.326  10.991  16.957  0.00  0.00    +0.000 A 
ATOM     23  C   UNL     1      -2.219  10.235  16.580  0.00  0.00    +0.000 A 
ATOM     24  C   UNL     1      -1.124  10.108  17.423  0.00  0.00    +0.000 A 
ATOM     25  C   UNL     1      -2.476   9.628  15.230  0.00  0.00    +0.000 C 
ATOM     26  C   UNL     1      -3.885  10.142  14.903  0.00  0.00    +0.000 C 
ATOM     27  O   UNL     1      -4.534   9.905  13.895  0.00  0.00    +0.000 OA
ATOM     28  N   UNL     1      -4.297  10.932  15.969  0.00  0.00    +0.000 N 
ATOM     29  H   UNL     1      -5.201  11.378  16.001  0.00  0.00    +0.000 HD
ENDBRANCH  18  19
ENDBRANCH   1  18
TORSDOF 3
ENDMDL
MODEL 7
REMARK VINA RESULT:      -8.4      1.506      1.996
REMARK  Name = 
REMARK  4 active torsions:
REMARK  status: ('A' for Active; 'I' for Inactive)
REMARK    1  A    between atoms: C_1  and  C_2
REMARK    2  A    between atoms: C_2  and  N_3
REMARK    3  A    between atoms: C_2  and  C_17
REMARK    4  A    between atoms: C_4  and  C_6
REMARK                            x       y       z     vdW  Elec       q    Type
REMARK                         _______ _______ _______ _____ _____    ______ ____
ROOT
ATOM      1  N   UNL     1       1.274   8.736  19.800  0.00  0.00    +0.000 N 
ATOM      2  C   UNL     1       2.165   8.548  18.757  0.00  0.00    +0.000 C 
ATOM      3  O   UNL     1       2.581   9.459  18.047  0.00  0.00    +0.000 OA
ATOM      4  H   UNL     1       1.154   7.998  20.478  0.00  0.00    +0.000 HD
ENDROOT
BRANCH   2   5
ATOM      5  C   UNL     1       2.646   7.152  18.537  0.00  0.00    +0.000 A 
ATOM      6  C   UNL     1       3.636   6.860  17.589  0.00  0.00    +0.000 A 
ATOM      7  C   UNL     1       4.065   5.544  17.400  0.00  0.00    +0.000 A 
ATOM      8  C   UNL     1       3.498   4.516  18.150  0.00  0.00    +0.000 A 
ATOM      9  C   UNL     1       2.524   4.790  19.117  0.00  0.00    +0.000 A 
ATOM     10  C   UNL     1       2.115   6.115  19.323  0.00  0.00    +0.000 A 
ATOM     11  C   UNL     1       2.021   3.662  19.979  0.00  0.00    +0.000 C 
ATOM     12  C   UNL     1       1.996   2.357  19.196  0.00  0.00    +0.000 C 
ATOM     13  C   UNL     1       3.312   2.102  18.497  0.00  0.00    +0.000 C 
ATOM     14  O   UNL     1       3.760   0.972  18.321  0.00  0.00    +0.000 OA
ATOM     15  N   UNL     1       3.926   3.200  17.951  0.00  0.00    +0.000 N 
ATOM     16  H   UNL     1       4.730   3.006  17.369  0.00  0.00    +0.000 HD
ENDBRANCH   2   5
BRANCH   1  18
ATOM     17  C   UNL     1       0.365  10.102  21.637  0.00  0.00    +0.000 C 
ATOM     18  C   UNL     1       0.818  10.065  20.174  0.00  0.00    +0.000 C 
BRANCH  18  19
ATOM     19  C   UNL     1      -0.284  10.569  19.246  0.00  0.00    +0.000 A 
ATOM     20  C   UNL     1      -1.010  11.729  19.625  0.00  0.00    +0.000 A 
ATOM     21  C   UNL     1      -2.110  12.181  18.889  0.00  0.00    +0.000 A 
ATOM     22  C   UNL     1      -2.460  11.461  17.771  0.00  0.00    +0.000 A 
ATOM     23  C   UNL     1      -1.749  10.339  17.352  0.00  0.00    +0.000 A 
ATOM     24  C   UNL     1      -0.653   9.884  18.071  0.00  0.00    +0.000 A 
ATOM     25  C   UNL     1      -2.396   9.781  16.117  0.00  0.00    +0.000 C 
ATOM     26  C   UNL     1      -3.575  10.740  15.903  0.00  0.00    +0.000 C 
ATOM     27  O   UNL     1      -4.408  10.687  15.010  0.00  0.00    +0.000 OA
ATOM     28  N   UNL     1      -3.528  11.689  16.916  0.00  0.00    +0.000 N 
ATOM     29  H   UNL     1      -4.208  12.429  17.005  0.00  0.00    +0.000 HD
ENDBRANCH  18  19
ENDBRANCH   1  18
TORSDOF 3
ENDMDL
MODEL 8
REMARK VINA RESULT:      -8.2      1.627      2.599
REMARK  Name = 
REMARK  4 active torsions:
REMARK  status: ('A' for Active; 'I' for Inactive)
REMARK    1  A    between atoms: C_1  and  C_2
REMARK    2  A    between atoms: C_2  and  N_3
REMARK    3  A    between atoms: C_2  and  C_17
REMARK    4  A    between atoms: C_4  and  C_6
REMARK                            x       y       z     vdW  Elec       q    Type
REMARK                         _______ _______ _______ _____ _____    ______ ____
ROOT
ATOM      1  N   UNL     1       0.710   8.661  20.768  0.00  0.00    +0.000 N 
ATOM      2  C   UNL     1       1.666   8.271  19.845  0.00  0.00    +0.000 C 
ATOM      3  O   UNL     1       2.277   9.057  19.128  0.00  0.00    +0.000 OA
ATOM      4  H   UNL     1       0.418   8.003  21.475  0.00  0.00    +0.000 HD
ENDROOT
BRANCH   2   5
ATOM      5  C   UNL     1       1.964   6.810  19.773  0.00  0.00    +0.000 A 
ATOM      6  C   UNL     1       1.691   5.954  20.849  0.00  0.00    +0.000 A 
ATOM      7  C   UNL     1       1.982   4.592  20.757  0.00  0.00    +0.000 A 
ATOM      8  C   UNL     1       2.559   4.082  19.595  0.00  0.00    +0.000 A 
ATOM      9  C   UNL     1       2.819   4.917  18.502  0.00  0.00    +0.000 A 
ATOM     10  C   UNL     1       2.500   6.280  18.588  0.00  0.00    +0.000 A 
ATOM     11  C   UNL     1       3.340   4.303  17.230  0.00  0.00    +0.000 C 
ATOM     12  C   UNL     1       4.242   3.115  17.535  0.00  0.00    +0.000 C 
ATOM     13  C   UNL     1       3.586   2.153  18.499  0.00  0.00    +0.000 C 
ATOM     14  O   UNL     1       3.779   0.941  18.458  0.00  0.00    +0.000 OA
ATOM     15  N   UNL     1       2.857   2.719  19.513  0.00  0.00    +0.000 N 
ATOM     16  H   UNL     1       2.537   2.081  20.230  0.00  0.00    +0.000 HD
ENDBRANCH   2   5
BRANCH   1  18
ATOM     17  C   UNL     1      -0.095  10.293  22.427  0.00  0.00    +0.000 C 
ATOM     18  C   UNL     1       0.412  10.065  21.000  0.00  0.00    +0.000 C 
BRANCH  18  19
ATOM     19  C   UNL     1      -0.576  10.612  19.974  0.00  0.00    +0.000 A 
ATOM     20  C   UNL     1      -1.335  11.763  20.312  0.00  0.00    +0.000 A 
ATOM     21  C   UNL     1      -2.344  12.253  19.475  0.00  0.00    +0.000 A 
ATOM     22  C   UNL     1      -2.568  11.577  18.297  0.00  0.00    +0.000 A 
ATOM     23  C   UNL     1      -1.819  10.467  17.919  0.00  0.00    +0.000 A 
ATOM     24  C   UNL     1      -0.813   9.975  18.739  0.00  0.00    +0.000 A 
ATOM     25  C   UNL     1      -2.325   9.960  16.598  0.00  0.00    +0.000 C 
ATOM     26  C   UNL     1      -3.468  10.937  16.289  0.00  0.00    +0.000 C 
ATOM     27  O   UNL     1      -4.194  10.925  15.307  0.00  0.00    +0.000 OA
ATOM     28  N   UNL     1      -3.532  11.847  17.337  0.00  0.00    +0.000 N 
ATOM     29  H   UNL     1      -4.214  12.588  17.377  0.00  0.00    +0.000 HD
ENDBRANCH  18  19
ENDBRANCH   1  18
TORSDOF 3
ENDMDL
MODEL 9
REMARK VINA RESULT:      -8.2      6.037      9.598
REMARK  Name = 
REMARK  4 active torsions:
REMARK  status: ('A' for Active; 'I' for Inactive)
REMARK    1  A    between atoms: C_1  and  C_2
REMARK    2  A    between atoms: C_2  and  N_3
REMARK    3  A    between atoms: C_2  and  C_17
REMARK    4  A    between atoms: C_4  and  C_6
REMARK                            x       y       z     vdW  Elec       q    Type
REMARK                         _______ _______ _______ _____ _____    ______ ____
ROOT
ATOM      1  N   UNL     1       7.112   7.445  17.144  0.00  0.00    +0.000 N 
ATOM      2  C   UNL     1       7.970   7.814  18.166  0.00  0.00    +0.000 C 
ATOM      3  O   UNL     1       8.428   7.024  18.986  0.00  0.00    +0.000 OA
ATOM      4  H   UNL     1       6.959   8.086  16.380  0.00  0.00    +0.000 HD
ENDROOT
BRANCH   2   5
ATOM      5  C   UNL     1       8.362   9.254  18.218  0.00  0.00    +0.000 A 
ATOM      6  C   UNL     1       7.773  10.203  17.371  0.00  0.00    +0.000 A 
ATOM      7  C   UNL     1       8.160  11.543  17.438  0.00  0.00    +0.000 A 
ATOM      8  C   UNL     1       9.146  11.936  18.341  0.00  0.00    +0.000 A 
ATOM      9  C   UNL     1       9.730  11.007  19.209  0.00  0.00    +0.000 A 
ATOM     10  C   UNL     1       9.319   9.667  19.159  0.00  0.00    +0.000 A 
ATOM     11  C   UNL     1      10.710  11.497  20.242  0.00  0.00    +0.000 C 
ATOM     12  C   UNL     1      11.512  12.676  19.707  0.00  0.00    +0.000 C 
ATOM     13  C   UNL     1      10.614  13.734  19.110  0.00  0.00    +0.000 C 
ATOM     14  O   UNL     1      10.882  14.932  19.156  0.00  0.00    +0.000 OA
ATOM     15  N   UNL     1       9.536  13.277  18.397  0.00  0.00    +0.000 N 
ATOM     16  H   UNL     1       9.019  13.982  17.887  0.00  0.00    +0.000 HD
ENDBRANCH   2   5
BRANCH   1  18
ATOM     17  C   UNL     1       6.746   5.706  15.439  0.00  0.00    +0.000 C 
ATOM     18  C   UNL     1       6.744   6.055  16.931  0.00  0.00    +0.000 C 
BRANCH  18  19
ATOM     19  C   UNL     1       5.400   5.718  17.570  0.00  0.00    +0.000 A 
ATOM     20  C   UNL     1       4.349   6.668  17.477  0.00  0.00    +0.000 A 
ATOM     21  C   UNL     1       3.129   6.484  18.137  0.00  0.00    +0.000 A 
ATOM     22  C   UNL     1       2.982   5.335  18.879  0.00  0.00    +0.000 A 
ATOM     23  C   UNL     1       3.979   4.368  18.964  0.00  0.00    +0.000 A 
ATOM     24  C   UNL     1       5.191   4.536  18.309  0.00  0.00    +0.000 A 
ATOM     25  C   UNL     1       3.509   3.256  19.859  0.00  0.00    +0.000 C 
ATOM     26  C   UNL     1       2.110   3.737  20.272  0.00  0.00    +0.000 C 
ATOM     27  O   UNL     1       1.329   3.160  21.012  0.00  0.00    +0.000 OA
ATOM     28  N   UNL     1       1.890   4.958  19.647  0.00  0.00    +0.000 N 
ATOM     29  H   UNL     1       1.042   5.490  19.770  0.00  0.00    +0.000 HD
ENDBRANCH  18  19
ENDBRANCH   1  18
TORSDOF 3
ENDMDL
