MODEL 1
REMARK VINA RESULT:      -8.8      0.000      0.000
REMARK  Name = 
REMARK  1 active torsions:
REMARK  status: ('A' for Active; 'I' for Inactive)
REMARK    1  A    between atoms: C_9  and  N_10
REMARK                            x       y       z     vdW  Elec       q    Type
REMARK                         _______ _______ _______ _____ _____    ______ ____
ROOT
ATOM      1  N   UNL     1       1.613   8.274  20.813  0.00  0.00    +0.000 N 
ATOM      2  C   UNL     1       0.452   8.547  21.507  0.00  0.00    +0.000 C 
ATOM      3  O   UNL     1      -0.433   7.719  21.713  0.00  0.00    +0.000 OA
ATOM      4  N   UNL     1       0.358   9.842  21.997  0.00  0.00    +0.000 N 
ATOM      5  C   UNL     1      -0.789  10.199  22.839  0.00  0.00    +0.000 C 
ATOM      6  C   UNL     1      -1.418  11.560  22.554  0.00  0.00    +0.000 A 
ATOM      7  C   UNL     1      -2.514  11.972  23.325  0.00  0.00    +0.000 A 
ATOM      8  C   UNL     1      -3.097  13.215  23.100  0.00  0.00    +0.000 A 
ATOM      9  C   UNL     1      -2.573  14.061  22.122  0.00  0.00    +0.000 A 
ATOM     10  C   UNL     1      -1.483  13.658  21.345  0.00  0.00    +0.000 A 
ATOM     11  C   UNL     1      -0.906  12.396  21.524  0.00  0.00    +0.000 A 
ATOM     12  C   UNL     1       0.174  11.797  20.648  0.00  0.00    +0.000 C 
ATOM     13  C   UNL     1       0.686  12.122  19.264  0.00  0.00    +0.000 C 
ATOM     14  C   UNL     1      -0.517  11.265  19.366  0.00  0.00    +0.000 C 
ATOM     15  C   UNL     1       1.123  10.964  21.482  0.00  0.00    +0.000 C 
ATOM     16  H   UNL     1       2.421   8.813  21.087  0.00  0.00    +0.000 HD
ENDROOT
BRANCH   1  25
ATOM     17  O   UNL     1       1.886   3.329  21.999  0.00  0.00    +0.000 OA
ATOM     18  C   UNL     1       1.975   3.389  20.773  0.00  0.00    +0.000 C 
ATOM     19  N   UNL     1       1.985   2.241  20.004  0.00  0.00    +0.000 N 
ATOM     20  C   UNL     1       1.771   2.293  18.578  0.00  0.00    +0.000 C 
ATOM     21  C   UNL     1       2.579   3.415  17.936  0.00  0.00    +0.000 C 
ATOM     22  C   UNL     1       2.346   4.708  18.675  0.00  0.00    +0.000 A 
ATOM     23  C   UNL     1       2.451   5.931  18.025  0.00  0.00    +0.000 A 
ATOM     24  C   UNL     1       2.225   7.120  18.718  0.00  0.00    +0.000 A 
ATOM     25  C   UNL     1       1.895   7.103  20.080  0.00  0.00    +0.000 A 
ATOM     26  C   UNL     1       1.853   5.880  20.754  0.00  0.00    +0.000 A 
ATOM     27  C   UNL     1       2.062   4.680  20.054  0.00  0.00    +0.000 A 
ATOM     28  H   UNL     1       1.805   1.394  20.519  0.00  0.00    +0.000 HD
ENDBRANCH   1  25
TORSDOF 1
ENDMDL
MODEL 2
REMARK VINA RESULT:      -8.5      2.558      8.791
REMARK  Name = 
REMARK  1 active torsions:
REMARK  status: ('A' for Active; 'I' for Inactive)
REMARK    1  A    between atoms: C_9  and  N_10
REMARK                            x       y       z     vdW  Elec       q    Type
REMARK                         _______ _______ _______ _____ _____    ______ ____
ROOT
ATOM      1  N   UNL     1       1.738   8.661  19.289  0.00  0.00    +0.000 N 
ATOM      2  C   UNL     1       2.508   8.460  18.160  0.00  0.00    +0.000 C 
ATOM      3  O   UNL     1       2.419   9.141  17.141  0.00  0.00    +0.000 OA
ATOM      4  N   UNL     1       3.434   7.431  18.264  0.00  0.00    +0.000 N 
ATOM      5  C   UNL     1       4.372   7.208  17.158  0.00  0.00    +0.000 C 
ATOM      6  C   UNL     1       4.610   5.749  16.779  0.00  0.00    +0.000 A 
ATOM      7  C   UNL     1       5.501   5.460  15.735  0.00  0.00    +0.000 A 
ATOM      8  C   UNL     1       5.751   4.139  15.379  0.00  0.00    +0.000 A 
ATOM      9  C   UNL     1       5.134   3.101  16.079  0.00  0.00    +0.000 A 
ATOM     10  C   UNL     1       4.242   3.380  17.119  0.00  0.00    +0.000 A 
ATOM     11  C   UNL     1       3.941   4.701  17.468  0.00  0.00    +0.000 A 
ATOM     12  C   UNL     1       2.886   5.122  18.469  0.00  0.00    +0.000 C 
ATOM     13  C   UNL     1       1.702   4.414  19.087  0.00  0.00    +0.000 C 
ATOM     14  C   UNL     1       1.513   5.031  17.754  0.00  0.00    +0.000 C 
ATOM     15  C   UNL     1       3.343   6.349  19.228  0.00  0.00    +0.000 C 
ATOM     16  H   UNL     1       2.172   8.403  20.162  0.00  0.00    +0.000 HD
ENDROOT
BRANCH   1  25
ATOM     17  O   UNL     1      -0.466  11.110  23.170  0.00  0.00    +0.000 OA
ATOM     18  C   UNL     1      -1.019  11.524  22.151  0.00  0.00    +0.000 C 
ATOM     19  N   UNL     1      -1.929  12.562  22.207  0.00  0.00    +0.000 N 
ATOM     20  C   UNL     1      -2.341  13.262  21.014  0.00  0.00    +0.000 C 
ATOM     21  C   UNL     1      -2.653  12.292  19.880  0.00  0.00    +0.000 C 
ATOM     22  C   UNL     1      -1.513  11.321  19.703  0.00  0.00    +0.000 A 
ATOM     23  C   UNL     1      -1.248  10.750  18.464  0.00  0.00    +0.000 A 
ATOM     24  C   UNL     1      -0.185   9.859  18.311  0.00  0.00    +0.000 A 
ATOM     25  C   UNL     1       0.626   9.520  19.402  0.00  0.00    +0.000 A 
ATOM     26  C   UNL     1       0.324  10.039  20.663  0.00  0.00    +0.000 A 
ATOM     27  C   UNL     1      -0.734  10.951  20.815  0.00  0.00    +0.000 A 
ATOM     28  H   UNL     1      -2.004  13.001  23.110  0.00  0.00    +0.000 HD
ENDBRANCH   1  25
TORSDOF 1
ENDMDL
MODEL 3
REMARK VINA RESULT:      -8.5      1.916      2.317
REMARK  Name = 
REMARK  1 active torsions:
REMARK  status: ('A' for Active; 'I' for Inactive)
REMARK    1  A    between atoms: C_9  and  N_10
REMARK                            x       y       z     vdW  Elec       q    Type
REMARK                         _______ _______ _______ _____ _____    ______ ____
ROOT
ATOM      1  N   UNL     1       1.998   8.024  18.938  0.00  0.00    +0.000 N 
ATOM      2  C   UNL     1       1.467   8.506  20.117  0.00  0.00    +0.000 C 
ATOM      3  O   UNL     1       1.332   7.829  21.134  0.00  0.00    +0.000 OA
ATOM      4  N   UNL     1       1.113   9.848  20.090  0.00  0.00    +0.000 N 
ATOM      5  C   UNL     1       0.639  10.480  21.326  0.00  0.00    +0.000 C 
ATOM      6  C   UNL     1      -0.557  11.416  21.172  0.00  0.00    +0.000 A 
ATOM      7  C   UNL     1      -1.060  12.061  22.310  0.00  0.00    +0.000 A 
ATOM      8  C   UNL     1      -2.139  12.933  22.197  0.00  0.00    +0.000 A 
ATOM      9  C   UNL     1      -2.703  13.183  20.945  0.00  0.00    +0.000 A 
ATOM     10  C   UNL     1      -2.211  12.540  19.805  0.00  0.00    +0.000 A 
ATOM     11  C   UNL     1      -1.155  11.627  19.899  0.00  0.00    +0.000 A 
ATOM     12  C   UNL     1      -0.640  10.766  18.764  0.00  0.00    +0.000 C 
ATOM     13  C   UNL     1      -1.216  10.360  17.427  0.00  0.00    +0.000 C 
ATOM     14  C   UNL     1      -1.618   9.572  18.615  0.00  0.00    +0.000 C 
ATOM     15  C   UNL     1       0.860  10.598  18.872  0.00  0.00    +0.000 C 
ATOM     16  H   UNL     1       2.479   8.704  18.368  0.00  0.00    +0.000 HD
ENDROOT
BRANCH   1  25
ATOM     17  O   UNL     1       6.016   5.003  19.752  0.00  0.00    +0.000 OA
ATOM     18  C   UNL     1       5.126   4.274  19.313  0.00  0.00    +0.000 C 
ATOM     19  N   UNL     1       5.293   2.903  19.259  0.00  0.00    +0.000 N 
ATOM     20  C   UNL     1       4.171   2.020  19.053  0.00  0.00    +0.000 C 
ATOM     21  C   UNL     1       3.263   2.527  17.938  0.00  0.00    +0.000 C 
ATOM     22  C   UNL     1       2.915   3.975  18.175  0.00  0.00    +0.000 A 
ATOM     23  C   UNL     1       1.719   4.506  17.708  0.00  0.00    +0.000 A 
ATOM     24  C   UNL     1       1.404   5.845  17.941  0.00  0.00    +0.000 A 
ATOM     25  C   UNL     1       2.290   6.678  18.639  0.00  0.00    +0.000 A 
ATOM     26  C   UNL     1       3.522   6.166  19.051  0.00  0.00    +0.000 A 
ATOM     27  C   UNL     1       3.833   4.812  18.836  0.00  0.00    +0.000 A 
ATOM     28  H   UNL     1       6.134   2.569  19.702  0.00  0.00    +0.000 HD
ENDBRANCH   1  25
TORSDOF 1
ENDMDL
MODEL 4
REMARK VINA RESULT:      -8.4      3.053      8.787
REMARK  Name = 
REMARK  1 active torsions:
REMARK  status: ('A' for Active; 'I' for Inactive)
REMARK    1  A    between atoms: C_9  and  N_10
REMARK                            x       y       z     vdW  Elec       q    Type
REMARK                         _______ _______ _______ _____ _____    ______ ____
ROOT
ATOM      1  N   UNL     1       1.510   8.835  19.188  0.00  0.00    +0.000 N 
ATOM      2  C   UNL     1       2.354   8.633  18.115  0.00  0.00    +0.000 C 
ATOM      3  O   UNL     1       2.336   9.315  17.092  0.00  0.00    +0.000 OA
ATOM      4  N   UNL     1       3.270   7.603  18.280  0.00  0.00    +0.000 N 
ATOM      5  C   UNL     1       4.279   7.379  17.240  0.00  0.00    +0.000 C 
ATOM      6  C   UNL     1       4.541   5.920  16.876  0.00  0.00    +0.000 A 
ATOM      7  C   UNL     1       5.499   5.630  15.895  0.00  0.00    +0.000 A 
ATOM      8  C   UNL     1       5.771   4.308  15.556  0.00  0.00    +0.000 A 
ATOM      9  C   UNL     1       5.106   3.272  16.212  0.00  0.00    +0.000 A 
ATOM     10  C   UNL     1       4.146   3.551  17.189  0.00  0.00    +0.000 A 
ATOM     11  C   UNL     1       3.824   4.873  17.518  0.00  0.00    +0.000 A 
ATOM     12  C   UNL     1       2.705   5.295  18.446  0.00  0.00    +0.000 C 
ATOM     13  C   UNL     1       1.481   4.589  18.982  0.00  0.00    +0.000 C 
ATOM     14  C   UNL     1       1.383   5.206  17.639  0.00  0.00    +0.000 C 
ATOM     15  C   UNL     1       3.112   6.520  19.235  0.00  0.00    +0.000 C 
ATOM     16  H   UNL     1       1.883   8.576  20.089  0.00  0.00    +0.000 HD
ENDROOT
BRANCH   1  25
ATOM     17  O   UNL     1      -2.197   9.978  15.891  0.00  0.00    +0.000 OA
ATOM     18  C   UNL     1      -2.506  10.523  16.950  0.00  0.00    +0.000 C 
ATOM     19  N   UNL     1      -3.727  11.153  17.096  0.00  0.00    +0.000 N 
ATOM     20  C   UNL     1      -4.233  11.514  18.398  0.00  0.00    +0.000 C 
ATOM     21  C   UNL     1      -3.152  12.164  19.254  0.00  0.00    +0.000 C 
ATOM     22  C   UNL     1      -1.910  11.309  19.253  0.00  0.00    +0.000 A 
ATOM     23  C   UNL     1      -1.036  11.319  20.333  0.00  0.00    +0.000 A 
ATOM     24  C   UNL     1       0.105  10.517  20.325  0.00  0.00    +0.000 A 
ATOM     25  C   UNL     1       0.395   9.696  19.226  0.00  0.00    +0.000 A 
ATOM     26  C   UNL     1      -0.444   9.732  18.110  0.00  0.00    +0.000 A 
ATOM     27  C   UNL     1      -1.605  10.524  18.125  0.00  0.00    +0.000 A 
ATOM     28  H   UNL     1      -4.356  11.027  16.319  0.00  0.00    +0.000 HD
ENDBRANCH   1  25
TORSDOF 1
ENDMDL
MODEL 5
REMARK VINA RESULT:      -8.4      1.475      1.795
REMARK  Name = 
REMARK  1 active torsions:
REMARK  status: ('A' for Active; 'I' for Inactive)
REMARK    1  A    between atoms: C_9  and  N_10
REMARK                            x       y       z     vdW  Elec       q    Type
REMARK                         _______ _______ _______ _____ _____    ______ ____
ROOT
ATOM      1  N   UNL     1       2.049   8.505  18.981  0.00  0.00    +0.000 N 
ATOM      2  C   UNL     1       1.414   8.856  20.155  0.00  0.00    +0.000 C 
ATOM      3  O   UNL     1       1.318   8.112  21.130  0.00  0.00    +0.000 OA
ATOM      4  N   UNL     1       0.902  10.145  20.177  0.00  0.00    +0.000 N 
ATOM      5  C   UNL     1       0.303  10.648  21.419  0.00  0.00    +0.000 C 
ATOM      6  C   UNL     1      -0.990  11.442  21.253  0.00  0.00    +0.000 A 
ATOM      7  C   UNL     1      -1.615  11.960  22.396  0.00  0.00    +0.000 A 
ATOM      8  C   UNL     1      -2.785  12.703  22.274  0.00  0.00    +0.000 A 
ATOM      9  C   UNL     1      -3.321  12.953  21.010  0.00  0.00    +0.000 A 
ATOM     10  C   UNL     1      -2.708  12.436  19.865  0.00  0.00    +0.000 A 
ATOM     11  C   UNL     1      -1.554  11.651  19.965  0.00  0.00    +0.000 A 
ATOM     12  C   UNL     1      -0.892  10.921  18.815  0.00  0.00    +0.000 C 
ATOM     13  C   UNL     1      -1.357  10.524  17.433  0.00  0.00    +0.000 C 
ATOM     14  C   UNL     1      -1.711   9.630  18.559  0.00  0.00    +0.000 C 
ATOM     15  C   UNL     1       0.612  10.926  18.987  0.00  0.00    +0.000 C 
ATOM     16  H   UNL     1       2.468   9.268  18.469  0.00  0.00    +0.000 HD
ENDROOT
BRANCH   1  25
ATOM     17  O   UNL     1       0.770   3.775  20.366  0.00  0.00    +0.000 OA
ATOM     18  C   UNL     1       1.569   3.653  19.438  0.00  0.00    +0.000 C 
ATOM     19  N   UNL     1       1.842   2.411  18.894  0.00  0.00    +0.000 N 
ATOM     20  C   UNL     1       2.516   2.282  17.625  0.00  0.00    +0.000 C 
ATOM     21  C   UNL     1       3.716   3.218  17.535  0.00  0.00    +0.000 C 
ATOM     22  C   UNL     1       3.306   4.619  17.913  0.00  0.00    +0.000 A 
ATOM     23  C   UNL     1       3.970   5.722  17.390  0.00  0.00    +0.000 A 
ATOM     24  C   UNL     1       3.576   7.014  17.740  0.00  0.00    +0.000 A 
ATOM     25  C   UNL     1       2.513   7.221  18.630  0.00  0.00    +0.000 A 
ATOM     26  C   UNL     1       1.887   6.116  19.211  0.00  0.00    +0.000 A 
ATOM     27  C   UNL     1       2.269   4.814  18.844  0.00  0.00    +0.000 A 
ATOM     28  H   UNL     1       1.260   1.667  19.244  0.00  0.00    +0.000 HD
ENDBRANCH   1  25
TORSDOF 1
ENDMDL
MODEL 6
REMARK VINA RESULT:      -8.3      2.512      3.014
REMARK  Name = 
REMARK  1 active torsions:
REMARK  status: ('A' for Active; 'I' for Inactive)
REMARK    1  A    between atoms: C_9  and  N_10
REMARK                            x       y       z     vdW  Elec       q    Type
REMARK                         _______ _______ _______ _____ _____    ______ ____
ROOT
ATOM      1  N   UNL     1       2.126   8.419  19.220  0.00  0.00    +0.000 N 
ATOM      2  C   UNL     1       1.428   8.553  20.403  0.00  0.00    +0.000 C 
ATOM      3  O   UNL     1       1.198   7.621  21.171  0.00  0.00    +0.000 OA
ATOM      4  N   UNL     1       1.016   9.847  20.692  0.00  0.00    +0.000 N 
ATOM      5  C   UNL     1       0.360  10.111  21.978  0.00  0.00    +0.000 C 
ATOM      6  C   UNL     1      -0.850  11.039  21.922  0.00  0.00    +0.000 A 
ATOM      7  C   UNL     1      -1.523  11.342  23.114  0.00  0.00    +0.000 A 
ATOM      8  C   UNL     1      -2.619  12.199  23.097  0.00  0.00    +0.000 A 
ATOM      9  C   UNL     1      -3.031  12.775  21.895  0.00  0.00    +0.000 A 
ATOM     10  C   UNL     1      -2.369  12.475  20.701  0.00  0.00    +0.000 A 
ATOM     11  C   UNL     1      -1.291  11.584  20.685  0.00  0.00    +0.000 A 
ATOM     12  C   UNL     1      -0.597  11.073  19.440  0.00  0.00    +0.000 C 
ATOM     13  C   UNL     1      -0.979  11.043  17.979  0.00  0.00    +0.000 C 
ATOM     14  C   UNL     1      -1.490   9.955  18.844  0.00  0.00    +0.000 C 
ATOM     15  C   UNL     1       0.883  10.899  19.700  0.00  0.00    +0.000 C 
ATOM     16  H   UNL     1       2.643   9.234  18.925  0.00  0.00    +0.000 HD
ENDROOT
BRANCH   1  25
ATOM     17  O   UNL     1       5.849   7.114  16.000  0.00  0.00    +0.000 OA
ATOM     18  C   UNL     1       5.321   6.060  16.353  0.00  0.00    +0.000 C 
ATOM     19  N   UNL     1       5.852   4.839  15.981  0.00  0.00    +0.000 N 
ATOM     20  C   UNL     1       5.447   3.617  16.631  0.00  0.00    +0.000 C 
ATOM     21  C   UNL     1       3.933   3.552  16.798  0.00  0.00    +0.000 C 
ATOM     22  C   UNL     1       3.428   4.823  17.432  0.00  0.00    +0.000 A 
ATOM     23  C   UNL     1       2.275   4.825  18.207  0.00  0.00    +0.000 A 
ATOM     24  C   UNL     1       1.823   6.006  18.796  0.00  0.00    +0.000 A 
ATOM     25  C   UNL     1       2.517   7.209  18.611  0.00  0.00    +0.000 A 
ATOM     26  C   UNL     1       3.639   7.226  17.779  0.00  0.00    +0.000 A 
ATOM     27  C   UNL     1       4.108   6.034  17.201  0.00  0.00    +0.000 A 
ATOM     28  H   UNL     1       6.739   4.899  15.508  0.00  0.00    +0.000 HD
ENDBRANCH   1  25
TORSDOF 1
ENDMDL
MODEL 7
REMARK VINA RESULT:      -8.0      1.717      2.169
REMARK  Name = 
REMARK  1 active torsions:
REMARK  status: ('A' for Active; 'I' for Inactive)
REMARK    1  A    between atoms: C_9  and  N_10
REMARK                            x       y       z     vdW  Elec       q    Type
REMARK                         _______ _______ _______ _____ _____    ______ ____
ROOT
ATOM      1  N   UNL     1       1.573   8.266  20.862  0.00  0.00    +0.000 N 
ATOM      2  C   UNL     1       0.428   8.579  21.568  0.00  0.00    +0.000 C 
ATOM      3  O   UNL     1      -0.428   7.755  21.883  0.00  0.00    +0.000 OA
ATOM      4  N   UNL     1       0.318   9.913  21.935  0.00  0.00    +0.000 N 
ATOM      5  C   UNL     1      -0.809  10.324  22.779  0.00  0.00    +0.000 C 
ATOM      6  C   UNL     1      -1.482  11.637  22.388  0.00  0.00    +0.000 A 
ATOM      7  C   UNL     1      -2.562  12.096  23.155  0.00  0.00    +0.000 A 
ATOM      8  C   UNL     1      -3.184  13.298  22.832  0.00  0.00    +0.000 A 
ATOM      9  C   UNL     1      -2.714  14.058  21.761  0.00  0.00    +0.000 A 
ATOM     10  C   UNL     1      -1.641  13.606  20.987  0.00  0.00    +0.000 A 
ATOM     11  C   UNL     1      -1.026  12.380  21.265  0.00  0.00    +0.000 A 
ATOM     12  C   UNL     1       0.040  11.724  20.412  0.00  0.00    +0.000 C 
ATOM     13  C   UNL     1       0.496  11.926  18.986  0.00  0.00    +0.000 C 
ATOM     14  C   UNL     1      -0.681  11.056  19.213  0.00  0.00    +0.000 C 
ATOM     15  C   UNL     1       1.037  10.996  21.288  0.00  0.00    +0.000 C 
ATOM     16  H   UNL     1       2.375   8.847  21.054  0.00  0.00    +0.000 HD
ENDROOT
BRANCH   1  25
ATOM     17  O   UNL     1       4.319   6.923  16.790  0.00  0.00    +0.000 OA
ATOM     18  C   UNL     1       3.987   5.871  17.337  0.00  0.00    +0.000 C 
ATOM     19  N   UNL     1       4.476   4.656  16.896  0.00  0.00    +0.000 N 
ATOM     20  C   UNL     1       4.358   3.465  17.702  0.00  0.00    +0.000 C 
ATOM     21  C   UNL     1       2.961   3.334  18.298  0.00  0.00    +0.000 C 
ATOM     22  C   UNL     1       2.567   4.621  18.979  0.00  0.00    +0.000 A 
ATOM     23  C   UNL     1       1.681   4.620  20.049  0.00  0.00    +0.000 A 
ATOM     24  C   UNL     1       1.332   5.816  20.676  0.00  0.00    +0.000 A 
ATOM     25  C   UNL     1       1.860   7.037  20.234  0.00  0.00    +0.000 A 
ATOM     26  C   UNL     1       2.698   7.050  19.117  0.00  0.00    +0.000 A 
ATOM     27  C   UNL     1       3.067   5.845  18.496  0.00  0.00    +0.000 A 
ATOM     28  H   UNL     1       5.188   4.726  16.187  0.00  0.00    +0.000 HD
ENDBRANCH   1  25
TORSDOF 1
ENDMDL
MODEL 8
REMARK VINA RESULT:      -7.9      1.882      2.339
REMARK  Name = 
REMARK  1 active torsions:
REMARK  status: ('A' for Active; 'I' for Inactive)
REMARK    1  A    between atoms: C_9  and  N_10
REMARK                            x       y       z     vdW  Elec       q    Type
REMARK                         _______ _______ _______ _____ _____    ______ ____
ROOT
ATOM      1  N   UNL     1       1.851   8.059  20.004  0.00  0.00    +0.000 N 
ATOM      2  C   UNL     1       1.255   8.775  21.024  0.00  0.00    +0.000 C 
ATOM      3  O   UNL     1       0.986   8.301  22.126  0.00  0.00    +0.000 OA
ATOM      4  N   UNL     1       0.997  10.106  20.727  0.00  0.00    +0.000 N 
ATOM      5  C   UNL     1       0.463  10.976  21.780  0.00  0.00    +0.000 C 
ATOM      6  C   UNL     1      -0.649  11.928  21.349  0.00  0.00    +0.000 A 
ATOM      7  C   UNL     1      -1.202  12.795  22.301  0.00  0.00    +0.000 A 
ATOM      8  C   UNL     1      -2.205  13.687  21.933  0.00  0.00    +0.000 A 
ATOM      9  C   UNL     1      -2.640  13.734  20.608  0.00  0.00    +0.000 A 
ATOM     10  C   UNL     1      -2.098  12.870  19.652  0.00  0.00    +0.000 A 
ATOM     11  C   UNL     1      -1.118  11.936  20.007  0.00  0.00    +0.000 A 
ATOM     12  C   UNL     1      -0.569  10.858  19.096  0.00  0.00    +0.000 C 
ATOM     13  C   UNL     1      -1.054  10.246  17.803  0.00  0.00    +0.000 C 
ATOM     14  C   UNL     1      -1.610   9.709  19.065  0.00  0.00    +0.000 C 
ATOM     15  C   UNL     1       0.901  10.634  19.377  0.00  0.00    +0.000 C 
ATOM     16  H   UNL     1       2.425   8.598  19.373  0.00  0.00    +0.000 HD
ENDROOT
BRANCH   1  25
ATOM     17  O   UNL     1       5.625   5.109  18.278  0.00  0.00    +0.000 OA
ATOM     18  C   UNL     1       4.863   4.361  18.891  0.00  0.00    +0.000 C 
ATOM     19  N   UNL     1       5.191   3.036  19.110  0.00  0.00    +0.000 N 
ATOM     20  C   UNL     1       4.479   2.239  20.079  0.00  0.00    +0.000 C 
ATOM     21  C   UNL     1       2.972   2.441  19.966  0.00  0.00    +0.000 C 
ATOM     22  C   UNL     1       2.647   3.914  19.972  0.00  0.00    +0.000 A 
ATOM     23  C   UNL     1       1.428   4.374  20.454  0.00  0.00    +0.000 A 
ATOM     24  C   UNL     1       1.143   5.739  20.462  0.00  0.00    +0.000 A 
ATOM     25  C   UNL     1       2.074   6.668  19.977  0.00  0.00    +0.000 A 
ATOM     26  C   UNL     1       3.273   6.206  19.430  0.00  0.00    +0.000 A 
ATOM     27  C   UNL     1       3.571   4.833  19.439  0.00  0.00    +0.000 A 
ATOM     28  H   UNL     1       6.125   2.787  18.828  0.00  0.00    +0.000 HD
ENDBRANCH   1  25
TORSDOF 1
ENDMDL
MODEL 9
REMARK VINA RESULT:      -7.9      2.762      3.361
REMARK  Name = 
REMARK  1 active torsions:
REMARK  status: ('A' for Active; 'I' for Inactive)
REMARK    1  A    between atoms: C_9  and  N_10
REMARK                            x       y       z     vdW  Elec       q    Type
REMARK                         _______ _______ _______ _____ _____    ______ ____
ROOT
ATOM      1  N   UNL     1       1.852   8.982  18.875  0.00  0.00    +0.000 N 
ATOM      2  C   UNL     1       1.182   9.402  20.006  0.00  0.00    +0.000 C 
ATOM      3  O   UNL     1       1.181   8.785  21.069  0.00  0.00    +0.000 OA
ATOM      4  N   UNL     1       0.516  10.612  19.872  0.00  0.00    +0.000 N 
ATOM      5  C   UNL     1      -0.137  11.196  21.049  0.00  0.00    +0.000 C 
ATOM      6  C   UNL     1      -1.518  11.799  20.806  0.00  0.00    +0.000 A 
ATOM      7  C   UNL     1      -2.199  12.381  21.885  0.00  0.00    +0.000 A 
ATOM      8  C   UNL     1      -3.452  12.954  21.690  0.00  0.00    +0.000 A 
ATOM      9  C   UNL     1      -4.018  12.971  20.415  0.00  0.00    +0.000 A 
ATOM     10  C   UNL     1      -3.348  12.388  19.334  0.00  0.00    +0.000 A 
ATOM     11  C   UNL     1      -2.107  11.768  19.512  0.00  0.00    +0.000 A 
ATOM     12  C   UNL     1      -1.363  10.981  18.454  0.00  0.00    +0.000 C 
ATOM     13  C   UNL     1      -1.780  10.354  17.144  0.00  0.00    +0.000 C 
ATOM     14  C   UNL     1      -2.019   9.578  18.382  0.00  0.00    +0.000 C 
ATOM     15  C   UNL     1       0.129  11.190  18.597  0.00  0.00    +0.000 C 
ATOM     16  H   UNL     1       2.173   9.716  18.262  0.00  0.00    +0.000 HD
ENDROOT
BRANCH   1  25
ATOM     17  O   UNL     1       5.102   7.122  15.424  0.00  0.00    +0.000 OA
ATOM     18  C   UNL     1       5.001   6.258  16.295  0.00  0.00    +0.000 C 
ATOM     19  N   UNL     1       5.798   5.129  16.272  0.00  0.00    +0.000 N 
ATOM     20  C   UNL     1       5.920   4.275  17.428  0.00  0.00    +0.000 C 
ATOM     21  C   UNL     1       4.560   3.999  18.061  0.00  0.00    +0.000 C 
ATOM     22  C   UNL     1       3.822   5.295  18.285  0.00  0.00    +0.000 A 
ATOM     23  C   UNL     1       2.895   5.420  19.312  0.00  0.00    +0.000 A 
ATOM     24  C   UNL     1       2.226   6.627  19.515  0.00  0.00    +0.000 A 
ATOM     25  C   UNL     1       2.469   7.729  18.684  0.00  0.00    +0.000 A 
ATOM     26  C   UNL     1       3.350   7.588  17.609  0.00  0.00    +0.000 A 
ATOM     27  C   UNL     1       4.041   6.380  17.415  0.00  0.00    +0.000 A 
ATOM     28  H   UNL     1       6.516   5.141  15.566  0.00  0.00    +0.000 HD
ENDBRANCH   1  25
TORSDOF 1
ENDMDL
