MODEL 1
REMARK VINA RESULT:      -9.6      0.000      0.000
REMARK  Name = 
REMARK  5 active torsions:
REMARK  status: ('A' for Active; 'I' for Inactive)
REMARK    1  A    between atoms: C_2  and  C_4
REMARK    2  A    between atoms: C_6  and  N_7
REMARK    3  A    between atoms: C_8  and  C_10
REMARK    4  A    between atoms: C_10  and  C_11
REMARK    5  A    between atoms: C_15  and  C_16
REMARK                            x       y       z     vdW  Elec       q    Type
REMARK                         _______ _______ _______ _____ _____    ______ ____
ROOT
ATOM      1  N   UNL     1       3.138   6.305  18.786  0.00  0.00    +0.000 N 
ATOM      2  C   UNL     1       2.621   5.145  18.224  0.00  0.00    +0.000 C 
ATOM      3  O   UNL     1       1.466   5.056  17.786  0.00  0.00    +0.000 OA
ATOM      4  H   UNL     1       4.133   6.350  18.959  0.00  0.00    +0.000 HD
ENDROOT
BRANCH   1   7
ATOM      5  C   UNL     1       1.044   9.026  20.302  0.00  0.00    +0.000 A 
ATOM      6  C   UNL     1       1.851   7.887  20.176  0.00  0.00    +0.000 A 
ATOM      7  C   UNL     1       2.395   7.507  18.944  0.00  0.00    +0.000 A 
ATOM      8  C   UNL     1       2.194   8.340  17.839  0.00  0.00    +0.000 A 
ATOM      9  C   UNL     1       1.410   9.498  17.964  0.00  0.00    +0.000 A 
ATOM     10  C   UNL     1       0.838   9.834  19.189  0.00  0.00    +0.000 A 
ATOM     11  F   UNL     1       0.064  10.926  19.253  0.00  0.00    +0.000 F 
BRANCH   5  13
ATOM     12  N   UNL     1      -0.598   8.553  22.027  0.00  0.00    +0.000 N 
ATOM     13  C   UNL     1       0.428   9.361  21.609  0.00  0.00    +0.000 C 
ATOM     14  O   UNL     1       0.794  10.308  22.278  0.00  0.00    +0.000 OA
ATOM     15  H   UNL     1      -1.049   8.792  22.900  0.00  0.00    +0.000 HD
ATOM     16  H   UNL     1      -1.010   7.821  21.465  0.00  0.00    +0.000 HD
ENDBRANCH   5  13
ENDBRANCH   1   7
BRANCH   2  17
ATOM     17  C   UNL     1       3.532   3.891  18.200  0.00  0.00    +0.000 C 
ATOM     18  C   UNL     1       2.861   2.579  17.729  0.00  0.00    +0.000 C 
ATOM     19  C   UNL     1       3.597   1.448  18.463  0.00  0.00    +0.000 C 
ATOM     20  C   UNL     1       4.228   2.074  19.699  0.00  0.00    +0.000 C 
ATOM     21  C   UNL     1       3.742   3.509  19.696  0.00  0.00    +0.000 C 
BRANCH  17  22
ATOM     22  C   UNL     1       4.816   4.253  17.431  0.00  0.00    +0.000 A 
ATOM     23  C   UNL     1       6.021   4.514  18.108  0.00  0.00    +0.000 A 
ATOM     24  C   UNL     1       7.223   4.696  17.420  0.00  0.00    +0.000 A 
ATOM     25  C   UNL     1       7.259   4.588  16.035  0.00  0.00    +0.000 A 
ATOM     26  C   UNL     1       6.087   4.310  15.322  0.00  0.00    +0.000 A 
ATOM     27  C   UNL     1       4.874   4.172  16.026  0.00  0.00    +0.000 A 
BRANCH  26  28
ATOM     28  C   UNL     1       6.122   4.088  13.830  0.00  0.00    +0.000 C 
ATOM     29  F   UNL     1       4.924   4.307  13.219  0.00  0.00    +0.000 F 
ATOM     30  F   UNL     1       7.009   4.913  13.206  0.00  0.00    +0.000 F 
ATOM     31  F   UNL     1       6.489   2.821  13.492  0.00  0.00    +0.000 F 
ENDBRANCH  26  28
ENDBRANCH  17  22
ENDBRANCH   2  17
TORSDOF 5
ENDMDL
MODEL 2
REMARK VINA RESULT:      -8.9      1.924      2.456
REMARK  Name = 
REMARK  5 active torsions:
REMARK  status: ('A' for Active; 'I' for Inactive)
REMARK    1  A    between atoms: C_2  and  C_4
REMARK    2  A    between atoms: C_6  and  N_7
REMARK    3  A    between atoms: C_8  and  C_10
REMARK    4  A    between atoms: C_10  and  C_11
REMARK    5  A    between atoms: C_15  and  C_16
REMARK                            x       y       z     vdW  Elec       q    Type
REMARK                         _______ _______ _______ _____ _____    ______ ____
ROOT
ATOM      1  N   UNL     1       2.965   6.311  19.229  0.00  0.00    +0.000 N 
ATOM      2  C   UNL     1       2.562   5.326  18.337  0.00  0.00    +0.000 C 
ATOM      3  O   UNL     1       1.523   5.395  17.668  0.00  0.00    +0.000 OA
ATOM      4  H   UNL     1       3.903   6.263  19.602  0.00  0.00    +0.000 HD
ENDROOT
BRANCH   1   7
ATOM      5  C   UNL     1       0.950   8.933  21.004  0.00  0.00    +0.000 A 
ATOM      6  C   UNL     1       1.759   7.812  20.773  0.00  0.00    +0.000 A 
ATOM      7  C   UNL     1       2.221   7.494  19.490  0.00  0.00    +0.000 A 
ATOM      8  C   UNL     1       1.932   8.370  18.439  0.00  0.00    +0.000 A 
ATOM      9  C   UNL     1       1.145   9.509  18.669  0.00  0.00    +0.000 A 
ATOM     10  C   UNL     1       0.657   9.784  19.944  0.00  0.00    +0.000 A 
ATOM     11  F   UNL     1      -0.125  10.860  20.109  0.00  0.00    +0.000 F 
BRANCH   5  13
ATOM     12  N   UNL     1      -0.872   8.818  22.605  0.00  0.00    +0.000 N 
ATOM     13  C   UNL     1       0.422   9.202  22.363  0.00  0.00    +0.000 C 
ATOM     14  O   UNL     1       1.087   9.746  23.224  0.00  0.00    +0.000 OA
ATOM     15  H   UNL     1      -1.254   9.028  23.518  0.00  0.00    +0.000 HD
ATOM     16  H   UNL     1      -1.500   8.461  21.899  0.00  0.00    +0.000 HD
ENDBRANCH   5  13
ENDBRANCH   1   7
BRANCH   2  17
ATOM     17  C   UNL     1       3.443   4.055  18.226  0.00  0.00    +0.000 C 
ATOM     18  C   UNL     1       2.729   2.782  17.713  0.00  0.00    +0.000 C 
ATOM     19  C   UNL     1       3.459   1.600  18.370  0.00  0.00    +0.000 C 
ATOM     20  C   UNL     1       4.139   2.152  19.615  0.00  0.00    +0.000 C 
ATOM     21  C   UNL     1       3.687   3.596  19.696  0.00  0.00    +0.000 C 
BRANCH  17  22
ATOM     22  C   UNL     1       4.713   4.425  17.439  0.00  0.00    +0.000 A 
ATOM     23  C   UNL     1       4.976   3.866  16.175  0.00  0.00    +0.000 A 
ATOM     24  C   UNL     1       6.044   4.305  15.389  0.00  0.00    +0.000 A 
ATOM     25  C   UNL     1       6.859   5.340  15.831  0.00  0.00    +0.000 A 
ATOM     26  C   UNL     1       6.622   5.939  17.073  0.00  0.00    +0.000 A 
ATOM     27  C   UNL     1       5.568   5.457  17.875  0.00  0.00    +0.000 A 
BRANCH  26  28
ATOM     28  C   UNL     1       7.430   7.130  17.526  0.00  0.00    +0.000 C 
ATOM     29  F   UNL     1       8.202   6.879  18.620  0.00  0.00    +0.000 F 
ATOM     30  F   UNL     1       8.288   7.568  16.563  0.00  0.00    +0.000 F 
ATOM     31  F   UNL     1       6.655   8.201  17.852  0.00  0.00    +0.000 F 
ENDBRANCH  26  28
ENDBRANCH  17  22
ENDBRANCH   2  17
TORSDOF 5
ENDMDL
MODEL 3
REMARK VINA RESULT:      -8.9      1.174      1.503
REMARK  Name = 
REMARK  5 active torsions:
REMARK  status: ('A' for Active; 'I' for Inactive)
REMARK    1  A    between atoms: C_2  and  C_4
REMARK    2  A    between atoms: C_6  and  N_7
REMARK    3  A    between atoms: C_8  and  C_10
REMARK    4  A    between atoms: C_10  and  C_11
REMARK    5  A    between atoms: C_15  and  C_16
REMARK                            x       y       z     vdW  Elec       q    Type
REMARK                         _______ _______ _______ _____ _____    ______ ____
ROOT
ATOM      1  N   UNL     1       2.316   6.739  18.766  0.00  0.00    +0.000 N 
ATOM      2  C   UNL     1       2.425   5.555  19.484  0.00  0.00    +0.000 C 
ATOM      3  O   UNL     1       2.091   5.444  20.670  0.00  0.00    +0.000 OA
ATOM      4  H   UNL     1       2.444   6.704  17.764  0.00  0.00    +0.000 HD
ENDROOT
BRANCH   1   7
ATOM      5  C   UNL     1       0.950   9.257  21.191  0.00  0.00    +0.000 A 
ATOM      6  C   UNL     1       1.510   8.081  20.675  0.00  0.00    +0.000 A 
ATOM      7  C   UNL     1       1.833   7.956  19.318  0.00  0.00    +0.000 A 
ATOM      8  C   UNL     1       1.669   9.070  18.488  0.00  0.00    +0.000 A 
ATOM      9  C   UNL     1       1.134  10.260  19.004  0.00  0.00    +0.000 A 
ATOM     10  C   UNL     1       0.776  10.349  20.348  0.00  0.00    +0.000 A 
ATOM     11  F   UNL     1       0.231  11.491  20.788  0.00  0.00    +0.000 F 
BRANCH   5  13
ATOM     12  N   UNL     1      -0.772   9.137  22.899  0.00  0.00    +0.000 N 
ATOM     13  C   UNL     1       0.556   9.329  22.619  0.00  0.00    +0.000 C 
ATOM     14  O   UNL     1       1.357   9.560  23.505  0.00  0.00    +0.000 OA
ATOM     15  H   UNL     1      -1.059   9.218  23.865  0.00  0.00    +0.000 HD
ATOM     16  H   UNL     1      -1.494   9.047  22.196  0.00  0.00    +0.000 HD
ENDBRANCH   5  13
ENDBRANCH   1   7
BRANCH   2  17
ATOM     17  C   UNL     1       3.050   4.334  18.762  0.00  0.00    +0.000 C 
ATOM     18  C   UNL     1       2.153   3.641  17.709  0.00  0.00    +0.000 C 
ATOM     19  C   UNL     1       2.577   2.165  17.704  0.00  0.00    +0.000 C 
ATOM     20  C   UNL     1       3.235   1.901  19.052  0.00  0.00    +0.000 C 
ATOM     21  C   UNL     1       3.065   3.193  19.825  0.00  0.00    +0.000 C 
BRANCH  17  22
ATOM     22  C   UNL     1       4.434   4.752  18.233  0.00  0.00    +0.000 A 
ATOM     23  C   UNL     1       5.493   5.041  19.113  0.00  0.00    +0.000 A 
ATOM     24  C   UNL     1       6.789   5.276  18.646  0.00  0.00    +0.000 A 
ATOM     25  C   UNL     1       7.068   5.194  17.287  0.00  0.00    +0.000 A 
ATOM     26  C   UNL     1       6.049   4.889  16.379  0.00  0.00    +0.000 A 
ATOM     27  C   UNL     1       4.738   4.698  16.859  0.00  0.00    +0.000 A 
BRANCH  26  28
ATOM     28  C   UNL     1       6.351   4.696  14.913  0.00  0.00    +0.000 C 
ATOM     29  F   UNL     1       7.482   5.334  14.501  0.00  0.00    +0.000 F 
ATOM     30  F   UNL     1       6.531   3.384  14.591  0.00  0.00    +0.000 F 
ATOM     31  F   UNL     1       5.352   5.146  14.104  0.00  0.00    +0.000 F 
ENDBRANCH  26  28
ENDBRANCH  17  22
ENDBRANCH   2  17
TORSDOF 5
ENDMDL
MODEL 4
REMARK VINA RESULT:      -8.8      1.018      1.323
REMARK  Name = 
REMARK  5 active torsions:
REMARK  status: ('A' for Active; 'I' for Inactive)
REMARK    1  A    between atoms: C_2  and  C_4
REMARK    2  A    between atoms: C_6  and  N_7
REMARK    3  A    between atoms: C_8  and  C_10
REMARK    4  A    between atoms: C_10  and  C_11
REMARK    5  A    between atoms: C_15  and  C_16
REMARK                            x       y       z     vdW  Elec       q    Type
REMARK                         _______ _______ _______ _____ _____    ______ ____
ROOT
ATOM      1  N   UNL     1       2.272   6.300  19.361  0.00  0.00    +0.000 N 
ATOM      2  C   UNL     1       3.257   6.104  18.402  0.00  0.00    +0.000 C 
ATOM      3  O   UNL     1       3.824   7.030  17.808  0.00  0.00    +0.000 OA
ATOM      4  H   UNL     1       1.986   5.509  19.921  0.00  0.00    +0.000 HD
ENDROOT
BRANCH   1   7
ATOM      5  C   UNL     1       0.874   9.106  21.425  0.00  0.00    +0.000 A 
ATOM      6  C   UNL     1       1.436   7.872  21.070  0.00  0.00    +0.000 A 
ATOM      7  C   UNL     1       1.788   7.579  19.747  0.00  0.00    +0.000 A 
ATOM      8  C   UNL     1       1.651   8.582  18.783  0.00  0.00    +0.000 A 
ATOM      9  C   UNL     1       1.115   9.830  19.136  0.00  0.00    +0.000 A 
ATOM     10  C   UNL     1       0.728  10.086  20.449  0.00  0.00    +0.000 A 
ATOM     11  F   UNL     1       0.183  11.277  20.733  0.00  0.00    +0.000 F 
BRANCH   5  13
ATOM     12  N   UNL     1      -0.900   9.346  23.065  0.00  0.00    +0.000 N 
ATOM     13  C   UNL     1       0.450   9.356  22.823  0.00  0.00    +0.000 C 
ATOM     14  O   UNL     1       1.246   9.575  23.716  0.00  0.00    +0.000 OA
ATOM     15  H   UNL     1      -1.203   9.549  24.008  0.00  0.00    +0.000 HD
ATOM     16  H   UNL     1      -1.605   9.274  22.345  0.00  0.00    +0.000 HD
ENDBRANCH   5  13
ENDBRANCH   1   7
BRANCH   2  17
ATOM     17  C   UNL     1       3.617   4.642  18.032  0.00  0.00    +0.000 C 
ATOM     18  C   UNL     1       2.488   3.818  17.369  0.00  0.00    +0.000 C 
ATOM     19  C   UNL     1       2.742   2.359  17.779  0.00  0.00    +0.000 C 
ATOM     20  C   UNL     1       3.579   2.406  19.049  0.00  0.00    +0.000 C 
ATOM     21  C   UNL     1       3.681   3.880  19.390  0.00  0.00    +0.000 C 
BRANCH  17  22
ATOM     22  C   UNL     1       4.933   4.665  17.233  0.00  0.00    +0.000 A 
ATOM     23  C   UNL     1       6.180   4.695  17.883  0.00  0.00    +0.000 A 
ATOM     24  C   UNL     1       7.378   4.567  17.175  0.00  0.00    +0.000 A 
ATOM     25  C   UNL     1       7.359   4.370  15.799  0.00  0.00    +0.000 A 
ATOM     26  C   UNL     1       6.140   4.314  15.115  0.00  0.00    +0.000 A 
ATOM     27  C   UNL     1       4.942   4.489  15.835  0.00  0.00    +0.000 A 
BRANCH  26  28
ATOM     28  C   UNL     1       6.094   4.000  13.639  0.00  0.00    +0.000 C 
ATOM     29  F   UNL     1       6.971   4.736  12.899  0.00  0.00    +0.000 F 
ATOM     30  F   UNL     1       6.396   2.698  13.379  0.00  0.00    +0.000 F 
ATOM     31  F   UNL     1       4.867   4.218  13.091  0.00  0.00    +0.000 F 
ENDBRANCH  26  28
ENDBRANCH  17  22
ENDBRANCH   2  17
TORSDOF 5
ENDMDL
MODEL 5
REMARK VINA RESULT:      -8.8      1.418      1.831
REMARK  Name = 
REMARK  5 active torsions:
REMARK  status: ('A' for Active; 'I' for Inactive)
REMARK    1  A    between atoms: C_2  and  C_4
REMARK    2  A    between atoms: C_6  and  N_7
REMARK    3  A    between atoms: C_8  and  C_10
REMARK    4  A    between atoms: C_10  and  C_11
REMARK    5  A    between atoms: C_15  and  C_16
REMARK                            x       y       z     vdW  Elec       q    Type
REMARK                         _______ _______ _______ _____ _____    ______ ____
ROOT
ATOM      1  N   UNL     1       2.965   5.971  19.425  0.00  0.00    +0.000 N 
ATOM      2  C   UNL     1       2.622   5.020  18.473  0.00  0.00    +0.000 C 
ATOM      3  O   UNL     1       1.603   5.092  17.774  0.00  0.00    +0.000 OA
ATOM      4  H   UNL     1       3.891   5.932  19.828  0.00  0.00    +0.000 HD
ENDROOT
BRANCH   1   7
ATOM      5  C   UNL     1       1.386   9.367  19.181  0.00  0.00    +0.000 A 
ATOM      6  C   UNL     1       2.093   8.205  18.843  0.00  0.00    +0.000 A 
ATOM      7  C   UNL     1       2.177   7.117  19.719  0.00  0.00    +0.000 A 
ATOM      8  C   UNL     1       1.462   7.169  20.919  0.00  0.00    +0.000 A 
ATOM      9  C   UNL     1       0.729   8.319  21.253  0.00  0.00    +0.000 A 
ATOM     10  C   UNL     1       0.696   9.410  20.388  0.00  0.00    +0.000 A 
ATOM     11  F   UNL     1       0.018  10.502  20.765  0.00  0.00    +0.000 F 
BRANCH   5  13
ATOM     12  N   UNL     1       0.165  11.141  18.059  0.00  0.00    +0.000 N 
ATOM     13  C   UNL     1       1.375  10.527  18.258  0.00  0.00    +0.000 C 
ATOM     14  O   UNL     1       2.377  10.917  17.689  0.00  0.00    +0.000 OA
ATOM     15  H   UNL     1       0.139  11.912  17.405  0.00  0.00    +0.000 HD
ATOM     16  H   UNL     1      -0.713  10.796  18.421  0.00  0.00    +0.000 HD
ENDBRANCH   5  13
ENDBRANCH   1   7
BRANCH   2  17
ATOM     17  C   UNL     1       3.545   3.783  18.330  0.00  0.00    +0.000 C 
ATOM     18  C   UNL     1       2.875   2.501  17.781  0.00  0.00    +0.000 C 
ATOM     19  C   UNL     1       3.644   1.328  18.407  0.00  0.00    +0.000 C 
ATOM     20  C   UNL     1       4.304   1.868  19.668  0.00  0.00    +0.000 C 
ATOM     21  C   UNL     1       3.802   3.293  19.787  0.00  0.00    +0.000 C 
BRANCH  17  22
ATOM     22  C   UNL     1       4.803   4.217  17.555  0.00  0.00    +0.000 A 
ATOM     23  C   UNL     1       5.995   4.545  18.226  0.00  0.00    +0.000 A 
ATOM     24  C   UNL     1       7.181   4.796  17.532  0.00  0.00    +0.000 A 
ATOM     25  C   UNL     1       7.216   4.691  16.146  0.00  0.00    +0.000 A 
ATOM     26  C   UNL     1       6.058   4.347  15.440  0.00  0.00    +0.000 A 
ATOM     27  C   UNL     1       4.859   4.141  16.150  0.00  0.00    +0.000 A 
BRANCH  26  28
ATOM     28  C   UNL     1       6.098   4.129  13.947  0.00  0.00    +0.000 C 
ATOM     29  F   UNL     1       4.898   4.336  13.335  0.00  0.00    +0.000 F 
ATOM     30  F   UNL     1       6.978   4.964  13.326  0.00  0.00    +0.000 F 
ATOM     31  F   UNL     1       6.478   2.866  13.608  0.00  0.00    +0.000 F 
ENDBRANCH  26  28
ENDBRANCH  17  22
ENDBRANCH   2  17
TORSDOF 5
ENDMDL
MODEL 6
REMARK VINA RESULT:      -8.7      2.463      2.954
REMARK  Name = 
REMARK  5 active torsions:
REMARK  status: ('A' for Active; 'I' for Inactive)
REMARK    1  A    between atoms: C_2  and  C_4
REMARK    2  A    between atoms: C_6  and  N_7
REMARK    3  A    between atoms: C_8  and  C_10
REMARK    4  A    between atoms: C_10  and  C_11
REMARK    5  A    between atoms: C_15  and  C_16
REMARK                            x       y       z     vdW  Elec       q    Type
REMARK                         _______ _______ _______ _____ _____    ______ ____
ROOT
ATOM      1  N   UNL     1       2.332   6.820  18.695  0.00  0.00    +0.000 N 
ATOM      2  C   UNL     1       2.343   5.594  19.350  0.00  0.00    +0.000 C 
ATOM      3  O   UNL     1       1.899   5.428  20.493  0.00  0.00    +0.000 OA
ATOM      4  H   UNL     1       2.550   6.837  17.709  0.00  0.00    +0.000 HD
ENDROOT
BRANCH   1   7
ATOM      5  C   UNL     1       0.960   9.277  21.178  0.00  0.00    +0.000 A 
ATOM      6  C   UNL     1       1.536   8.120  20.636  0.00  0.00    +0.000 A 
ATOM      7  C   UNL     1       1.833   8.019  19.272  0.00  0.00    +0.000 A 
ATOM      8  C   UNL     1       1.626   9.138  18.459  0.00  0.00    +0.000 A 
ATOM      9  C   UNL     1       1.075  10.310  19.000  0.00  0.00    +0.000 A 
ATOM     10  C   UNL     1       0.743  10.374  20.352  0.00  0.00    +0.000 A 
ATOM     11  F   UNL     1       0.182  11.498  20.817  0.00  0.00    +0.000 F 
BRANCH   5  13
ATOM     12  N   UNL     1      -0.729   9.133  22.916  0.00  0.00    +0.000 N 
ATOM     13  C   UNL     1       0.595   9.324  22.614  0.00  0.00    +0.000 C 
ATOM     14  O   UNL     1       1.414   9.533  23.488  0.00  0.00    +0.000 OA
ATOM     15  H   UNL     1      -0.996   9.197  23.890  0.00  0.00    +0.000 HD
ATOM     16  H   UNL     1      -1.464   9.061  22.227  0.00  0.00    +0.000 HD
ENDBRANCH   5  13
ENDBRANCH   1   7
BRANCH   2  17
ATOM     17  C   UNL     1       2.999   4.396  18.617  0.00  0.00    +0.000 C 
ATOM     18  C   UNL     1       2.080   3.613  17.649  0.00  0.00    +0.000 C 
ATOM     19  C   UNL     1       2.604   2.169  17.652  0.00  0.00    +0.000 C 
ATOM     20  C   UNL     1       3.371   1.991  18.956  0.00  0.00    +0.000 C 
ATOM     21  C   UNL     1       3.166   3.292  19.705  0.00  0.00    +0.000 C 
BRANCH  17  22
ATOM     22  C   UNL     1       4.311   4.889  17.980  0.00  0.00    +0.000 A 
ATOM     23  C   UNL     1       4.333   5.423  16.679  0.00  0.00    +0.000 A 
ATOM     24  C   UNL     1       5.486   6.009  16.148  0.00  0.00    +0.000 A 
ATOM     25  C   UNL     1       6.638   6.108  16.918  0.00  0.00    +0.000 A 
ATOM     26  C   UNL     1       6.654   5.608  18.224  0.00  0.00    +0.000 A 
ATOM     27  C   UNL     1       5.499   4.980  18.731  0.00  0.00    +0.000 A 
BRANCH  26  28
ATOM     28  C   UNL     1       7.861   5.796  19.111  0.00  0.00    +0.000 C 
ATOM     29  F   UNL     1       8.504   6.980  18.911  0.00  0.00    +0.000 F 
ATOM     30  F   UNL     1       7.538   5.771  20.434  0.00  0.00    +0.000 F 
ATOM     31  F   UNL     1       8.800   4.825  18.937  0.00  0.00    +0.000 F 
ENDBRANCH  26  28
ENDBRANCH  17  22
ENDBRANCH   2  17
TORSDOF 5
ENDMDL
MODEL 7
REMARK VINA RESULT:      -8.7      2.304      2.774
REMARK  Name = 
REMARK  5 active torsions:
REMARK  status: ('A' for Active; 'I' for Inactive)
REMARK    1  A    between atoms: C_2  and  C_4
REMARK    2  A    between atoms: C_6  and  N_7
REMARK    3  A    between atoms: C_8  and  C_10
REMARK    4  A    between atoms: C_10  and  C_11
REMARK    5  A    between atoms: C_15  and  C_16
REMARK                            x       y       z     vdW  Elec       q    Type
REMARK                         _______ _______ _______ _____ _____    ______ ____
ROOT
ATOM      1  N   UNL     1       2.986   6.338  18.883  0.00  0.00    +0.000 N 
ATOM      2  C   UNL     1       2.397   5.157  18.450  0.00  0.00    +0.000 C 
ATOM      3  O   UNL     1       1.179   5.026  18.276  0.00  0.00    +0.000 OA
ATOM      4  H   UNL     1       3.992   6.417  18.833  0.00  0.00    +0.000 HD
ENDROOT
BRANCH   1   7
ATOM      5  C   UNL     1       1.035   8.918  20.788  0.00  0.00    +0.000 A 
ATOM      6  C   UNL     1       1.832   7.801  20.502  0.00  0.00    +0.000 A 
ATOM      7  C   UNL     1       2.256   7.516  19.199  0.00  0.00    +0.000 A 
ATOM      8  C   UNL     1       1.943   8.423  18.182  0.00  0.00    +0.000 A 
ATOM      9  C   UNL     1       1.168   9.559  18.465  0.00  0.00    +0.000 A 
ATOM     10  C   UNL     1       0.718   9.800  19.761  0.00  0.00    +0.000 A 
ATOM     11  F   UNL     1      -0.053  10.875  19.978  0.00  0.00    +0.000 F 
BRANCH   5  13
ATOM     12  N   UNL     1      -0.744   8.775  22.433  0.00  0.00    +0.000 N 
ATOM     13  C   UNL     1       0.548   9.151  22.168  0.00  0.00    +0.000 C 
ATOM     14  O   UNL     1       1.242   9.661  23.027  0.00  0.00    +0.000 OA
ATOM     15  H   UNL     1      -1.099   8.960  23.362  0.00  0.00    +0.000 HD
ATOM     16  H   UNL     1      -1.395   8.446  21.734  0.00  0.00    +0.000 HD
ENDBRANCH   5  13
ENDBRANCH   1   7
BRANCH   2  17
ATOM     17  C   UNL     1       3.323   3.933  18.228  0.00  0.00    +0.000 C 
ATOM     18  C   UNL     1       2.717   2.769  17.408  0.00  0.00    +0.000 C 
ATOM     19  C   UNL     1       3.394   1.493  17.932  0.00  0.00    +0.000 C 
ATOM     20  C   UNL     1       3.896   1.815  19.333  0.00  0.00    +0.000 C 
ATOM     21  C   UNL     1       3.394   3.218  19.611  0.00  0.00    +0.000 C 
BRANCH  17  22
ATOM     22  C   UNL     1       4.670   4.449  17.690  0.00  0.00    +0.000 A 
ATOM     23  C   UNL     1       4.823   4.816  16.340  0.00  0.00    +0.000 A 
ATOM     24  C   UNL     1       5.992   5.423  15.875  0.00  0.00    +0.000 A 
ATOM     25  C   UNL     1       7.028   5.712  16.755  0.00  0.00    +0.000 A 
ATOM     26  C   UNL     1       6.910   5.382  18.109  0.00  0.00    +0.000 A 
ATOM     27  C   UNL     1       5.744   4.731  18.557  0.00  0.00    +0.000 A 
BRANCH  26  28
ATOM     28  C   UNL     1       7.979   5.778  19.099  0.00  0.00    +0.000 C 
ATOM     29  F   UNL     1       9.013   4.892  19.167  0.00  0.00    +0.000 F 
ATOM     30  F   UNL     1       8.544   6.980  18.795  0.00  0.00    +0.000 F 
ATOM     31  F   UNL     1       7.505   5.898  20.369  0.00  0.00    +0.000 F 
ENDBRANCH  26  28
ENDBRANCH  17  22
ENDBRANCH   2  17
TORSDOF 5
ENDMDL
MODEL 8
REMARK VINA RESULT:      -8.6      0.798      1.060
REMARK  Name = 
REMARK  5 active torsions:
REMARK  status: ('A' for Active; 'I' for Inactive)
REMARK    1  A    between atoms: C_2  and  C_4
REMARK    2  A    between atoms: C_6  and  N_7
REMARK    3  A    between atoms: C_8  and  C_10
REMARK    4  A    between atoms: C_10  and  C_11
REMARK    5  A    between atoms: C_15  and  C_16
REMARK                            x       y       z     vdW  Elec       q    Type
REMARK                         _______ _______ _______ _____ _____    ______ ____
ROOT
ATOM      1  N   UNL     1       2.962   6.254  18.358  0.00  0.00    +0.000 N 
ATOM      2  C   UNL     1       2.681   5.049  18.989  0.00  0.00    +0.000 C 
ATOM      3  O   UNL     1       1.835   4.930  19.885  0.00  0.00    +0.000 OA
ATOM      4  H   UNL     1       3.533   6.236  17.525  0.00  0.00    +0.000 HD
ENDROOT
BRANCH   1   7
ATOM      5  C   UNL     1       1.212   8.958  20.285  0.00  0.00    +0.000 A 
ATOM      6  C   UNL     1       1.914   7.782  19.989  0.00  0.00    +0.000 A 
ATOM      7  C   UNL     1       2.331   7.485  18.686  0.00  0.00    +0.000 A 
ATOM      8  C   UNL     1       2.110   8.433  17.682  0.00  0.00    +0.000 A 
ATOM      9  C   UNL     1       1.432   9.626  17.977  0.00  0.00    +0.000 A 
ATOM     10  C   UNL     1       0.985   9.882  19.271  0.00  0.00    +0.000 A 
ATOM     11  F   UNL     1       0.307  11.015  19.498  0.00  0.00    +0.000 F 
BRANCH   5  13
ATOM     12  N   UNL     1       1.664   9.151  22.663  0.00  0.00    +0.000 N 
ATOM     13  C   UNL     1       0.727   9.208  21.664  0.00  0.00    +0.000 C 
ATOM     14  O   UNL     1      -0.441   9.439  21.911  0.00  0.00    +0.000 OA
ATOM     15  H   UNL     1       1.339   9.286  23.611  0.00  0.00    +0.000 HD
ATOM     16  H   UNL     1       2.623   8.861  22.527  0.00  0.00    +0.000 HD
ENDBRANCH   5  13
ENDBRANCH   1   7
BRANCH   2  17
ATOM     17  C   UNL     1       3.516   3.811  18.575  0.00  0.00    +0.000 C 
ATOM     18  C   UNL     1       2.748   2.705  17.812  0.00  0.00    +0.000 C 
ATOM     19  C   UNL     1       3.452   1.386  18.170  0.00  0.00    +0.000 C 
ATOM     20  C   UNL     1       4.176   1.627  19.487  0.00  0.00    +0.000 C 
ATOM     21  C   UNL     1       3.773   3.029  19.899  0.00  0.00    +0.000 C 
BRANCH  17  22
ATOM     22  C   UNL     1       4.781   4.311  17.855  0.00  0.00    +0.000 A 
ATOM     23  C   UNL     1       5.941   4.652  18.573  0.00  0.00    +0.000 A 
ATOM     24  C   UNL     1       7.139   4.964  17.924  0.00  0.00    +0.000 A 
ATOM     25  C   UNL     1       7.218   4.909  16.538  0.00  0.00    +0.000 A 
ATOM     26  C   UNL     1       6.094   4.555  15.785  0.00  0.00    +0.000 A 
ATOM     27  C   UNL     1       4.881   4.286  16.450  0.00  0.00    +0.000 A 
BRANCH  26  28
ATOM     28  C   UNL     1       6.185   4.390  14.287  0.00  0.00    +0.000 C 
ATOM     29  F   UNL     1       6.484   3.120  13.896  0.00  0.00    +0.000 F 
ATOM     30  F   UNL     1       5.016   4.703  13.661  0.00  0.00    +0.000 F 
ATOM     31  F   UNL     1       7.135   5.188  13.725  0.00  0.00    +0.000 F 
ENDBRANCH  26  28
ENDBRANCH  17  22
ENDBRANCH   2  17
TORSDOF 5
ENDMDL
MODEL 9
REMARK VINA RESULT:      -8.6      2.756      3.610
REMARK  Name = 
REMARK  5 active torsions:
REMARK  status: ('A' for Active; 'I' for Inactive)
REMARK    1  A    between atoms: C_2  and  C_4
REMARK    2  A    between atoms: C_6  and  N_7
REMARK    3  A    between atoms: C_8  and  C_10
REMARK    4  A    between atoms: C_10  and  C_11
REMARK    5  A    between atoms: C_15  and  C_16
REMARK                            x       y       z     vdW  Elec       q    Type
REMARK                         _______ _______ _______ _____ _____    ______ ____
ROOT
ATOM      1  N   UNL     1       1.465   6.983  20.880  0.00  0.00    +0.000 N 
ATOM      2  C   UNL     1       2.096   6.425  19.776  0.00  0.00    +0.000 C 
ATOM      3  O   UNL     1       2.413   7.075  18.772  0.00  0.00    +0.000 OA
ATOM      4  H   UNL     1       1.397   6.428  21.722  0.00  0.00    +0.000 HD
ENDROOT
BRANCH   1   7
ATOM      5  C   UNL     1       0.825  10.568  19.974  0.00  0.00    +0.000 A 
ATOM      6  C   UNL     1       1.106   9.200  19.858  0.00  0.00    +0.000 A 
ATOM      7  C   UNL     1       1.093   8.351  20.971  0.00  0.00    +0.000 A 
ATOM      8  C   UNL     1       0.703   8.877  22.207  0.00  0.00    +0.000 A 
ATOM      9  C   UNL     1       0.394  10.241  22.326  0.00  0.00    +0.000 A 
ATOM     10  C   UNL     1       0.457  11.079  21.215  0.00  0.00    +0.000 A 
ATOM     11  F   UNL     1       0.193  12.381  21.383  0.00  0.00    +0.000 F 
BRANCH   5  13
ATOM     12  N   UNL     1       2.019  11.293  17.989  0.00  0.00    +0.000 N 
ATOM     13  C   UNL     1       0.915  11.450  18.786  0.00  0.00    +0.000 C 
ATOM     14  O   UNL     1       0.068  12.284  18.527  0.00  0.00    +0.000 OA
ATOM     15  H   UNL     1       2.109  11.913  17.194  0.00  0.00    +0.000 HD
ATOM     16  H   UNL     1       2.801  10.693  18.213  0.00  0.00    +0.000 HD
ENDBRANCH   5  13
ENDBRANCH   1   7
BRANCH   2  17
ATOM     17  C   UNL     1       2.360   4.898  19.796  0.00  0.00    +0.000 C 
ATOM     18  C   UNL     1       1.128   3.997  19.546  0.00  0.00    +0.000 C 
ATOM     19  C   UNL     1       1.397   2.697  20.320  0.00  0.00    +0.000 C 
ATOM     20  C   UNL     1       2.406   3.043  21.406  0.00  0.00    +0.000 C 
ATOM     21  C   UNL     1       2.595   4.542  21.295  0.00  0.00    +0.000 C 
BRANCH  17  22
ATOM     22  C   UNL     1       3.550   4.610  18.863  0.00  0.00    +0.000 A 
ATOM     23  C   UNL     1       3.352   4.122  17.558  0.00  0.00    +0.000 A 
ATOM     24  C   UNL     1       4.411   3.998  16.654  0.00  0.00    +0.000 A 
ATOM     25  C   UNL     1       5.692   4.394  17.019  0.00  0.00    +0.000 A 
ATOM     26  C   UNL     1       5.930   4.904  18.300  0.00  0.00    +0.000 A 
ATOM     27  C   UNL     1       4.863   4.982  19.216  0.00  0.00    +0.000 A 
BRANCH  26  28
ATOM     28  C   UNL     1       7.291   5.433  18.682  0.00  0.00    +0.000 C 
ATOM     29  F   UNL     1       7.586   6.637  18.115  0.00  0.00    +0.000 F 
ATOM     30  F   UNL     1       7.415   5.618  20.026  0.00  0.00    +0.000 F 
ATOM     31  F   UNL     1       8.303   4.594  18.326  0.00  0.00    +0.000 F 
ENDBRANCH  26  28
ENDBRANCH  17  22
ENDBRANCH   2  17
TORSDOF 5
ENDMDL
