MODEL 1
REMARK VINA RESULT:      -8.9      0.000      0.000
REMARK  Name = 
REMARK  5 active torsions:
REMARK  status: ('A' for Active; 'I' for Inactive)
REMARK    1  A    between atoms: C_1  and  C_2
REMARK    2  A    between atoms: C_5  and  C_6
REMARK    3  A    between atoms: C_9  and  C_10
REMARK    4  A    between atoms: C_10  and  N_11
REMARK    5  A    between atoms: C_15  and  C_16
REMARK                            x       y       z     vdW  Elec       q    Type
REMARK                         _______ _______ _______ _____ _____    ______ ____
ROOT
ATOM      1  C   UNL     1       2.837   5.770  19.748  0.00  0.00    +0.000 C 
ENDROOT
BRANCH   1   2
ATOM      2  N   UNL     1       2.051   4.782  18.970  0.00  0.00    +0.000 NA
ATOM      3  C   UNL     1       1.952   3.489  19.655  0.00  0.00    +0.000 C 
ATOM      4  C   UNL     1       3.288   2.750  19.801  0.00  0.00    +0.000 C 
ATOM      5  O   UNL     1       4.306   2.957  18.816  0.00  0.00    +0.000 OA
ATOM      6  C   UNL     1       4.093   3.877  17.733  0.00  0.00    +0.000 C 
ATOM      7  C   UNL     1       2.675   4.500  17.669  0.00  0.00    +0.000 C 
BRANCH   6   8
ATOM      8  C   UNL     1       5.244   4.882  17.590  0.00  0.00    +0.000 A 
ATOM      9  C   UNL     1       5.106   6.088  16.882  0.00  0.00    +0.000 A 
ATOM     10  C   UNL     1       6.104   7.069  16.938  0.00  0.00    +0.000 A 
ATOM     11  C   UNL     1       7.249   6.850  17.696  0.00  0.00    +0.000 A 
ATOM     12  F   UNL     1       8.166   7.819  17.812  0.00  0.00    +0.000 F 
ATOM     13  C   UNL     1       7.439   5.647  18.359  0.00  0.00    +0.000 A 
ATOM     14  C   UNL     1       6.443   4.669  18.302  0.00  0.00    +0.000 A 
ENDBRANCH   6   8
ENDBRANCH   1   2
BRANCH   1  18
ATOM     15  C   UNL     1       1.142   8.868  20.327  0.00  0.00    +0.000 A 
ATOM     16  N   UNL     1       1.515   9.058  19.051  0.00  0.00    +0.000 NA
ATOM     17  O   UNL     1       2.206   7.887  18.733  0.00  0.00    +0.000 OA
ATOM     18  C   UNL     1       2.178   7.105  19.850  0.00  0.00    +0.000 A 
ATOM     19  N   UNL     1       1.552   7.666  20.857  0.00  0.00    +0.000 NA
BRANCH  15  24
ATOM     20  C   UNL     1      -2.497  12.205  23.297  0.00  0.00    +0.000 C 
ATOM     21  C   UNL     1      -1.481  11.386  22.567  0.00  0.00    +0.000 A 
ATOM     22  C   UNL     1      -0.837  10.312  23.181  0.00  0.00    +0.000 A 
ATOM     23  C   UNL     1       0.048   9.515  22.449  0.00  0.00    +0.000 A 
ATOM     24  C   UNL     1       0.307   9.780  21.094  0.00  0.00    +0.000 A 
ATOM     25  C   UNL     1      -0.302  10.885  20.493  0.00  0.00    +0.000 A 
ATOM     26  C   UNL     1      -1.188  11.668  21.227  0.00  0.00    +0.000 A 
ATOM     27  F   UNL     1      -1.786  12.702  20.621  0.00  0.00    +0.000 F 
ENDBRANCH  15  24
ENDBRANCH   1  18
TORSDOF 4
ENDMDL
MODEL 2
REMARK VINA RESULT:      -8.7      2.599      4.055
REMARK  Name = 
REMARK  5 active torsions:
REMARK  status: ('A' for Active; 'I' for Inactive)
REMARK    1  A    between atoms: C_1  and  C_2
REMARK    2  A    between atoms: C_5  and  C_6
REMARK    3  A    between atoms: C_9  and  C_10
REMARK    4  A    between atoms: C_10  and  N_11
REMARK    5  A    between atoms: C_15  and  C_16
REMARK                            x       y       z     vdW  Elec       q    Type
REMARK                         _______ _______ _______ _____ _____    ______ ____
ROOT
ATOM      1  C   UNL     1       3.724   6.635  17.442  0.00  0.00    +0.000 C 
ENDROOT
BRANCH   1   2
ATOM      2  N   UNL     1       5.133   6.718  17.896  0.00  0.00    +0.000 NA
ATOM      3  C   UNL     1       6.083   6.533  16.795  0.00  0.00    +0.000 C 
ATOM      4  C   UNL     1       6.059   5.130  16.174  0.00  0.00    +0.000 C 
ATOM      5  O   UNL     1       5.692   4.015  16.993  0.00  0.00    +0.000 OA
ATOM      6  C   UNL     1       5.309   4.214  18.364  0.00  0.00    +0.000 C 
ATOM      7  C   UNL     1       5.446   5.670  18.879  0.00  0.00    +0.000 C 
BRANCH   6   8
ATOM      8  C   UNL     1       3.974   3.537  18.699  0.00  0.00    +0.000 A 
ATOM      9  C   UNL     1       3.227   3.870  19.842  0.00  0.00    +0.000 A 
ATOM     10  C   UNL     1       1.925   3.382  20.013  0.00  0.00    +0.000 A 
ATOM     11  C   UNL     1       1.363   2.553  19.048  0.00  0.00    +0.000 A 
ATOM     12  F   UNL     1       0.092   2.151  19.175  0.00  0.00    +0.000 F 
ATOM     13  C   UNL     1       2.096   2.162  17.938  0.00  0.00    +0.000 A 
ATOM     14  C   UNL     1       3.394   2.649  17.768  0.00  0.00    +0.000 A 
ENDBRANCH   6   8
ENDBRANCH   1   2
BRANCH   1  18
ATOM     15  C   UNL     1       1.618   9.093  18.969  0.00  0.00    +0.000 A 
ATOM     16  N   UNL     1       1.797   9.672  17.771  0.00  0.00    +0.000 NA
ATOM     17  O   UNL     1       2.629   8.778  17.095  0.00  0.00    +0.000 OA
ATOM     18  C   UNL     1       2.869   7.746  17.953  0.00  0.00    +0.000 A 
ATOM     19  N   UNL     1       2.285   7.898  19.119  0.00  0.00    +0.000 NA
BRANCH  15  24
ATOM     20  C   UNL     1      -1.563  11.414  23.175  0.00  0.00    +0.000 C 
ATOM     21  C   UNL     1      -0.814  10.763  22.056  0.00  0.00    +0.000 A 
ATOM     22  C   UNL     1      -0.921  11.225  20.745  0.00  0.00    +0.000 A 
ATOM     23  C   UNL     1      -0.147  10.648  19.734  0.00  0.00    +0.000 A 
ATOM     24  C   UNL     1       0.742   9.598  20.016  0.00  0.00    +0.000 A 
ATOM     25  C   UNL     1       0.814   9.103  21.322  0.00  0.00    +0.000 A 
ATOM     26  C   UNL     1       0.046   9.690  22.323  0.00  0.00    +0.000 A 
ATOM     27  F   UNL     1       0.155   9.222  23.574  0.00  0.00    +0.000 F 
ENDBRANCH  15  24
ENDBRANCH   1  18
TORSDOF 4
ENDMDL
MODEL 3
REMARK VINA RESULT:      -8.7      0.973      1.292
REMARK  Name = 
REMARK  5 active torsions:
REMARK  status: ('A' for Active; 'I' for Inactive)
REMARK    1  A    between atoms: C_1  and  C_2
REMARK    2  A    between atoms: C_5  and  C_6
REMARK    3  A    between atoms: C_9  and  C_10
REMARK    4  A    between atoms: C_10  and  N_11
REMARK    5  A    between atoms: C_15  and  C_16
REMARK                            x       y       z     vdW  Elec       q    Type
REMARK                         _______ _______ _______ _____ _____    ______ ____
ROOT
ATOM      1  C   UNL     1       2.769   5.493  19.778  0.00  0.00    +0.000 C 
ENDROOT
BRANCH   1   2
ATOM      2  N   UNL     1       1.916   4.543  19.024  0.00  0.00    +0.000 NA
ATOM      3  C   UNL     1       1.851   3.227  19.667  0.00  0.00    +0.000 C 
ATOM      4  C   UNL     1       3.185   2.469  19.685  0.00  0.00    +0.000 C 
ATOM      5  O   UNL     1       4.130   2.703  18.636  0.00  0.00    +0.000 OA
ATOM      6  C   UNL     1       3.850   3.666  17.606  0.00  0.00    +0.000 C 
ATOM      7  C   UNL     1       2.439   4.305  17.671  0.00  0.00    +0.000 C 
BRANCH   6   8
ATOM      8  C   UNL     1       4.999   4.664  17.416  0.00  0.00    +0.000 A 
ATOM      9  C   UNL     1       4.858   5.839  16.657  0.00  0.00    +0.000 A 
ATOM     10  C   UNL     1       5.855   6.821  16.668  0.00  0.00    +0.000 A 
ATOM     11  C   UNL     1       7.004   6.636  17.430  0.00  0.00    +0.000 A 
ATOM     12  F   UNL     1       7.921   7.609  17.501  0.00  0.00    +0.000 F 
ATOM     13  C   UNL     1       7.197   5.462  18.143  0.00  0.00    +0.000 A 
ATOM     14  C   UNL     1       6.201   4.482  18.131  0.00  0.00    +0.000 A 
ENDBRANCH   6   8
ENDBRANCH   1   2
BRANCH   1  18
ATOM     15  C   UNL     1       1.414   8.794  20.056  0.00  0.00    +0.000 A 
ATOM     16  N   UNL     1       1.844   8.840  18.784  0.00  0.00    +0.000 NA
ATOM     17  O   UNL     1       2.409   7.579  18.582  0.00  0.00    +0.000 OA
ATOM     18  C   UNL     1       2.260   6.896  19.753  0.00  0.00    +0.000 A 
ATOM     19  N   UNL     1       1.671   7.600  20.690  0.00  0.00    +0.000 NA
BRANCH  15  24
ATOM     20  C   UNL     1      -1.197  13.059  22.917  0.00  0.00    +0.000 C 
ATOM     21  C   UNL     1      -0.589  11.957  22.109  0.00  0.00    +0.000 A 
ATOM     22  C   UNL     1       0.181  12.225  20.978  0.00  0.00    +0.000 A 
ATOM     23  C   UNL     1       0.803  11.180  20.290  0.00  0.00    +0.000 A 
ATOM     24  C   UNL     1       0.664   9.849  20.720  0.00  0.00    +0.000 A 
ATOM     25  C   UNL     1      -0.147   9.576  21.826  0.00  0.00    +0.000 A 
ATOM     26  C   UNL     1      -0.756  10.624  22.509  0.00  0.00    +0.000 A 
ATOM     27  F   UNL     1      -1.501  10.344  23.586  0.00  0.00    +0.000 F 
ENDBRANCH  15  24
ENDBRANCH   1  18
TORSDOF 4
ENDMDL
MODEL 4
REMARK VINA RESULT:      -8.6      2.599      4.039
REMARK  Name = 
REMARK  5 active torsions:
REMARK  status: ('A' for Active; 'I' for Inactive)
REMARK    1  A    between atoms: C_1  and  C_2
REMARK    2  A    between atoms: C_5  and  C_6
REMARK    3  A    between atoms: C_9  and  C_10
REMARK    4  A    between atoms: C_10  and  N_11
REMARK    5  A    between atoms: C_15  and  C_16
REMARK                            x       y       z     vdW  Elec       q    Type
REMARK                         _______ _______ _______ _____ _____    ______ ____
ROOT
ATOM      1  C   UNL     1       3.208   6.570  17.461  0.00  0.00    +0.000 C 
ENDROOT
BRANCH   1   2
ATOM      2  N   UNL     1       4.686   6.632  17.565  0.00  0.00    +0.000 NA
ATOM      3  C   UNL     1       5.348   6.106  16.367  0.00  0.00    +0.000 C 
ATOM      4  C   UNL     1       5.134   4.605  16.138  0.00  0.00    +0.000 C 
ATOM      5  O   UNL     1       4.930   3.753  17.271  0.00  0.00    +0.000 OA
ATOM      6  C   UNL     1       4.882   4.305  18.597  0.00  0.00    +0.000 C 
ATOM      7  C   UNL     1       5.183   5.823  18.687  0.00  0.00    +0.000 C 
BRANCH   6   8
ATOM      8  C   UNL     1       3.639   3.849  19.372  0.00  0.00    +0.000 A 
ATOM      9  C   UNL     1       3.071   2.575  19.201  0.00  0.00    +0.000 A 
ATOM     10  C   UNL     1       2.065   2.119  20.062  0.00  0.00    +0.000 A 
ATOM     11  C   UNL     1       1.615   2.934  21.096  0.00  0.00    +0.000 A 
ATOM     12  F   UNL     1       0.710   2.467  21.965  0.00  0.00    +0.000 F 
ATOM     13  C   UNL     1       2.117   4.216  21.254  0.00  0.00    +0.000 A 
ATOM     14  C   UNL     1       3.119   4.671  20.394  0.00  0.00    +0.000 A 
ENDBRANCH   6   8
ENDBRANCH   1   2
BRANCH   1  18
ATOM     15  C   UNL     1       1.454   9.220  19.109  0.00  0.00    +0.000 A 
ATOM     16  N   UNL     1       1.810   9.859  17.983  0.00  0.00    +0.000 NA
ATOM     17  O   UNL     1       2.522   8.895  17.267  0.00  0.00    +0.000 OA
ATOM     18  C   UNL     1       2.522   7.766  18.033  0.00  0.00    +0.000 A 
ATOM     19  N   UNL     1       1.895   7.918  19.176  0.00  0.00    +0.000 NA
BRANCH  15  24
ATOM     20  C   UNL     1      -1.593  11.746  23.296  0.00  0.00    +0.000 C 
ATOM     21  C   UNL     1      -0.881  11.044  22.183  0.00  0.00    +0.000 A 
ATOM     22  C   UNL     1      -0.979  11.488  20.865  0.00  0.00    +0.000 A 
ATOM     23  C   UNL     1      -0.238  10.861  19.859  0.00  0.00    +0.000 A 
ATOM     24  C   UNL     1       0.609   9.779  20.153  0.00  0.00    +0.000 A 
ATOM     25  C   UNL     1       0.669   9.305  21.466  0.00  0.00    +0.000 A 
ATOM     26  C   UNL     1      -0.065   9.940  22.463  0.00  0.00    +0.000 A 
ATOM     27  F   UNL     1       0.034   9.490  23.721  0.00  0.00    +0.000 F 
ENDBRANCH  15  24
ENDBRANCH   1  18
TORSDOF 4
ENDMDL
MODEL 5
REMARK VINA RESULT:      -8.6      1.527      1.685
REMARK  Name = 
REMARK  5 active torsions:
REMARK  status: ('A' for Active; 'I' for Inactive)
REMARK    1  A    between atoms: C_1  and  C_2
REMARK    2  A    between atoms: C_5  and  C_6
REMARK    3  A    between atoms: C_9  and  C_10
REMARK    4  A    between atoms: C_10  and  N_11
REMARK    5  A    between atoms: C_15  and  C_16
REMARK                            x       y       z     vdW  Elec       q    Type
REMARK                         _______ _______ _______ _____ _____    ______ ____
ROOT
ATOM      1  C   UNL     1       3.080   6.106  19.315  0.00  0.00    +0.000 C 
ENDROOT
BRANCH   1   2
ATOM      2  N   UNL     1       2.541   4.971  18.527  0.00  0.00    +0.000 NA
ATOM      3  C   UNL     1       2.340   3.773  19.347  0.00  0.00    +0.000 C 
ATOM      4  C   UNL     1       3.636   3.159  19.892  0.00  0.00    +0.000 C 
ATOM      5  O   UNL     1       4.846   3.314  19.143  0.00  0.00    +0.000 OA
ATOM      6  C   UNL     1       4.852   4.071  17.921  0.00  0.00    +0.000 C 
ATOM      7  C   UNL     1       3.463   4.574  17.453  0.00  0.00    +0.000 C 
BRANCH   6   8
ATOM      8  C   UNL     1       5.960   5.132  17.901  0.00  0.00    +0.000 A 
ATOM      9  C   UNL     1       5.923   6.243  17.041  0.00  0.00    +0.000 A 
ATOM     10  C   UNL     1       6.840   7.291  17.186  0.00  0.00    +0.000 A 
ATOM     11  C   UNL     1       7.805   7.235  18.186  0.00  0.00    +0.000 A 
ATOM     12  F   UNL     1       8.631   8.272  18.373  0.00  0.00    +0.000 F 
ATOM     13  C   UNL     1       7.902   6.127  19.013  0.00  0.00    +0.000 A 
ATOM     14  C   UNL     1       6.987   5.081  18.867  0.00  0.00    +0.000 A 
ENDBRANCH   6   8
ENDBRANCH   1   2
BRANCH   1  18
ATOM     15  C   UNL     1       1.407   9.224  18.782  0.00  0.00    +0.000 A 
ATOM     16  N   UNL     1       2.087   9.140  17.627  0.00  0.00    +0.000 NA
ATOM     17  O   UNL     1       2.792   7.941  17.746  0.00  0.00    +0.000 OA
ATOM     18  C   UNL     1       2.465   7.419  18.963  0.00  0.00    +0.000 A 
ATOM     19  N   UNL     1       1.632   8.173  19.641  0.00  0.00    +0.000 NA
BRANCH  15  24
ATOM     20  C   UNL     1      -2.573  13.075  20.372  0.00  0.00    +0.000 C 
ATOM     21  C   UNL     1      -1.492  12.147  19.917  0.00  0.00    +0.000 A 
ATOM     22  C   UNL     1      -0.284  12.045  20.606  0.00  0.00    +0.000 A 
ATOM     23  C   UNL     1       0.674  11.111  20.205  0.00  0.00    +0.000 A 
ATOM     24  C   UNL     1       0.443  10.265  19.107  0.00  0.00    +0.000 A 
ATOM     25  C   UNL     1      -0.748  10.400  18.388  0.00  0.00    +0.000 A 
ATOM     26  C   UNL     1      -1.700  11.327  18.800  0.00  0.00    +0.000 A 
ATOM     27  F   UNL     1      -2.849  11.417  18.116  0.00  0.00    +0.000 F 
ENDBRANCH  15  24
ENDBRANCH   1  18
TORSDOF 4
ENDMDL
MODEL 6
REMARK VINA RESULT:      -8.4      1.975      2.369
REMARK  Name = 
REMARK  5 active torsions:
REMARK  status: ('A' for Active; 'I' for Inactive)
REMARK    1  A    between atoms: C_1  and  C_2
REMARK    2  A    between atoms: C_5  and  C_6
REMARK    3  A    between atoms: C_9  and  C_10
REMARK    4  A    between atoms: C_10  and  N_11
REMARK    5  A    between atoms: C_15  and  C_16
REMARK                            x       y       z     vdW  Elec       q    Type
REMARK                         _______ _______ _______ _____ _____    ______ ____
ROOT
ATOM      1  C   UNL     1       3.159   6.299  18.028  0.00  0.00    +0.000 C 
ENDROOT
BRANCH   1   2
ATOM      2  N   UNL     1       2.354   5.075  18.253  0.00  0.00    +0.000 NA
ATOM      3  C   UNL     1       2.538   4.531  19.602  0.00  0.00    +0.000 C 
ATOM      4  C   UNL     1       3.952   4.005  19.880  0.00  0.00    +0.000 C 
ATOM      5  O   UNL     1       4.727   3.489  18.792  0.00  0.00    +0.000 OA
ATOM      6  C   UNL     1       4.202   3.506  17.454  0.00  0.00    +0.000 C 
ATOM      7  C   UNL     1       2.738   3.999  17.329  0.00  0.00    +0.000 C 
BRANCH   6   8
ATOM      8  C   UNL     1       5.180   4.136  16.454  0.00  0.00    +0.000 A 
ATOM      9  C   UNL     1       6.412   4.685  16.850  0.00  0.00    +0.000 A 
ATOM     10  C   UNL     1       7.364   5.069  15.898  0.00  0.00    +0.000 A 
ATOM     11  C   UNL     1       7.090   4.914  14.542  0.00  0.00    +0.000 A 
ATOM     12  F   UNL     1       8.031   5.209  13.636  0.00  0.00    +0.000 F 
ATOM     13  C   UNL     1       5.862   4.429  14.120  0.00  0.00    +0.000 A 
ATOM     14  C   UNL     1       4.913   4.047  15.072  0.00  0.00    +0.000 A 
ENDBRANCH   6   8
ENDBRANCH   1   2
BRANCH   1  18
ATOM     15  C   UNL     1       1.360   9.155  19.219  0.00  0.00    +0.000 A 
ATOM     16  N   UNL     1       1.614   9.563  17.965  0.00  0.00    +0.000 NA
ATOM     17  O   UNL     1       2.335   8.503  17.413  0.00  0.00    +0.000 OA
ATOM     18  C   UNL     1       2.443   7.557  18.390  0.00  0.00    +0.000 A 
ATOM     19  N   UNL     1       1.875   7.914  19.518  0.00  0.00    +0.000 NA
BRANCH  15  24
ATOM     20  C   UNL     1      -1.514  12.280  23.114  0.00  0.00    +0.000 C 
ATOM     21  C   UNL     1      -0.852  11.438  22.070  0.00  0.00    +0.000 A 
ATOM     22  C   UNL     1      -0.751  11.867  20.747  0.00  0.00    +0.000 A 
ATOM     23  C   UNL     1      -0.056  11.095  19.812  0.00  0.00    +0.000 A 
ATOM     24  C   UNL     1       0.546   9.881  20.182  0.00  0.00    +0.000 A 
ATOM     25  C   UNL     1       0.403   9.428  21.497  0.00  0.00    +0.000 A 
ATOM     26  C   UNL     1      -0.283  10.207  22.423  0.00  0.00    +0.000 A 
ATOM     27  F   UNL     1      -0.379   9.770  23.686  0.00  0.00    +0.000 F 
ENDBRANCH  15  24
ENDBRANCH   1  18
TORSDOF 4
ENDMDL
MODEL 7
REMARK VINA RESULT:      -8.4      2.447      3.832
REMARK  Name = 
REMARK  5 active torsions:
REMARK  status: ('A' for Active; 'I' for Inactive)
REMARK    1  A    between atoms: C_1  and  C_2
REMARK    2  A    between atoms: C_5  and  C_6
REMARK    3  A    between atoms: C_9  and  C_10
REMARK    4  A    between atoms: C_10  and  N_11
REMARK    5  A    between atoms: C_15  and  C_16
REMARK                            x       y       z     vdW  Elec       q    Type
REMARK                         _______ _______ _______ _____ _____    ______ ____
ROOT
ATOM      1  C   UNL     1       3.141   6.548  17.538  0.00  0.00    +0.000 C 
ENDROOT
BRANCH   1   2
ATOM      2  N   UNL     1       4.622   6.585  17.594  0.00  0.00    +0.000 NA
ATOM      3  C   UNL     1       5.237   6.063  16.370  0.00  0.00    +0.000 C 
ATOM      4  C   UNL     1       4.992   4.568  16.130  0.00  0.00    +0.000 C 
ATOM      5  O   UNL     1       4.810   3.706  17.259  0.00  0.00    +0.000 OA
ATOM      6  C   UNL     1       4.814   4.243  18.592  0.00  0.00    +0.000 C 
ATOM      7  C   UNL     1       5.142   5.754  18.690  0.00  0.00    +0.000 C 
BRANCH   6   8
ATOM      8  C   UNL     1       3.589   3.797  19.401  0.00  0.00    +0.000 A 
ATOM      9  C   UNL     1       2.997   2.533  19.236  0.00  0.00    +0.000 A 
ATOM     10  C   UNL     1       2.012   2.082  20.123  0.00  0.00    +0.000 A 
ATOM     11  C   UNL     1       1.606   2.893  21.179  0.00  0.00    +0.000 A 
ATOM     12  F   UNL     1       0.722   2.430  22.071  0.00  0.00    +0.000 F 
ATOM     13  C   UNL     1       2.131   4.167  21.334  0.00  0.00    +0.000 A 
ATOM     14  C   UNL     1       3.114   4.615  20.447  0.00  0.00    +0.000 A 
ENDBRANCH   6   8
ENDBRANCH   1   2
BRANCH   1  18
ATOM     15  C   UNL     1       1.509   9.294  19.152  0.00  0.00    +0.000 A 
ATOM     16  N   UNL     1       1.761   9.859  17.960  0.00  0.00    +0.000 NA
ATOM     17  O   UNL     1       2.418   8.851  17.251  0.00  0.00    +0.000 OA
ATOM     18  C   UNL     1       2.495   7.776  18.086  0.00  0.00    +0.000 A 
ATOM     19  N   UNL     1       1.966   8.001  19.266  0.00  0.00    +0.000 NA
BRANCH  15  24
ATOM     20  C   UNL     1      -1.829  11.501  23.297  0.00  0.00    +0.000 C 
ATOM     21  C   UNL     1      -0.887  10.966  22.266  0.00  0.00    +0.000 A 
ATOM     22  C   UNL     1      -0.150   9.804  22.489  0.00  0.00    +0.000 A 
ATOM     23  C   UNL     1       0.660   9.283  21.476  0.00  0.00    +0.000 A 
ATOM     24  C   UNL     1       0.750   9.918  20.225  0.00  0.00    +0.000 A 
ATOM     25  C   UNL     1       0.047  11.108  20.019  0.00  0.00    +0.000 A 
ATOM     26  C   UNL     1      -0.763  11.614  21.030  0.00  0.00    +0.000 A 
ATOM     27  F   UNL     1      -1.454  12.739  20.799  0.00  0.00    +0.000 F 
ENDBRANCH  15  24
ENDBRANCH   1  18
TORSDOF 4
ENDMDL
MODEL 8
REMARK VINA RESULT:      -8.4      1.372      1.620
REMARK  Name = 
REMARK  5 active torsions:
REMARK  status: ('A' for Active; 'I' for Inactive)
REMARK    1  A    between atoms: C_1  and  C_2
REMARK    2  A    between atoms: C_5  and  C_6
REMARK    3  A    between atoms: C_9  and  C_10
REMARK    4  A    between atoms: C_10  and  N_11
REMARK    5  A    between atoms: C_15  and  C_16
REMARK                            x       y       z     vdW  Elec       q    Type
REMARK                         _______ _______ _______ _____ _____    ______ ____
ROOT
ATOM      1  C   UNL     1       3.074   6.069  19.412  0.00  0.00    +0.000 C 
ENDROOT
BRANCH   1   2
ATOM      2  N   UNL     1       2.502   4.966  18.604  0.00  0.00    +0.000 NA
ATOM      3  C   UNL     1       2.307   3.745  19.392  0.00  0.00    +0.000 C 
ATOM      4  C   UNL     1       3.609   3.100  19.885  0.00  0.00    +0.000 C 
ATOM      5  O   UNL     1       4.801   3.265  19.109  0.00  0.00    +0.000 OA
ATOM      6  C   UNL     1       4.786   4.059  17.911  0.00  0.00    +0.000 C 
ATOM      7  C   UNL     1       3.391   4.592  17.495  0.00  0.00    +0.000 C 
BRANCH   6   8
ATOM      8  C   UNL     1       5.905   5.108  17.895  0.00  0.00    +0.000 A 
ATOM      9  C   UNL     1       5.870   6.234  17.055  0.00  0.00    +0.000 A 
ATOM     10  C   UNL     1       6.801   7.269  17.206  0.00  0.00    +0.000 A 
ATOM     11  C   UNL     1       7.778   7.185  18.193  0.00  0.00    +0.000 A 
ATOM     12  F   UNL     1       8.617   8.210  18.387  0.00  0.00    +0.000 F 
ATOM     13  C   UNL     1       7.872   6.062  18.999  0.00  0.00    +0.000 A 
ATOM     14  C   UNL     1       6.944   5.029  18.847  0.00  0.00    +0.000 A 
ENDBRANCH   6   8
ENDBRANCH   1   2
BRANCH   1  18
ATOM     15  C   UNL     1       1.339   9.187  19.129  0.00  0.00    +0.000 A 
ATOM     16  N   UNL     1       1.943   9.162  17.930  0.00  0.00    +0.000 NA
ATOM     17  O   UNL     1       2.666   7.968  17.950  0.00  0.00    +0.000 OA
ATOM     18  C   UNL     1       2.424   7.388  19.160  0.00  0.00    +0.000 A 
ATOM     19  N   UNL     1       1.630   8.102  19.925  0.00  0.00    +0.000 NA
BRANCH  15  24
ATOM     20  C   UNL     1      -2.258  13.461  20.540  0.00  0.00    +0.000 C 
ATOM     21  C   UNL     1      -1.382  12.292  20.221  0.00  0.00    +0.000 A 
ATOM     22  C   UNL     1      -1.690  11.415  19.181  0.00  0.00    +0.000 A 
ATOM     23  C   UNL     1      -0.811  10.379  18.854  0.00  0.00    +0.000 A 
ATOM     24  C   UNL     1       0.389  10.200  19.563  0.00  0.00    +0.000 A 
ATOM     25  C   UNL     1       0.675  11.049  20.636  0.00  0.00    +0.000 A 
ATOM     26  C   UNL     1      -0.203  12.083  20.949  0.00  0.00    +0.000 A 
ATOM     27  F   UNL     1       0.107  12.906  21.959  0.00  0.00    +0.000 F 
ENDBRANCH  15  24
ENDBRANCH   1  18
TORSDOF 4
ENDMDL
MODEL 9
REMARK VINA RESULT:      -8.4      1.515      1.787
REMARK  Name = 
REMARK  5 active torsions:
REMARK  status: ('A' for Active; 'I' for Inactive)
REMARK    1  A    between atoms: C_1  and  C_2
REMARK    2  A    between atoms: C_5  and  C_6
REMARK    3  A    between atoms: C_9  and  C_10
REMARK    4  A    between atoms: C_10  and  N_11
REMARK    5  A    between atoms: C_15  and  C_16
REMARK                            x       y       z     vdW  Elec       q    Type
REMARK                         _______ _______ _______ _____ _____    ______ ____
ROOT
ATOM      1  C   UNL     1       3.069   6.068  18.514  0.00  0.00    +0.000 C 
ENDROOT
BRANCH   1   2
ATOM      2  N   UNL     1       2.179   4.883  18.557  0.00  0.00    +0.000 NA
ATOM      3  C   UNL     1       2.294   4.149  19.821  0.00  0.00    +0.000 C 
ATOM      4  C   UNL     1       3.663   3.494  20.045  0.00  0.00    +0.000 C 
ATOM      5  O   UNL     1       4.428   3.078  18.908  0.00  0.00    +0.000 OA
ATOM      6  C   UNL     1       3.938   3.313  17.578  0.00  0.00    +0.000 C 
ATOM      7  C   UNL     1       2.514   3.918  17.499  0.00  0.00    +0.000 C 
BRANCH   6   8
ATOM      8  C   UNL     1       4.980   4.004  16.689  0.00  0.00    +0.000 A 
ATOM      9  C   UNL     1       6.229   4.424  17.179  0.00  0.00    +0.000 A 
ATOM     10  C   UNL     1       7.229   4.867  16.305  0.00  0.00    +0.000 A 
ATOM     11  C   UNL     1       6.988   4.901  14.936  0.00  0.00    +0.000 A 
ATOM     12  F   UNL     1       7.970   5.251  14.095  0.00  0.00    +0.000 F 
ATOM     13  C   UNL     1       5.747   4.548  14.428  0.00  0.00    +0.000 A 
ATOM     14  C   UNL     1       4.750   4.107  15.301  0.00  0.00    +0.000 A 
ENDBRANCH   6   8
ENDBRANCH   1   2
BRANCH   1  18
ATOM     15  C   UNL     1       1.331   8.992  19.626  0.00  0.00    +0.000 A 
ATOM     16  N   UNL     1       1.525   9.328  18.340  0.00  0.00    +0.000 NA
ATOM     17  O   UNL     1       2.219   8.236  17.816  0.00  0.00    +0.000 OA
ATOM     18  C   UNL     1       2.372   7.346  18.838  0.00  0.00    +0.000 A 
ATOM     19  N   UNL     1       1.859   7.768  19.970  0.00  0.00    +0.000 NA
BRANCH  15  24
ATOM     20  C   UNL     1      -2.044  11.833  23.332  0.00  0.00    +0.000 C 
ATOM     21  C   UNL     1      -1.093  11.134  22.414  0.00  0.00    +0.000 A 
ATOM     22  C   UNL     1      -0.433   9.968  22.801  0.00  0.00    +0.000 A 
ATOM     23  C   UNL     1       0.387   9.293  21.893  0.00  0.00    +0.000 A 
ATOM     24  C   UNL     1       0.565   9.774  20.585  0.00  0.00    +0.000 A 
ATOM     25  C   UNL     1      -0.059  10.968  20.212  0.00  0.00    +0.000 A 
ATOM     26  C   UNL     1      -0.880  11.629  21.120  0.00  0.00    +0.000 A 
ATOM     27  F   UNL     1      -1.495  12.754  20.732  0.00  0.00    +0.000 F 
ENDBRANCH  15  24
ENDBRANCH   1  18
TORSDOF 4
ENDMDL
