MODEL 1
REMARK VINA RESULT:      -8.9      0.000      0.000
REMARK  Name = 
REMARK  5 active torsions:
REMARK  status: ('A' for Active; 'I' for Inactive)
REMARK    1  A    between atoms: C_1  and  C_2
REMARK    2  A    between atoms: C_4  and  N_5
REMARK    3  A    between atoms: C_9  and  N_10
REMARK    4  A    between atoms: N_10  and  C_11
REMARK    5  A    between atoms: N_23  and  C_24
REMARK                            x       y       z     vdW  Elec       q    Type
REMARK                         _______ _______ _______ _____ _____    ______ ____
ROOT
ATOM      1  N   UNL     1       4.389   4.408  17.696  0.00  0.00    +0.000 N 
ATOM      2  C   UNL     1       4.063   3.092  18.255  0.00  0.00    +0.000 C 
ATOM      3  C   UNL     1       2.597   3.111  18.707  0.00  0.00    +0.000 C 
ATOM      4  C   UNL     1       2.286   4.278  19.659  0.00  0.00    +0.000 C 
ATOM      5  C   UNL     1       2.773   5.621  19.087  0.00  0.00    +0.000 C 
ATOM      6  C   UNL     1       4.258   5.494  18.681  0.00  0.00    +0.000 C 
ENDROOT
BRANCH   1  10
ATOM      7  C   UNL     1       7.083   4.670  13.490  0.00  0.00    +0.000 C 
ATOM      8  C   UNL     1       6.588   4.677  14.885  0.00  0.00    +0.000 A 
ATOM      9  C   UNL     1       5.255   4.583  15.348  0.00  0.00    +0.000 A 
ATOM     10  C   UNL     1       5.341   4.534  16.724  0.00  0.00    +0.000 A 
ATOM     11  N   UNL     1       6.685   4.707  16.999  0.00  0.00    +0.000 N 
ATOM     12  C   UNL     1       7.331   4.875  18.280  0.00  0.00    +0.000 C 
ATOM     13  N   UNL     1       7.459   4.757  15.895  0.00  0.00    +0.000 NA
ENDBRANCH   1  10
BRANCH   5  14
ATOM     14  N   UNL     1       2.584   6.687  20.089  0.00  0.00    +0.000 N 
ATOM     15  H   UNL     1       3.445   6.900  20.584  0.00  0.00    +0.000 HD
BRANCH  14  16
ATOM     16  C   UNL     1       2.007   7.882  19.593  0.00  0.00    +0.000 A 
ATOM     17  N   UNL     1       2.174   8.178  18.293  0.00  0.00    +0.000 NA
ATOM     18  C   UNL     1       1.546   9.257  17.825  0.00  0.00    +0.000 A 
ATOM     19  N   UNL     1       0.767  10.075  18.526  0.00  0.00    +0.000 NA
ATOM     20  C   UNL     1       0.598   9.790  19.826  0.00  0.00    +0.000 A 
ATOM     21  C   UNL     1      -0.215  10.603  20.616  0.00  0.00    +0.000 A 
ATOM     22  F   UNL     1      -0.845  11.652  20.061  0.00  0.00    +0.000 F 
ATOM     23  C   UNL     1      -0.417  10.378  21.977  0.00  0.00    +0.000 A 
ATOM     24  C   UNL     1       0.205   9.301  22.591  0.00  0.00    +0.000 A 
ATOM     25  C   UNL     1       1.007   8.454  21.826  0.00  0.00    +0.000 A 
ATOM     26  C   UNL     1       1.214   8.685  20.438  0.00  0.00    +0.000 A 
ENDBRANCH  14  16
ENDBRANCH   5  14
TORSDOF 3
ENDMDL
MODEL 2
REMARK VINA RESULT:      -8.2      3.046      7.997
REMARK  Name = 
REMARK  5 active torsions:
REMARK  status: ('A' for Active; 'I' for Inactive)
REMARK    1  A    between atoms: C_1  and  C_2
REMARK    2  A    between atoms: C_4  and  N_5
REMARK    3  A    between atoms: C_9  and  N_10
REMARK    4  A    between atoms: N_10  and  C_11
REMARK    5  A    between atoms: N_23  and  C_24
REMARK                            x       y       z     vdW  Elec       q    Type
REMARK                         _______ _______ _______ _____ _____    ______ ____
ROOT
ATOM      1  N   UNL     1       2.445   4.716  19.270  0.00  0.00    +0.000 N 
ATOM      2  C   UNL     1       1.746   3.512  19.732  0.00  0.00    +0.000 C 
ATOM      3  C   UNL     1       2.714   2.326  19.639  0.00  0.00    +0.000 C 
ATOM      4  C   UNL     1       3.334   2.176  18.240  0.00  0.00    +0.000 C 
ATOM      5  C   UNL     1       3.932   3.504  17.741  0.00  0.00    +0.000 C 
ATOM      6  C   UNL     1       2.873   4.620  17.864  0.00  0.00    +0.000 C 
ENDROOT
BRANCH   1  10
ATOM      7  C   UNL     1       0.676   8.675  21.760  0.00  0.00    +0.000 C 
ATOM      8  C   UNL     1       1.362   7.746  20.835  0.00  0.00    +0.000 A 
ATOM      9  C   UNL     1       1.453   6.336  20.907  0.00  0.00    +0.000 A 
ATOM     10  C   UNL     1       2.108   5.947  19.757  0.00  0.00    +0.000 A 
ATOM     11  N   UNL     1       2.458   7.129  19.133  0.00  0.00    +0.000 N 
ATOM     12  C   UNL     1       3.278   7.324  17.959  0.00  0.00    +0.000 C 
ATOM     13  N   UNL     1       1.980   8.228  19.753  0.00  0.00    +0.000 NA
ENDBRANCH   1  10
BRANCH   5  14
ATOM     14  N   UNL     1       4.387   3.352  16.345  0.00  0.00    +0.000 N 
ATOM     15  H   UNL     1       3.619   3.435  15.686  0.00  0.00    +0.000 HD
BRANCH  14  16
ATOM     16  C   UNL     1       5.446   4.211  15.962  0.00  0.00    +0.000 A 
ATOM     17  N   UNL     1       6.011   4.985  16.903  0.00  0.00    +0.000 NA
ATOM     18  C   UNL     1       7.066   5.716  16.543  0.00  0.00    +0.000 A 
ATOM     19  N   UNL     1       7.614   5.756  15.333  0.00  0.00    +0.000 NA
ATOM     20  C   UNL     1       7.053   4.991  14.384  0.00  0.00    +0.000 A 
ATOM     21  C   UNL     1       7.585   4.980  13.095  0.00  0.00    +0.000 A 
ATOM     22  F   UNL     1       8.674   5.716  12.820  0.00  0.00    +0.000 F 
ATOM     23  C   UNL     1       7.039   4.225  12.057  0.00  0.00    +0.000 A 
ATOM     24  C   UNL     1       5.921   3.442  12.297  0.00  0.00    +0.000 A 
ATOM     25  C   UNL     1       5.377   3.411  13.581  0.00  0.00    +0.000 A 
ATOM     26  C   UNL     1       5.932   4.182  14.639  0.00  0.00    +0.000 A 
ENDBRANCH  14  16
ENDBRANCH   5  14
TORSDOF 3
ENDMDL
MODEL 3
REMARK VINA RESULT:      -8.2      3.288      7.877
REMARK  Name = 
REMARK  5 active torsions:
REMARK  status: ('A' for Active; 'I' for Inactive)
REMARK    1  A    between atoms: C_1  and  C_2
REMARK    2  A    between atoms: C_4  and  N_5
REMARK    3  A    between atoms: C_9  and  N_10
REMARK    4  A    between atoms: N_10  and  C_11
REMARK    5  A    between atoms: N_23  and  C_24
REMARK                            x       y       z     vdW  Elec       q    Type
REMARK                         _______ _______ _______ _____ _____    ______ ____
ROOT
ATOM      1  N   UNL     1       2.478   4.953  18.286  0.00  0.00    +0.000 N 
ATOM      2  C   UNL     1       1.386   3.984  18.431  0.00  0.00    +0.000 C 
ATOM      3  C   UNL     1       1.994   2.624  18.799  0.00  0.00    +0.000 C 
ATOM      4  C   UNL     1       3.084   2.176  17.813  0.00  0.00    +0.000 C 
ATOM      5  C   UNL     1       4.132   3.281  17.588  0.00  0.00    +0.000 C 
ATOM      6  C   UNL     1       3.416   4.595  17.209  0.00  0.00    +0.000 C 
ENDROOT
BRANCH   1  10
ATOM      7  C   UNL     1       1.982   9.928  18.232  0.00  0.00    +0.000 C 
ATOM      8  C   UNL     1       2.021   8.489  18.577  0.00  0.00    +0.000 A 
ATOM      9  C   UNL     1       2.224   7.382  17.720  0.00  0.00    +0.000 A 
ATOM     10  C   UNL     1       2.272   6.278  18.545  0.00  0.00    +0.000 A 
ATOM     11  N   UNL     1       1.993   6.768  19.807  0.00  0.00    +0.000 N 
ATOM     12  C   UNL     1       1.780   6.036  21.034  0.00  0.00    +0.000 C 
ATOM     13  N   UNL     1       1.877   8.111  19.850  0.00  0.00    +0.000 NA
ENDBRANCH   1  10
BRANCH   5  14
ATOM     14  N   UNL     1       5.076   2.864  16.533  0.00  0.00    +0.000 N 
ATOM     15  H   UNL     1       4.601   2.418  15.754  0.00  0.00    +0.000 HD
BRANCH  14  16
ATOM     16  C   UNL     1       5.930   3.887  16.053  0.00  0.00    +0.000 A 
ATOM     17  N   UNL     1       6.496   4.715  16.946  0.00  0.00    +0.000 NA
ATOM     18  C   UNL     1       7.369   5.612  16.484  0.00  0.00    +0.000 A 
ATOM     19  N   UNL     1       7.733   5.767  15.215  0.00  0.00    +0.000 NA
ATOM     20  C   UNL     1       7.168   4.948  14.314  0.00  0.00    +0.000 A 
ATOM     21  C   UNL     1       7.513   5.052  12.967  0.00  0.00    +0.000 A 
ATOM     22  F   UNL     1       8.430   5.957  12.584  0.00  0.00    +0.000 F 
ATOM     23  C   UNL     1       6.950   4.248  11.977  0.00  0.00    +0.000 A 
ATOM     24  C   UNL     1       6.007   3.294  12.326  0.00  0.00    +0.000 A 
ATOM     25  C   UNL     1       5.655   3.147  13.668  0.00  0.00    +0.000 A 
ATOM     26  C   UNL     1       6.228   3.968  14.677  0.00  0.00    +0.000 A 
ENDBRANCH  14  16
ENDBRANCH   5  14
TORSDOF 3
ENDMDL
MODEL 4
REMARK VINA RESULT:      -8.2      1.274      1.521
REMARK  Name = 
REMARK  5 active torsions:
REMARK  status: ('A' for Active; 'I' for Inactive)
REMARK    1  A    between atoms: C_1  and  C_2
REMARK    2  A    between atoms: C_4  and  N_5
REMARK    3  A    between atoms: C_9  and  N_10
REMARK    4  A    between atoms: N_10  and  C_11
REMARK    5  A    between atoms: N_23  and  C_24
REMARK                            x       y       z     vdW  Elec       q    Type
REMARK                         _______ _______ _______ _____ _____    ______ ____
ROOT
ATOM      1  N   UNL     1       3.471   4.816  18.351  0.00  0.00    +0.000 N 
ATOM      2  C   UNL     1       3.217   3.535  19.018  0.00  0.00    +0.000 C 
ATOM      3  C   UNL     1       1.831   3.599  19.673  0.00  0.00    +0.000 C 
ATOM      4  C   UNL     1       1.669   4.816  20.598  0.00  0.00    +0.000 C 
ATOM      5  C   UNL     1       2.080   6.121  19.894  0.00  0.00    +0.000 C 
ATOM      6  C   UNL     1       3.490   5.952  19.287  0.00  0.00    +0.000 C 
ENDROOT
BRANCH   1  10
ATOM      7  C   UNL     1       6.466   4.012  14.428  0.00  0.00    +0.000 C 
ATOM      8  C   UNL     1       5.597   4.580  15.482  0.00  0.00    +0.000 A 
ATOM      9  C   UNL     1       4.809   3.898  16.439  0.00  0.00    +0.000 A 
ATOM     10  C   UNL     1       4.275   4.879  17.248  0.00  0.00    +0.000 A 
ATOM     11  N   UNL     1       4.677   6.070  16.672  0.00  0.00    +0.000 N 
ATOM     12  C   UNL     1       4.295   7.418  17.022  0.00  0.00    +0.000 C 
ATOM     13  N   UNL     1       5.511   5.906  15.624  0.00  0.00    +0.000 NA
ENDBRANCH   1  10
BRANCH   5  14
ATOM     14  N   UNL     1       2.044   7.239  20.856  0.00  0.00    +0.000 N 
ATOM     15  H   UNL     1       2.960   7.429  21.251  0.00  0.00    +0.000 HD
BRANCH  14  16
ATOM     16  C   UNL     1       1.476   8.439  20.362  0.00  0.00    +0.000 A 
ATOM     17  N   UNL     1       1.654   8.741  19.065  0.00  0.00    +0.000 NA
ATOM     18  C   UNL     1       1.034   9.825  18.597  0.00  0.00    +0.000 A 
ATOM     19  N   UNL     1       0.254  10.643  19.298  0.00  0.00    +0.000 NA
ATOM     20  C   UNL     1       0.076  10.353  20.595  0.00  0.00    +0.000 A 
ATOM     21  C   UNL     1      -0.738  11.167  21.384  0.00  0.00    +0.000 A 
ATOM     22  F   UNL     1      -1.359  12.221  20.830  0.00  0.00    +0.000 F 
ATOM     23  C   UNL     1      -0.950  10.936  22.742  0.00  0.00    +0.000 A 
ATOM     24  C   UNL     1      -0.337   9.854  23.355  0.00  0.00    +0.000 A 
ATOM     25  C   UNL     1       0.465   9.006  22.591  0.00  0.00    +0.000 A 
ATOM     26  C   UNL     1       0.682   9.242  21.206  0.00  0.00    +0.000 A 
ENDBRANCH  14  16
ENDBRANCH   5  14
TORSDOF 3
ENDMDL
MODEL 5
REMARK VINA RESULT:      -8.1      3.217      7.901
REMARK  Name = 
REMARK  5 active torsions:
REMARK  status: ('A' for Active; 'I' for Inactive)
REMARK    1  A    between atoms: C_1  and  C_2
REMARK    2  A    between atoms: C_4  and  N_5
REMARK    3  A    between atoms: C_9  and  N_10
REMARK    4  A    between atoms: N_10  and  C_11
REMARK    5  A    between atoms: N_23  and  C_24
REMARK                            x       y       z     vdW  Elec       q    Type
REMARK                         _______ _______ _______ _____ _____    ______ ____
ROOT
ATOM      1  N   UNL     1       1.097   9.918  19.510  0.00  0.00    +0.000 N 
ATOM      2  C   UNL     1       0.420   9.304  20.656  0.00  0.00    +0.000 C 
ATOM      3  C   UNL     1       1.337   8.217  21.232  0.00  0.00    +0.000 C 
ATOM      4  C   UNL     1       1.790   7.201  20.171  0.00  0.00    +0.000 C 
ATOM      5  C   UNL     1       2.367   7.902  18.927  0.00  0.00    +0.000 C 
ATOM      6  C   UNL     1       1.361   8.959  18.424  0.00  0.00    +0.000 C 
ENDROOT
BRANCH   1  10
ATOM      7  C   UNL     1       1.108  14.862  18.760  0.00  0.00    +0.000 C 
ATOM      8  C   UNL     1       0.810  13.413  18.797  0.00  0.00    +0.000 A 
ATOM      9  C   UNL     1       1.628  12.356  19.261  0.00  0.00    +0.000 A 
ATOM     10  C   UNL     1       0.853  11.219  19.173  0.00  0.00    +0.000 A 
ATOM     11  N   UNL     1      -0.320  11.638  18.572  0.00  0.00    +0.000 N 
ATOM     12  C   UNL     1      -1.435  10.842  18.112  0.00  0.00    +0.000 C 
ATOM     13  N   UNL     1      -0.377  12.971  18.373  0.00  0.00    +0.000 NA
ENDBRANCH   1  10
BRANCH   5  14
ATOM     14  N   UNL     1       2.656   6.901  17.882  0.00  0.00    +0.000 N 
ATOM     15  H   UNL     1       2.975   7.334  17.021  0.00  0.00    +0.000 HD
BRANCH  14  16
ATOM     16  C   UNL     1       3.555   5.876  18.265  0.00  0.00    +0.000 A 
ATOM     17  N   UNL     1       4.835   6.206  18.502  0.00  0.00    +0.000 NA
ATOM     18  C   UNL     1       5.644   5.246  18.952  0.00  0.00    +0.000 A 
ATOM     19  N   UNL     1       5.302   3.982  19.187  0.00  0.00    +0.000 NA
ATOM     20  C   UNL     1       4.027   3.641  18.948  0.00  0.00    +0.000 A 
ATOM     21  C   UNL     1       3.601   2.333  19.182  0.00  0.00    +0.000 A 
ATOM     22  F   UNL     1       4.468   1.431  19.672  0.00  0.00    +0.000 F 
ATOM     23  C   UNL     1       2.297   1.906  18.935  0.00  0.00    +0.000 A 
ATOM     24  C   UNL     1       1.366   2.805  18.439  0.00  0.00    +0.000 A 
ATOM     25  C   UNL     1       1.752   4.127  18.214  0.00  0.00    +0.000 A 
ATOM     26  C   UNL     1       3.082   4.562  18.465  0.00  0.00    +0.000 A 
ENDBRANCH  14  16
ENDBRANCH   5  14
TORSDOF 3
ENDMDL
MODEL 6
REMARK VINA RESULT:      -8.0      3.221      8.215
REMARK  Name = 
REMARK  5 active torsions:
REMARK  status: ('A' for Active; 'I' for Inactive)
REMARK    1  A    between atoms: C_1  and  C_2
REMARK    2  A    between atoms: C_4  and  N_5
REMARK    3  A    between atoms: C_9  and  N_10
REMARK    4  A    between atoms: N_10  and  C_11
REMARK    5  A    between atoms: N_23  and  C_24
REMARK                            x       y       z     vdW  Elec       q    Type
REMARK                         _______ _______ _______ _____ _____    ______ ____
ROOT
ATOM      1  N   UNL     1       0.934   9.681  19.519  0.00  0.00    +0.000 N 
ATOM      2  C   UNL     1       1.746  10.069  18.361  0.00  0.00    +0.000 C 
ATOM      3  C   UNL     1       2.040   8.810  17.534  0.00  0.00    +0.000 C 
ATOM      4  C   UNL     1       2.666   7.684  18.373  0.00  0.00    +0.000 C 
ATOM      5  C   UNL     1       1.851   7.409  19.649  0.00  0.00    +0.000 C 
ATOM      6  C   UNL     1       1.628   8.735  20.408  0.00  0.00    +0.000 C 
ENDROOT
BRANCH   1  10
ATOM      7  C   UNL     1      -1.604  12.922  22.359  0.00  0.00    +0.000 C 
ATOM      8  C   UNL     1      -1.112  12.020  21.293  0.00  0.00    +0.000 A 
ATOM      9  C   UNL     1       0.133  11.354  21.206  0.00  0.00    +0.000 A 
ATOM     10  C   UNL     1       0.055  10.563  20.079  0.00  0.00    +0.000 A 
ATOM     11  N   UNL     1      -1.166  10.879  19.512  0.00  0.00    +0.000 N 
ATOM     12  C   UNL     1      -1.711  10.451  18.244  0.00  0.00    +0.000 C 
ATOM     13  N   UNL     1      -1.901  11.731  20.255  0.00  0.00    +0.000 NA
ENDBRANCH   1  10
BRANCH   5  14
ATOM     14  N   UNL     1       2.560   6.426  20.490  0.00  0.00    +0.000 N 
ATOM     15  H   UNL     1       1.940   5.986  21.163  0.00  0.00    +0.000 HD
BRANCH  14  16
ATOM     16  C   UNL     1       3.278   5.434  19.777  0.00  0.00    +0.000 A 
ATOM     17  N   UNL     1       4.582   5.643  19.532  0.00  0.00    +0.000 NA
ATOM     18  C   UNL     1       5.261   4.657  18.943  0.00  0.00    +0.000 A 
ATOM     19  N   UNL     1       4.766   3.481  18.570  0.00  0.00    +0.000 NA
ATOM     20  C   UNL     1       3.463   3.265  18.805  0.00  0.00    +0.000 A 
ATOM     21  C   UNL     1       2.884   2.048  18.446  0.00  0.00    +0.000 A 
ATOM     22  F   UNL     1       3.644   1.090  17.890  0.00  0.00    +0.000 F 
ATOM     23  C   UNL     1       1.533   1.766  18.642  0.00  0.00    +0.000 A 
ATOM     24  C   UNL     1       0.712   2.721  19.221  0.00  0.00    +0.000 A 
ATOM     25  C   UNL     1       1.263   3.941  19.614  0.00  0.00    +0.000 A 
ATOM     26  C   UNL     1       2.641   4.230  19.412  0.00  0.00    +0.000 A 
ENDBRANCH  14  16
ENDBRANCH   5  14
TORSDOF 3
ENDMDL
MODEL 7
REMARK VINA RESULT:      -7.9      3.303      8.520
REMARK  Name = 
REMARK  5 active torsions:
REMARK  status: ('A' for Active; 'I' for Inactive)
REMARK    1  A    between atoms: C_1  and  C_2
REMARK    2  A    between atoms: C_4  and  N_5
REMARK    3  A    between atoms: C_9  and  N_10
REMARK    4  A    between atoms: N_10  and  C_11
REMARK    5  A    between atoms: N_23  and  C_24
REMARK                            x       y       z     vdW  Elec       q    Type
REMARK                         _______ _______ _______ _____ _____    ______ ____
ROOT
ATOM      1  N   UNL     1       0.613  10.299  20.364  0.00  0.00    +0.000 N 
ATOM      2  C   UNL     1       0.890  10.855  19.035  0.00  0.00    +0.000 C 
ATOM      3  C   UNL     1       0.882   9.705  18.020  0.00  0.00    +0.000 C 
ATOM      4  C   UNL     1       1.829   8.560  18.415  0.00  0.00    +0.000 C 
ATOM      5  C   UNL     1       1.592   8.105  19.866  0.00  0.00    +0.000 C 
ATOM      6  C   UNL     1       1.636   9.333  20.800  0.00  0.00    +0.000 C 
ENDROOT
BRANCH   1  10
ATOM      7  C   UNL     1      -1.355  13.861  23.269  0.00  0.00    +0.000 C 
ATOM      8  C   UNL     1      -0.916  12.594  22.643  0.00  0.00    +0.000 A 
ATOM      9  C   UNL     1      -0.308  12.397  21.381  0.00  0.00    +0.000 A 
ATOM     10  C   UNL     1      -0.007  11.053  21.319  0.00  0.00    +0.000 A 
ATOM     11  N   UNL     1      -0.541  10.518  22.477  0.00  0.00    +0.000 N 
ATOM     12  C   UNL     1      -0.640   9.131  22.870  0.00  0.00    +0.000 C 
ATOM     13  N   UNL     1      -1.061  11.444  23.308  0.00  0.00    +0.000 NA
ENDBRANCH   1  10
BRANCH   5  14
ATOM     14  N   UNL     1       2.611   7.108  20.247  0.00  0.00    +0.000 N 
ATOM     15  H   UNL     1       2.884   7.199  21.221  0.00  0.00    +0.000 HD
BRANCH  14  16
ATOM     16  C   UNL     1       2.268   5.762  19.967  0.00  0.00    +0.000 A 
ATOM     17  N   UNL     1       1.295   5.188  20.695  0.00  0.00    +0.000 NA
ATOM     18  C   UNL     1       0.923   3.953  20.354  0.00  0.00    +0.000 A 
ATOM     19  N   UNL     1       1.428   3.230  19.360  0.00  0.00    +0.000 NA
ATOM     20  C   UNL     1       2.404   3.793  18.631  0.00  0.00    +0.000 A 
ATOM     21  C   UNL     1       2.971   3.091  17.567  0.00  0.00    +0.000 A 
ATOM     22  F   UNL     1       2.514   1.865  17.263  0.00  0.00    +0.000 F 
ATOM     23  C   UNL     1       4.001   3.608  16.783  0.00  0.00    +0.000 A 
ATOM     24  C   UNL     1       4.497   4.873  17.053  0.00  0.00    +0.000 A 
ATOM     25  C   UNL     1       3.938   5.613  18.096  0.00  0.00    +0.000 A 
ATOM     26  C   UNL     1       2.888   5.086  18.897  0.00  0.00    +0.000 A 
ENDBRANCH  14  16
ENDBRANCH   5  14
TORSDOF 3
ENDMDL
MODEL 8
REMARK VINA RESULT:      -7.8      2.970      8.277
REMARK  Name = 
REMARK  5 active torsions:
REMARK  status: ('A' for Active; 'I' for Inactive)
REMARK    1  A    between atoms: C_1  and  C_2
REMARK    2  A    between atoms: C_4  and  N_5
REMARK    3  A    between atoms: C_9  and  N_10
REMARK    4  A    between atoms: N_10  and  C_11
REMARK    5  A    between atoms: N_23  and  C_24
REMARK                            x       y       z     vdW  Elec       q    Type
REMARK                         _______ _______ _______ _____ _____    ______ ____
ROOT
ATOM      1  N   UNL     1       0.657  10.187  20.297  0.00  0.00    +0.000 N 
ATOM      2  C   UNL     1       0.913  10.780  18.980  0.00  0.00    +0.000 C 
ATOM      3  C   UNL     1       0.916   9.655  17.936  0.00  0.00    +0.000 C 
ATOM      4  C   UNL     1       1.885   8.517  18.295  0.00  0.00    +0.000 C 
ATOM      5  C   UNL     1       1.668   8.023  19.736  0.00  0.00    +0.000 C 
ATOM      6  C   UNL     1       1.700   9.228  20.700  0.00  0.00    +0.000 C 
ENDROOT
BRANCH   1  10
ATOM      7  C   UNL     1      -1.328  13.644  23.315  0.00  0.00    +0.000 C 
ATOM      8  C   UNL     1      -0.884  12.400  22.648  0.00  0.00    +0.000 A 
ATOM      9  C   UNL     1      -0.272  12.247  21.382  0.00  0.00    +0.000 A 
ATOM     10  C   UNL     1       0.032  10.907  21.275  0.00  0.00    +0.000 A 
ATOM     11  N   UNL     1      -0.503  10.331  22.413  0.00  0.00    +0.000 N 
ATOM     12  C   UNL     1      -0.599   8.932  22.759  0.00  0.00    +0.000 C 
ATOM     13  N   UNL     1      -1.028  11.228  23.273  0.00  0.00    +0.000 NA
ENDBRANCH   1  10
BRANCH   5  14
ATOM     14  N   UNL     1       2.707   7.034  20.085  0.00  0.00    +0.000 N 
ATOM     15  H   UNL     1       2.508   6.571  20.966  0.00  0.00    +0.000 HD
BRANCH  14  16
ATOM     16  C   UNL     1       2.976   6.068  19.084  0.00  0.00    +0.000 A 
ATOM     17  N   UNL     1       3.910   6.350  18.161  0.00  0.00    +0.000 NA
ATOM     18  C   UNL     1       4.214   5.392  17.285  0.00  0.00    +0.000 A 
ATOM     19  N   UNL     1       3.676   4.177  17.235  0.00  0.00    +0.000 NA
ATOM     20  C   UNL     1       2.737   3.888  18.150  0.00  0.00    +0.000 A 
ATOM     21  C   UNL     1       2.139   2.628  18.158  0.00  0.00    +0.000 A 
ATOM     22  F   UNL     1       2.528   1.703  17.265  0.00  0.00    +0.000 F 
ATOM     23  C   UNL     1       1.144   2.269  19.066  0.00  0.00    +0.000 A 
ATOM     24  C   UNL     1       0.719   3.188  20.012  0.00  0.00    +0.000 A 
ATOM     25  C   UNL     1       1.311   4.450  20.047  0.00  0.00    +0.000 A 
ATOM     26  C   UNL     1       2.325   4.817  19.120  0.00  0.00    +0.000 A 
ENDBRANCH  14  16
ENDBRANCH   5  14
TORSDOF 3
ENDMDL
MODEL 9
REMARK VINA RESULT:      -7.8      3.374      8.518
REMARK  Name = 
REMARK  5 active torsions:
REMARK  status: ('A' for Active; 'I' for Inactive)
REMARK    1  A    between atoms: C_1  and  C_2
REMARK    2  A    between atoms: C_4  and  N_5
REMARK    3  A    between atoms: C_9  and  N_10
REMARK    4  A    between atoms: N_10  and  C_11
REMARK    5  A    between atoms: N_23  and  C_24
REMARK                            x       y       z     vdW  Elec       q    Type
REMARK                         _______ _______ _______ _____ _____    ______ ____
ROOT
ATOM      1  N   UNL     1       0.597  10.094  19.927  0.00  0.00    +0.000 N 
ATOM      2  C   UNL     1       1.267  10.599  18.724  0.00  0.00    +0.000 C 
ATOM      3  C   UNL     1       1.512   9.417  17.777  0.00  0.00    +0.000 C 
ATOM      4  C   UNL     1       2.262   8.260  18.457  0.00  0.00    +0.000 C 
ATOM      5  C   UNL     1       1.598   7.859  19.786  0.00  0.00    +0.000 C 
ATOM      6  C   UNL     1       1.414   9.115  20.664  0.00  0.00    +0.000 C 
ENDROOT
BRANCH   1  10
ATOM      7  C   UNL     1      -1.853  12.808  23.339  0.00  0.00    +0.000 C 
ATOM      8  C   UNL     1      -1.370  12.132  22.114  0.00  0.00    +0.000 A 
ATOM      9  C   UNL     1      -0.172  11.405  21.922  0.00  0.00    +0.000 A 
ATOM     10  C   UNL     1      -0.247  10.896  20.643  0.00  0.00    +0.000 A 
ATOM     11  N   UNL     1      -1.411  11.427  20.119  0.00  0.00    +0.000 N 
ATOM     12  C   UNL     1      -1.918  11.338  18.769  0.00  0.00    +0.000 C 
ATOM     13  N   UNL     1      -2.123  12.147  21.011  0.00  0.00    +0.000 NA
ENDBRANCH   1  10
BRANCH   5  14
ATOM     14  N   UNL     1       2.426   6.847  20.470  0.00  0.00    +0.000 N 
ATOM     15  H   UNL     1       2.380   6.940  21.481  0.00  0.00    +0.000 HD
BRANCH  14  16
ATOM     16  C   UNL     1       2.163   5.506  20.099  0.00  0.00    +0.000 A 
ATOM     17  N   UNL     1       1.112   4.884  20.658  0.00  0.00    +0.000 NA
ATOM     18  C   UNL     1       0.826   3.655  20.226  0.00  0.00    +0.000 A 
ATOM     19  N   UNL     1       1.488   2.981  19.291  0.00  0.00    +0.000 NA
ATOM     20  C   UNL     1       2.543   3.591  18.731  0.00  0.00    +0.000 A 
ATOM     21  C   UNL     1       3.276   2.941  17.738  0.00  0.00    +0.000 A 
ATOM     22  F   UNL     1       2.901   1.717  17.329  0.00  0.00    +0.000 F 
ATOM     23  C   UNL     1       4.395   3.508  17.130  0.00  0.00    +0.000 A 
ATOM     24  C   UNL     1       4.813   4.774  17.511  0.00  0.00    +0.000 A 
ATOM     25  C   UNL     1       4.089   5.462  18.486  0.00  0.00    +0.000 A 
ATOM     26  C   UNL     1       2.949   4.883  19.107  0.00  0.00    +0.000 A 
ENDBRANCH  14  16
ENDBRANCH   5  14
TORSDOF 3
ENDMDL
