MODEL 1
REMARK VINA RESULT:      -9.0      0.000      0.000
REMARK  Name = 
REMARK  6 active torsions:
REMARK  status: ('A' for Active; 'I' for Inactive)
REMARK    1  A    between atoms: C_1  and  C_2
REMARK    2  A    between atoms: C_4  and  C_5
REMARK    3  A    between atoms: C_5  and  N_6
REMARK    4  A    between atoms: C_13  and  C_14
REMARK    5  A    between atoms: C_24  and  S_25
REMARK    6  A    between atoms: S_25  and  N_26
REMARK                            x       y       z     vdW  Elec       q    Type
REMARK                         _______ _______ _______ _____ _____    ______ ____
ROOT
ATOM      1  N   UNL     1       2.191   7.326  20.088  0.00  0.00    +0.000 N 
ATOM      2  C   UNL     1       2.182   5.964  19.904  0.00  0.00    +0.000 A 
ATOM      3  C   UNL     1       1.152   5.084  20.541  0.00  0.00    +0.000 A 
ATOM      4  C   UNL     1       1.211   3.765  20.329  0.00  0.00    +0.000 A 
ATOM      5  C   UNL     1       2.231   3.246  19.510  0.00  0.00    +0.000 A 
ATOM      6  N   UNL     1       2.509   2.026  19.110  0.00  0.00    +0.000 NA
ATOM      7  N   UNL     1       3.618   2.100  18.301  0.00  0.00    +0.000 NA
ATOM      8  C   UNL     1       4.018   3.364  18.243  0.00  0.00    +0.000 A 
ATOM      9  N   UNL     1       3.140   4.140  18.978  0.00  0.00    +0.000 N 
ATOM     10  N   UNL     1       3.133   5.502  19.139  0.00  0.00    +0.000 NA
ATOM     11  H   UNL     1       3.055   7.729  19.730  0.00  0.00    +0.000 HD
ENDROOT
BRANCH   8  12
ATOM     12  C   UNL     1       5.165   3.876  17.509  0.00  0.00    +0.000 A 
ATOM     13  C   UNL     1       5.153   3.971  16.119  0.00  0.00    +0.000 A 
ATOM     14  C   UNL     1       6.275   4.488  15.474  0.00  0.00    +0.000 A 
ATOM     15  C   UNL     1       7.375   4.882  16.227  0.00  0.00    +0.000 A 
ATOM     16  C   UNL     1       7.312   4.735  17.600  0.00  0.00    +0.000 A 
ATOM     17  N   UNL     1       6.243   4.233  18.249  0.00  0.00    +0.000 NA
ENDBRANCH   8  12
BRANCH   1  18
ATOM     18  C   UNL     1       1.688   7.978  21.277  0.00  0.00    +0.000 C 
BRANCH  18  22
ATOM     19  C   UNL     1      -1.413  11.647  22.765  0.00  0.00    +0.000 C 
ATOM     20  C   UNL     1      -0.721  10.949  21.629  0.00  0.00    +0.000 A 
ATOM     21  C   UNL     1       0.138   9.874  21.932  0.00  0.00    +0.000 A 
ATOM     22  C   UNL     1       0.824   9.167  20.929  0.00  0.00    +0.000 A 
ATOM     23  C   UNL     1       0.644   9.542  19.593  0.00  0.00    +0.000 A 
ATOM     24  C   UNL     1      -0.194  10.607  19.270  0.00  0.00    +0.000 A 
ATOM     25  C   UNL     1      -0.860  11.319  20.279  0.00  0.00    +0.000 A 
BRANCH  25  26
ATOM     26  S   UNL     1      -1.800  12.729  19.750  0.00  0.00    +0.000 S 
ATOM     27  O   UNL     1      -3.212  12.467  19.946  0.00  0.00    +0.000 OA
ATOM     28  O   UNL     1      -1.190  13.957  20.193  0.00  0.00    +0.000 OA
BRANCH  26  29
ATOM     29  N   UNL     1      -1.543  12.639  18.094  0.00  0.00    +0.000 NA
ATOM     30  H   UNL     1      -2.021  11.830  17.700  0.00  0.00    +0.000 HD
ATOM     31  H   UNL     1      -1.750  13.529  17.645  0.00  0.00    +0.000 HD
ENDBRANCH  26  29
ENDBRANCH  25  26
ENDBRANCH  18  22
ENDBRANCH   1  18
TORSDOF 5
ENDMDL
MODEL 2
REMARK VINA RESULT:      -8.5      0.829      1.654
REMARK  Name = 
REMARK  6 active torsions:
REMARK  status: ('A' for Active; 'I' for Inactive)
REMARK    1  A    between atoms: C_1  and  C_2
REMARK    2  A    between atoms: C_4  and  C_5
REMARK    3  A    between atoms: C_5  and  N_6
REMARK    4  A    between atoms: C_13  and  C_14
REMARK    5  A    between atoms: C_24  and  S_25
REMARK    6  A    between atoms: S_25  and  N_26
REMARK                            x       y       z     vdW  Elec       q    Type
REMARK                         _______ _______ _______ _____ _____    ______ ____
ROOT
ATOM      1  N   UNL     1       2.141   7.318  20.253  0.00  0.00    +0.000 N 
ATOM      2  C   UNL     1       2.141   5.965  20.018  0.00  0.00    +0.000 A 
ATOM      3  C   UNL     1       1.112   5.055  20.614  0.00  0.00    +0.000 A 
ATOM      4  C   UNL     1       1.181   3.745  20.353  0.00  0.00    +0.000 A 
ATOM      5  C   UNL     1       2.210   3.264  19.523  0.00  0.00    +0.000 A 
ATOM      6  N   UNL     1       2.498   2.061  19.079  0.00  0.00    +0.000 NA
ATOM      7  N   UNL     1       3.613   2.172  18.282  0.00  0.00    +0.000 NA
ATOM      8  C   UNL     1       4.005   3.440  18.274  0.00  0.00    +0.000 A 
ATOM      9  N   UNL     1       3.117   4.182  19.032  0.00  0.00    +0.000 N 
ATOM     10  N   UNL     1       3.100   5.538  19.243  0.00  0.00    +0.000 NA
ATOM     11  H   UNL     1       3.005   7.740  19.917  0.00  0.00    +0.000 HD
ENDROOT
BRANCH   8  12
ATOM     12  C   UNL     1       5.155   3.985  17.568  0.00  0.00    +0.000 A 
ATOM     13  C   UNL     1       5.118   4.218  16.195  0.00  0.00    +0.000 A 
ATOM     14  C   UNL     1       6.244   4.761  15.579  0.00  0.00    +0.000 A 
ATOM     15  C   UNL     1       7.372   5.043  16.342  0.00  0.00    +0.000 A 
ATOM     16  C   UNL     1       7.331   4.762  17.695  0.00  0.00    +0.000 A 
ATOM     17  N   UNL     1       6.258   4.233  18.315  0.00  0.00    +0.000 NA
ENDBRANCH   8  12
BRANCH   1  18
ATOM     18  C   UNL     1       1.626   7.923  21.462  0.00  0.00    +0.000 C 
BRANCH  18  22
ATOM     19  C   UNL     1      -0.830  10.689  18.054  0.00  0.00    +0.000 C 
ATOM     20  C   UNL     1      -0.483  10.462  19.499  0.00  0.00    +0.000 A 
ATOM     21  C   UNL     1       0.330   9.359  19.823  0.00  0.00    +0.000 A 
ATOM     22  C   UNL     1       0.700   9.076  21.150  0.00  0.00    +0.000 A 
ATOM     23  C   UNL     1       0.250   9.916  22.173  0.00  0.00    +0.000 A 
ATOM     24  C   UNL     1      -0.564  11.008  21.877  0.00  0.00    +0.000 A 
ATOM     25  C   UNL     1      -0.944  11.273  20.552  0.00  0.00    +0.000 A 
BRANCH  25  26
ATOM     26  S   UNL     1      -2.079  12.618  20.319  0.00  0.00    +0.000 S 
ATOM     27  O   UNL     1      -1.368  13.757  19.773  0.00  0.00    +0.000 OA
ATOM     28  O   UNL     1      -3.321  12.159  19.752  0.00  0.00    +0.000 OA
BRANCH  26  29
ATOM     29  N   UNL     1      -2.398  13.003  21.921  0.00  0.00    +0.000 NA
ATOM     30  H   UNL     1      -3.119  12.390  22.300  0.00  0.00    +0.000 HD
ATOM     31  H   UNL     1      -1.537  13.050  22.462  0.00  0.00    +0.000 HD
ENDBRANCH  26  29
ENDBRANCH  25  26
ENDBRANCH  18  22
ENDBRANCH   1  18
TORSDOF 5
ENDMDL
MODEL 3
REMARK VINA RESULT:      -8.4      1.878      2.420
REMARK  Name = 
REMARK  6 active torsions:
REMARK  status: ('A' for Active; 'I' for Inactive)
REMARK    1  A    between atoms: C_1  and  C_2
REMARK    2  A    between atoms: C_4  and  C_5
REMARK    3  A    between atoms: C_5  and  N_6
REMARK    4  A    between atoms: C_13  and  C_14
REMARK    5  A    between atoms: C_24  and  S_25
REMARK    6  A    between atoms: S_25  and  N_26
REMARK                            x       y       z     vdW  Elec       q    Type
REMARK                         _______ _______ _______ _____ _____    ______ ____
ROOT
ATOM      1  N   UNL     1       1.437   7.202  20.544  0.00  0.00    +0.000 N 
ATOM      2  C   UNL     1       1.946   5.940  20.354  0.00  0.00    +0.000 A 
ATOM      3  C   UNL     1       1.159   4.709  20.681  0.00  0.00    +0.000 A 
ATOM      4  C   UNL     1       1.722   3.512  20.482  0.00  0.00    +0.000 A 
ATOM      5  C   UNL     1       3.030   3.445  19.967  0.00  0.00    +0.000 A 
ATOM      6  N   UNL     1       3.803   2.433  19.647  0.00  0.00    +0.000 NA
ATOM      7  N   UNL     1       4.984   2.950  19.170  0.00  0.00    +0.000 NA
ATOM      8  C   UNL     1       4.923   4.275  19.232  0.00  0.00    +0.000 A 
ATOM      9  N   UNL     1       3.676   4.638  19.708  0.00  0.00    +0.000 N 
ATOM     10  N   UNL     1       3.158   5.898  19.871  0.00  0.00    +0.000 NA
ATOM     11  H   UNL     1       2.169   7.902  20.437  0.00  0.00    +0.000 HD
ENDROOT
BRANCH   8  12
ATOM     12  C   UNL     1       5.968   5.208  18.841  0.00  0.00    +0.000 A 
ATOM     13  C   UNL     1       5.871   5.955  17.669  0.00  0.00    +0.000 A 
ATOM     14  C   UNL     1       6.895   6.848  17.357  0.00  0.00    +0.000 A 
ATOM     15  C   UNL     1       7.985   6.962  18.212  0.00  0.00    +0.000 A 
ATOM     16  C   UNL     1       8.013   6.168  19.344  0.00  0.00    +0.000 A 
ATOM     17  N   UNL     1       7.039   5.293  19.666  0.00  0.00    +0.000 NA
ENDBRANCH   8  12
BRANCH   1  18
ATOM     18  C   UNL     1       0.458   7.528  21.557  0.00  0.00    +0.000 C 
BRANCH  18  22
ATOM     19  C   UNL     1       1.306  12.138  19.733  0.00  0.00    +0.000 C 
ATOM     20  C   UNL     1       0.658  11.286  20.788  0.00  0.00    +0.000 A 
ATOM     21  C   UNL     1       0.805   9.887  20.697  0.00  0.00    +0.000 A 
ATOM     22  C   UNL     1       0.231   9.019  21.643  0.00  0.00    +0.000 A 
ATOM     23  C   UNL     1      -0.502   9.562  22.703  0.00  0.00    +0.000 A 
ATOM     24  C   UNL     1      -0.668  10.941  22.808  0.00  0.00    +0.000 A 
ATOM     25  C   UNL     1      -0.107  11.800  21.850  0.00  0.00    +0.000 A 
BRANCH  25  26
ATOM     26  S   UNL     1      -0.492  13.524  22.026  0.00  0.00    +0.000 S 
ATOM     27  O   UNL     1       0.714  14.252  22.368  0.00  0.00    +0.000 OA
ATOM     28  O   UNL     1      -1.374  13.970  20.978  0.00  0.00    +0.000 OA
BRANCH  26  29
ATOM     29  N   UNL     1      -1.408  13.470  23.431  0.00  0.00    +0.000 NA
ATOM     30  H   UNL     1      -0.965  14.014  24.170  0.00  0.00    +0.000 HD
ATOM     31  H   UNL     1      -2.380  13.706  23.240  0.00  0.00    +0.000 HD
ENDBRANCH  26  29
ENDBRANCH  25  26
ENDBRANCH  18  22
ENDBRANCH   1  18
TORSDOF 5
ENDMDL
MODEL 4
REMARK VINA RESULT:      -8.4      1.302      1.427
REMARK  Name = 
REMARK  6 active torsions:
REMARK  status: ('A' for Active; 'I' for Inactive)
REMARK    1  A    between atoms: C_1  and  C_2
REMARK    2  A    between atoms: C_4  and  C_5
REMARK    3  A    between atoms: C_5  and  N_6
REMARK    4  A    between atoms: C_13  and  C_14
REMARK    5  A    between atoms: C_24  and  S_25
REMARK    6  A    between atoms: S_25  and  N_26
REMARK                            x       y       z     vdW  Elec       q    Type
REMARK                         _______ _______ _______ _____ _____    ______ ____
ROOT
ATOM      1  N   UNL     1       1.578   7.469  20.476  0.00  0.00    +0.000 N 
ATOM      2  C   UNL     1       2.020   6.177  20.324  0.00  0.00    +0.000 A 
ATOM      3  C   UNL     1       1.175   4.999  20.699  0.00  0.00    +0.000 A 
ATOM      4  C   UNL     1       1.675   3.769  20.537  0.00  0.00    +0.000 A 
ATOM      5  C   UNL     1       2.973   3.620  20.014  0.00  0.00    +0.000 A 
ATOM      6  N   UNL     1       3.692   2.559  19.723  0.00  0.00    +0.000 NA
ATOM      7  N   UNL     1       4.893   3.000  19.219  0.00  0.00    +0.000 NA
ATOM      8  C   UNL     1       4.899   4.327  19.237  0.00  0.00    +0.000 A 
ATOM      9  N   UNL     1       3.676   4.768  19.710  0.00  0.00    +0.000 N 
ATOM     10  N   UNL     1       3.224   6.058  19.834  0.00  0.00    +0.000 NA
ATOM     11  H   UNL     1       2.342   8.128  20.339  0.00  0.00    +0.000 HD
ENDROOT
BRANCH   8  12
ATOM     12  C   UNL     1       5.986   5.193  18.806  0.00  0.00    +0.000 A 
ATOM     13  C   UNL     1       5.946   5.849  17.578  0.00  0.00    +0.000 A 
ATOM     14  C   UNL     1       7.008   6.682  17.229  0.00  0.00    +0.000 A 
ATOM     15  C   UNL     1       8.079   6.825  18.104  0.00  0.00    +0.000 A 
ATOM     16  C   UNL     1       8.049   6.121  19.294  0.00  0.00    +0.000 A 
ATOM     17  N   UNL     1       7.037   5.306  19.653  0.00  0.00    +0.000 NA
ENDBRANCH   8  12
BRANCH   1  18
ATOM     18  C   UNL     1       0.626   7.878  21.485  0.00  0.00    +0.000 C 
BRANCH  18  22
ATOM     19  C   UNL     1      -1.559  12.070  23.205  0.00  0.00    +0.000 C 
ATOM     20  C   UNL     1      -0.983  11.322  22.034  0.00  0.00    +0.000 A 
ATOM     21  C   UNL     1      -0.444  10.040  22.263  0.00  0.00    +0.000 A 
ATOM     22  C   UNL     1       0.113   9.275  21.223  0.00  0.00    +0.000 A 
ATOM     23  C   UNL     1       0.129   9.802  19.928  0.00  0.00    +0.000 A 
ATOM     24  C   UNL     1      -0.390  11.071  19.680  0.00  0.00    +0.000 A 
ATOM     25  C   UNL     1      -0.928  11.836  20.727  0.00  0.00    +0.000 A 
BRANCH  25  26
ATOM     26  S   UNL     1      -1.445  13.482  20.305  0.00  0.00    +0.000 S 
ATOM     27  O   UNL     1      -2.884  13.581  20.437  0.00  0.00    +0.000 OA
ATOM     28  O   UNL     1      -0.562  14.466  20.877  0.00  0.00    +0.000 OA
BRANCH  26  29
ATOM     29  N   UNL     1      -1.136  13.464  18.656  0.00  0.00    +0.000 NA
ATOM     30  H   UNL     1      -1.957  13.152  18.140  0.00  0.00    +0.000 HD
ATOM     31  H   UNL     1      -0.741  14.352  18.351  0.00  0.00    +0.000 HD
ENDBRANCH  26  29
ENDBRANCH  25  26
ENDBRANCH  18  22
ENDBRANCH   1  18
TORSDOF 5
ENDMDL
MODEL 5
REMARK VINA RESULT:      -8.2      2.172      2.998
REMARK  Name = 
REMARK  6 active torsions:
REMARK  status: ('A' for Active; 'I' for Inactive)
REMARK    1  A    between atoms: C_1  and  C_2
REMARK    2  A    between atoms: C_4  and  C_5
REMARK    3  A    between atoms: C_5  and  N_6
REMARK    4  A    between atoms: C_13  and  C_14
REMARK    5  A    between atoms: C_24  and  S_25
REMARK    6  A    between atoms: S_25  and  N_26
REMARK                            x       y       z     vdW  Elec       q    Type
REMARK                         _______ _______ _______ _____ _____    ______ ____
ROOT
ATOM      1  N   UNL     1       1.831   8.925  18.228  0.00  0.00    +0.000 N 
ATOM      2  C   UNL     1       2.102   7.739  18.868  0.00  0.00    +0.000 A 
ATOM      3  C   UNL     1       1.431   7.358  20.151  0.00  0.00    +0.000 A 
ATOM      4  C   UNL     1       1.753   6.194  20.726  0.00  0.00    +0.000 A 
ATOM      5  C   UNL     1       2.705   5.362  20.106  0.00  0.00    +0.000 A 
ATOM      6  N   UNL     1       3.180   4.178  20.418  0.00  0.00    +0.000 NA
ATOM      7  N   UNL     1       4.082   3.826  19.442  0.00  0.00    +0.000 NA
ATOM      8  C   UNL     1       4.164   4.816  18.562  0.00  0.00    +0.000 A 
ATOM      9  N   UNL     1       3.275   5.810  18.931  0.00  0.00    +0.000 N 
ATOM     10  N   UNL     1       2.983   6.980  18.277  0.00  0.00    +0.000 NA
ATOM     11  H   UNL     1       2.502   9.089  17.480  0.00  0.00    +0.000 HD
ENDROOT
BRANCH   8  12
ATOM     12  C   UNL     1       5.015   4.857  17.383  0.00  0.00    +0.000 A 
ATOM     13  C   UNL     1       4.663   4.190  16.211  0.00  0.00    +0.000 A 
ATOM     14  C   UNL     1       5.509   4.283  15.108  0.00  0.00    +0.000 A 
ATOM     15  C   UNL     1       6.682   5.024  15.207  0.00  0.00    +0.000 A 
ATOM     16  C   UNL     1       6.966   5.637  16.413  0.00  0.00    +0.000 A 
ATOM     17  N   UNL     1       6.168   5.559  17.496  0.00  0.00    +0.000 NA
ENDBRANCH   8  12
BRANCH   1  18
ATOM     18  C   UNL     1       1.410  10.128  18.912  0.00  0.00    +0.000 C 
BRANCH  18  22
ATOM     19  C   UNL     1      -2.666   9.580  16.017  0.00  0.00    +0.000 C 
ATOM     20  C   UNL     1      -2.047  10.197  17.240  0.00  0.00    +0.000 A 
ATOM     21  C   UNL     1      -0.704   9.889  17.533  0.00  0.00    +0.000 A 
ATOM     22  C   UNL     1      -0.050  10.424  18.657  0.00  0.00    +0.000 A 
ATOM     23  C   UNL     1      -0.753  11.286  19.504  0.00  0.00    +0.000 A 
ATOM     24  C   UNL     1      -2.085  11.597  19.239  0.00  0.00    +0.000 A 
ATOM     25  C   UNL     1      -2.736  11.045  18.125  0.00  0.00    +0.000 A 
BRANCH  25  26
ATOM     26  S   UNL     1      -4.464  11.420  17.965  0.00  0.00    +0.000 S 
ATOM     27  O   UNL     1      -4.702  12.051  16.681  0.00  0.00    +0.000 OA
ATOM     28  O   UNL     1      -5.279  10.329  18.433  0.00  0.00    +0.000 OA
BRANCH  26  29
ATOM     29  N   UNL     1      -4.598  12.642  19.107  0.00  0.00    +0.000 NA
ATOM     30  H   UNL     1      -4.883  13.516  18.667  0.00  0.00    +0.000 HD
ATOM     31  H   UNL     1      -5.172  12.343  19.893  0.00  0.00    +0.000 HD
ENDBRANCH  26  29
ENDBRANCH  25  26
ENDBRANCH  18  22
ENDBRANCH   1  18
TORSDOF 5
ENDMDL
MODEL 6
REMARK VINA RESULT:      -8.1      4.608      9.342
REMARK  Name = 
REMARK  6 active torsions:
REMARK  status: ('A' for Active; 'I' for Inactive)
REMARK    1  A    between atoms: C_1  and  C_2
REMARK    2  A    between atoms: C_4  and  C_5
REMARK    3  A    between atoms: C_5  and  N_6
REMARK    4  A    between atoms: C_13  and  C_14
REMARK    5  A    between atoms: C_24  and  S_25
REMARK    6  A    between atoms: S_25  and  N_26
REMARK                            x       y       z     vdW  Elec       q    Type
REMARK                         _______ _______ _______ _____ _____    ______ ____
ROOT
ATOM      1  N   UNL     1       1.167   8.713  19.994  0.00  0.00    +0.000 N 
ATOM      2  C   UNL     1       0.354   9.755  20.371  0.00  0.00    +0.000 A 
ATOM      3  C   UNL     1       0.494  10.431  21.699  0.00  0.00    +0.000 A 
ATOM      4  C   UNL     1      -0.341  11.431  22.005  0.00  0.00    +0.000 A 
ATOM      5  C   UNL     1      -1.317  11.820  21.069  0.00  0.00    +0.000 A 
ATOM      6  N   UNL     1      -2.228  12.767  21.084  0.00  0.00    +0.000 NA
ATOM      7  N   UNL     1      -2.905  12.707  19.889  0.00  0.00    +0.000 NA
ATOM      8  C   UNL     1      -2.413  11.704  19.172  0.00  0.00    +0.000 A 
ATOM      9  N   UNL     1      -1.372  11.126  19.877  0.00  0.00    +0.000 N 
ATOM     10  N   UNL     1      -0.542  10.104  19.489  0.00  0.00    +0.000 NA
ATOM     11  H   UNL     1       0.813   8.271  19.147  0.00  0.00    +0.000 HD
ENDROOT
BRANCH   8  12
ATOM     12  C   UNL     1      -2.858  11.285  17.852  0.00  0.00    +0.000 A 
ATOM     13  C   UNL     1      -2.051  10.501  17.030  0.00  0.00    +0.000 A 
ATOM     14  C   UNL     1      -2.541  10.115  15.784  0.00  0.00    +0.000 A 
ATOM     15  C   UNL     1      -3.809  10.528  15.390  0.00  0.00    +0.000 A 
ATOM     16  C   UNL     1      -4.535  11.321  16.258  0.00  0.00    +0.000 A 
ATOM     17  N   UNL     1      -4.084  11.713  17.466  0.00  0.00    +0.000 NA
ENDBRANCH   8  12
BRANCH   1  18
ATOM     18  C   UNL     1       1.773   7.789  20.928  0.00  0.00    +0.000 C 
BRANCH  18  22
ATOM     19  C   UNL     1       1.292   2.788  20.710  0.00  0.00    +0.000 C 
ATOM     20  C   UNL     1       1.927   4.031  20.154  0.00  0.00    +0.000 A 
ATOM     21  C   UNL     1       1.573   5.271  20.721  0.00  0.00    +0.000 A 
ATOM     22  C   UNL     1       2.122   6.480  20.259  0.00  0.00    +0.000 A 
ATOM     23  C   UNL     1       3.045   6.448  19.210  0.00  0.00    +0.000 A 
ATOM     24  C   UNL     1       3.404   5.235  18.627  0.00  0.00    +0.000 A 
ATOM     25  C   UNL     1       2.838   4.033  19.082  0.00  0.00    +0.000 A 
BRANCH  25  26
ATOM     26  S   UNL     1       3.282   2.570  18.179  0.00  0.00    +0.000 S 
ATOM     27  O   UNL     1       3.927   1.631  19.075  0.00  0.00    +0.000 OA
ATOM     28  O   UNL     1       2.221   2.164  17.293  0.00  0.00    +0.000 OA
BRANCH  26  29
ATOM     29  N   UNL     1       4.502   3.192  17.210  0.00  0.00    +0.000 NA
ATOM     30  H   UNL     1       4.419   4.204  17.132  0.00  0.00    +0.000 HD
ATOM     31  H   UNL     1       5.414   2.851  17.510  0.00  0.00    +0.000 HD
ENDBRANCH  26  29
ENDBRANCH  25  26
ENDBRANCH  18  22
ENDBRANCH   1  18
TORSDOF 5
ENDMDL
MODEL 7
REMARK VINA RESULT:      -8.0      4.459      9.763
REMARK  Name = 
REMARK  6 active torsions:
REMARK  status: ('A' for Active; 'I' for Inactive)
REMARK    1  A    between atoms: C_1  and  C_2
REMARK    2  A    between atoms: C_4  and  C_5
REMARK    3  A    between atoms: C_5  and  N_6
REMARK    4  A    between atoms: C_13  and  C_14
REMARK    5  A    between atoms: C_24  and  S_25
REMARK    6  A    between atoms: S_25  and  N_26
REMARK                            x       y       z     vdW  Elec       q    Type
REMARK                         _______ _______ _______ _____ _____    ______ ____
ROOT
ATOM      1  N   UNL     1       1.230   9.620  19.022  0.00  0.00    +0.000 N 
ATOM      2  C   UNL     1      -0.034  10.083  18.745  0.00  0.00    +0.000 A 
ATOM      3  C   UNL     1      -0.775   9.679  17.508  0.00  0.00    +0.000 A 
ATOM      4  C   UNL     1      -1.997  10.179  17.296  0.00  0.00    +0.000 A 
ATOM      5  C   UNL     1      -2.551  11.062  18.242  0.00  0.00    +0.000 A 
ATOM      6  N   UNL     1      -3.715  11.667  18.311  0.00  0.00    +0.000 NA
ATOM      7  N   UNL     1      -3.728  12.405  19.471  0.00  0.00    +0.000 NA
ATOM      8  C   UNL     1      -2.558  12.259  20.080  0.00  0.00    +0.000 A 
ATOM      9  N   UNL     1      -1.782  11.382  19.344  0.00  0.00    +0.000 N 
ATOM     10  N   UNL     1      -0.532  10.897  19.635  0.00  0.00    +0.000 NA
ATOM     11  H   UNL     1       1.637  10.134  19.801  0.00  0.00    +0.000 HD
ENDROOT
BRANCH   8  12
ATOM     12  C   UNL     1      -2.151  12.882  21.330  0.00  0.00    +0.000 A 
ATOM     13  C   UNL     1      -2.636  12.433  22.556  0.00  0.00    +0.000 A 
ATOM     14  C   UNL     1      -2.192  13.058  23.721  0.00  0.00    +0.000 A 
ATOM     15  C   UNL     1      -1.293  14.114  23.629  0.00  0.00    +0.000 A 
ATOM     16  C   UNL     1      -0.878  14.511  22.372  0.00  0.00    +0.000 A 
ATOM     17  N   UNL     1      -1.294  13.928  21.230  0.00  0.00    +0.000 NA
ENDBRANCH   8  12
BRANCH   1  18
ATOM     18  C   UNL     1       2.187   9.243  18.005  0.00  0.00    +0.000 C 
BRANCH  18  22
ATOM     19  C   UNL     1       2.181   5.015  20.730  0.00  0.00    +0.000 C 
ATOM     20  C   UNL     1       2.692   5.751  19.523  0.00  0.00    +0.000 A 
ATOM     21  C   UNL     1       2.226   7.061  19.295  0.00  0.00    +0.000 A 
ATOM     22  C   UNL     1       2.654   7.818  18.190  0.00  0.00    +0.000 A 
ATOM     23  C   UNL     1       3.571   7.254  17.297  0.00  0.00    +0.000 A 
ATOM     24  C   UNL     1       4.039   5.957  17.498  0.00  0.00    +0.000 A 
ATOM     25  C   UNL     1       3.592   5.201  18.593  0.00  0.00    +0.000 A 
BRANCH  25  26
ATOM     26  S   UNL     1       4.167   3.523  18.671  0.00  0.00    +0.000 S 
ATOM     27  O   UNL     1       5.198   3.415  19.683  0.00  0.00    +0.000 OA
ATOM     28  O   UNL     1       3.069   2.594  18.607  0.00  0.00    +0.000 OA
BRANCH  26  29
ATOM     29  N   UNL     1       4.962   3.425  17.196  0.00  0.00    +0.000 NA
ATOM     30  H   UNL     1       5.692   4.133  17.134  0.00  0.00    +0.000 HD
ATOM     31  H   UNL     1       5.262   2.471  17.008  0.00  0.00    +0.000 HD
ENDBRANCH  26  29
ENDBRANCH  25  26
ENDBRANCH  18  22
ENDBRANCH   1  18
TORSDOF 5
ENDMDL
MODEL 8
REMARK VINA RESULT:      -7.8      4.427      9.909
REMARK  Name = 
REMARK  6 active torsions:
REMARK  status: ('A' for Active; 'I' for Inactive)
REMARK    1  A    between atoms: C_1  and  C_2
REMARK    2  A    between atoms: C_4  and  C_5
REMARK    3  A    between atoms: C_5  and  N_6
REMARK    4  A    between atoms: C_13  and  C_14
REMARK    5  A    between atoms: C_24  and  S_25
REMARK    6  A    between atoms: S_25  and  N_26
REMARK                            x       y       z     vdW  Elec       q    Type
REMARK                         _______ _______ _______ _____ _____    ______ ____
ROOT
ATOM      1  N   UNL     1       1.170   9.762  18.965  0.00  0.00    +0.000 N 
ATOM      2  C   UNL     1      -0.112  10.192  18.725  0.00  0.00    +0.000 A 
ATOM      3  C   UNL     1      -0.885   9.752  17.520  0.00  0.00    +0.000 A 
ATOM      4  C   UNL     1      -2.125  10.221  17.343  0.00  0.00    +0.000 A 
ATOM      5  C   UNL     1      -2.667  11.105  18.294  0.00  0.00    +0.000 A 
ATOM      6  N   UNL     1      -3.841  11.685  18.393  0.00  0.00    +0.000 NA
ATOM      7  N   UNL     1      -3.833  12.440  19.542  0.00  0.00    +0.000 NA
ATOM      8  C   UNL     1      -2.640  12.330  20.114  0.00  0.00    +0.000 A 
ATOM      9  N   UNL     1      -1.870  11.459  19.364  0.00  0.00    +0.000 N 
ATOM     10  N   UNL     1      -0.599  11.008  19.619  0.00  0.00    +0.000 NA
ATOM     11  H   UNL     1       1.592  10.297  19.722  0.00  0.00    +0.000 HD
ENDROOT
BRANCH   8  12
ATOM     12  C   UNL     1      -2.206  12.981  21.340  0.00  0.00    +0.000 A 
ATOM     13  C   UNL     1      -2.617  12.523  22.590  0.00  0.00    +0.000 A 
ATOM     14  C   UNL     1      -2.150  13.176  23.729  0.00  0.00    +0.000 A 
ATOM     15  C   UNL     1      -1.301  14.269  23.590  0.00  0.00    +0.000 A 
ATOM     16  C   UNL     1      -0.959  14.671  22.313  0.00  0.00    +0.000 A 
ATOM     17  N   UNL     1      -1.400  14.061  21.195  0.00  0.00    +0.000 NA
ENDBRANCH   8  12
BRANCH   1  18
ATOM     18  C   UNL     1       2.102   9.391  17.922  0.00  0.00    +0.000 C 
BRANCH  18  22
ATOM     19  C   UNL     1       5.089   5.638  16.412  0.00  0.00    +0.000 C 
ATOM     20  C   UNL     1       4.083   6.142  17.408  0.00  0.00    +0.000 A 
ATOM     21  C   UNL     1       3.596   7.455  17.257  0.00  0.00    +0.000 A 
ATOM     22  C   UNL     1       2.654   8.003  18.145  0.00  0.00    +0.000 A 
ATOM     23  C   UNL     1       2.186   7.219  19.204  0.00  0.00    +0.000 A 
ATOM     24  C   UNL     1       2.660   5.921  19.379  0.00  0.00    +0.000 A 
ATOM     25  C   UNL     1       3.615   5.388  18.499  0.00  0.00    +0.000 A 
BRANCH  25  26
ATOM     26  S   UNL     1       4.228   3.770  18.898  0.00  0.00    +0.000 S 
ATOM     27  O   UNL     1       3.836   2.838  17.861  0.00  0.00    +0.000 OA
ATOM     28  O   UNL     1       5.582   3.833  19.386  0.00  0.00    +0.000 OA
BRANCH  26  29
ATOM     29  N   UNL     1       3.260   3.416  20.222  0.00  0.00    +0.000 NA
ATOM     30  H   UNL     1       2.368   3.905  20.156  0.00  0.00    +0.000 HD
ATOM     31  H   UNL     1       3.197   2.411  20.368  0.00  0.00    +0.000 HD
ENDBRANCH  26  29
ENDBRANCH  25  26
ENDBRANCH  18  22
ENDBRANCH   1  18
TORSDOF 5
ENDMDL
MODEL 9
REMARK VINA RESULT:      -7.8      1.524      2.168
REMARK  Name = 
REMARK  6 active torsions:
REMARK  status: ('A' for Active; 'I' for Inactive)
REMARK    1  A    between atoms: C_1  and  C_2
REMARK    2  A    between atoms: C_4  and  C_5
REMARK    3  A    between atoms: C_5  and  N_6
REMARK    4  A    between atoms: C_13  and  C_14
REMARK    5  A    between atoms: C_24  and  S_25
REMARK    6  A    between atoms: S_25  and  N_26
REMARK                            x       y       z     vdW  Elec       q    Type
REMARK                         _______ _______ _______ _____ _____    ______ ____
ROOT
ATOM      1  N   UNL     1       1.550   7.708  20.653  0.00  0.00    +0.000 N 
ATOM      2  C   UNL     1       1.933   6.421  20.365  0.00  0.00    +0.000 A 
ATOM      3  C   UNL     1       1.063   5.244  20.679  0.00  0.00    +0.000 A 
ATOM      4  C   UNL     1       1.506   4.017  20.383  0.00  0.00    +0.000 A 
ATOM      5  C   UNL     1       2.769   3.870  19.781  0.00  0.00    +0.000 A 
ATOM      6  N   UNL     1       3.430   2.816  19.359  0.00  0.00    +0.000 NA
ATOM      7  N   UNL     1       4.621   3.258  18.834  0.00  0.00    +0.000 NA
ATOM      8  C   UNL     1       4.680   4.578  18.968  0.00  0.00    +0.000 A 
ATOM      9  N   UNL     1       3.500   5.017  19.542  0.00  0.00    +0.000 N 
ATOM     10  N   UNL     1       3.105   6.305  19.803  0.00  0.00    +0.000 NA
ATOM     11  H   UNL     1       2.332   8.350  20.535  0.00  0.00    +0.000 HD
ENDROOT
BRANCH   8  12
ATOM     12  C   UNL     1       5.777   5.441  18.558  0.00  0.00    +0.000 A 
ATOM     13  C   UNL     1       6.952   5.522  19.301  0.00  0.00    +0.000 A 
ATOM     14  C   UNL     1       7.976   6.351  18.846  0.00  0.00    +0.000 A 
ATOM     15  C   UNL     1       7.795   7.080  17.676  0.00  0.00    +0.000 A 
ATOM     16  C   UNL     1       6.590   6.958  17.010  0.00  0.00    +0.000 A 
ATOM     17  N   UNL     1       5.582   6.168  17.431  0.00  0.00    +0.000 NA
ENDBRANCH   8  12
BRANCH   1  18
ATOM     18  C   UNL     1       0.666   8.057  21.744  0.00  0.00    +0.000 C 
BRANCH  18  22
ATOM     19  C   UNL     1      -0.878  11.578  18.501  0.00  0.00    +0.000 C 
ATOM     20  C   UNL     1      -0.754  11.131  19.931  0.00  0.00    +0.000 A 
ATOM     21  C   UNL     1      -0.172   9.873  20.187  0.00  0.00    +0.000 A 
ATOM     22  C   UNL     1      -0.019   9.381  21.495  0.00  0.00    +0.000 A 
ATOM     23  C   UNL     1      -0.454  10.164  22.569  0.00  0.00    +0.000 A 
ATOM     24  C   UNL     1      -1.041  11.406  22.339  0.00  0.00    +0.000 A 
ATOM     25  C   UNL     1      -1.207  11.883  21.029  0.00  0.00    +0.000 A 
BRANCH  25  26
ATOM     26  S   UNL     1      -2.076  13.422  20.863  0.00  0.00    +0.000 S 
ATOM     27  O   UNL     1      -2.607  13.816  22.153  0.00  0.00    +0.000 OA
ATOM     28  O   UNL     1      -1.346  14.345  20.031  0.00  0.00    +0.000 OA
BRANCH  26  29
ATOM     29  N   UNL     1      -3.396  12.909  19.962  0.00  0.00    +0.000 NA
ATOM     30  H   UNL     1      -4.168  13.567  20.050  0.00  0.00    +0.000 HD
ATOM     31  H   UNL     1      -3.120  12.684  19.008  0.00  0.00    +0.000 HD
ENDBRANCH  26  29
ENDBRANCH  25  26
ENDBRANCH  18  22
ENDBRANCH   1  18
TORSDOF 5
ENDMDL
