MODEL 1
REMARK VINA RESULT:      -9.2      0.000      0.000
REMARK  Name = 
REMARK  4 active torsions:
REMARK  status: ('A' for Active; 'I' for Inactive)
REMARK    1  A    between atoms: C_1  and  C_2
REMARK    2  A    between atoms: C_4  and  N_5
REMARK    3  A    between atoms: C_6  and  C_8
REMARK    4  A    between atoms: C_10  and  C_11
REMARK                            x       y       z     vdW  Elec       q    Type
REMARK                         _______ _______ _______ _____ _____    ______ ____
ROOT
ATOM      1  C   UNL     1       3.945   5.778  18.690  0.00  0.00    +0.000 A 
ATOM      2  C   UNL     1       3.272   6.999  18.748  0.00  0.00    +0.000 A 
ATOM      3  C   UNL     1       2.236   7.157  19.648  0.00  0.00    +0.000 A 
ATOM      4  N   UNL     1       1.873   6.151  20.471  0.00  0.00    +0.000 NA
ATOM      5  C   UNL     1       2.491   4.959  20.405  0.00  0.00    +0.000 A 
ATOM      6  C   UNL     1       2.051   3.950  21.252  0.00  0.00    +0.000 A 
ATOM      7  C   UNL     1       2.634   2.681  21.259  0.00  0.00    +0.000 A 
ATOM      8  C   UNL     1       3.689   2.410  20.403  0.00  0.00    +0.000 A 
ATOM      9  C   UNL     1       4.150   3.407  19.545  0.00  0.00    +0.000 A 
ATOM     10  C   UNL     1       3.556   4.699  19.522  0.00  0.00    +0.000 A 
ENDROOT
BRANCH   3  11
ATOM     11  C   UNL     1       1.474   8.416  19.758  0.00  0.00    +0.000 A 
ATOM     12  C   UNL     1       1.355   9.309  18.672  0.00  0.00    +0.000 A 
ATOM     13  C   UNL     1       0.610  10.485  18.771  0.00  0.00    +0.000 A 
ATOM     14  C   UNL     1      -0.037  10.794  19.963  0.00  0.00    +0.000 A 
ATOM     15  C   UNL     1       0.077   9.940  21.056  0.00  0.00    +0.000 A 
ATOM     16  C   UNL     1       0.826   8.765  20.954  0.00  0.00    +0.000 A 
ENDBRANCH   3  11
BRANCH   1  18
ATOM     17  N   UNL     1       4.683   5.168  16.398  0.00  0.00    +0.000 N 
ATOM     18  C   UNL     1       5.047   5.660  17.706  0.00  0.00    +0.000 C 
ATOM     19  O   UNL     1       6.202   5.941  17.974  0.00  0.00    +0.000 OA
ATOM     20  H   UNL     1       3.718   4.949  16.193  0.00  0.00    +0.000 HD
BRANCH  17  24
ATOM     21  C   UNL     1       7.140   3.861  12.250  0.00  0.00    +0.000 C 
ATOM     22  C   UNL     1       6.717   4.474  13.532  0.00  0.00    +0.000 A 
ATOM     23  C   UNL     1       5.492   4.285  14.209  0.00  0.00    +0.000 A 
ATOM     24  C   UNL     1       5.591   5.033  15.356  0.00  0.00    +0.000 A 
ATOM     25  N   UNL     1       6.824   5.630  15.293  0.00  0.00    +0.000 N 
ATOM     26  N   UNL     1       7.528   5.304  14.199  0.00  0.00    +0.000 NA
ATOM     27  H   UNL     1       7.263   6.265  15.949  0.00  0.00    +0.000 HD
ENDBRANCH  17  24
ENDBRANCH   1  18
TORSDOF 3
ENDMDL
MODEL 2
REMARK VINA RESULT:      -8.9      3.414      6.066
REMARK  Name = 
REMARK  4 active torsions:
REMARK  status: ('A' for Active; 'I' for Inactive)
REMARK    1  A    between atoms: C_1  and  C_2
REMARK    2  A    between atoms: C_4  and  N_5
REMARK    3  A    between atoms: C_6  and  C_8
REMARK    4  A    between atoms: C_10  and  C_11
REMARK                            x       y       z     vdW  Elec       q    Type
REMARK                         _______ _______ _______ _____ _____    ______ ____
ROOT
ATOM      1  C   UNL     1       6.241   5.764  17.493  0.00  0.00    +0.000 A 
ATOM      2  C   UNL     1       5.155   5.460  18.315  0.00  0.00    +0.000 A 
ATOM      3  C   UNL     1       4.175   4.605  17.848  0.00  0.00    +0.000 A 
ATOM      4  N   UNL     1       4.259   4.061  16.616  0.00  0.00    +0.000 NA
ATOM      5  C   UNL     1       5.282   4.370  15.802  0.00  0.00    +0.000 A 
ATOM      6  C   UNL     1       5.297   3.807  14.532  0.00  0.00    +0.000 A 
ATOM      7  C   UNL     1       6.321   4.065  13.619  0.00  0.00    +0.000 A 
ATOM      8  C   UNL     1       7.364   4.902  13.981  0.00  0.00    +0.000 A 
ATOM      9  C   UNL     1       7.373   5.477  15.251  0.00  0.00    +0.000 A 
ATOM     10  C   UNL     1       6.329   5.230  16.184  0.00  0.00    +0.000 A 
ENDROOT
BRANCH   3  11
ATOM     11  C   UNL     1       2.994   4.246  18.658  0.00  0.00    +0.000 A 
ATOM     12  C   UNL     1       2.087   3.247  18.247  0.00  0.00    +0.000 A 
ATOM     13  C   UNL     1       0.988   2.891  19.028  0.00  0.00    +0.000 A 
ATOM     14  C   UNL     1       0.771   3.528  20.246  0.00  0.00    +0.000 A 
ATOM     15  C   UNL     1       1.640   4.529  20.670  0.00  0.00    +0.000 A 
ATOM     16  C   UNL     1       2.738   4.885  19.882  0.00  0.00    +0.000 A 
ENDBRANCH   3  11
BRANCH   1  18
ATOM     17  N   UNL     1       7.205   8.053  17.572  0.00  0.00    +0.000 N 
ATOM     18  C   UNL     1       7.263   6.688  18.041  0.00  0.00    +0.000 C 
ATOM     19  O   UNL     1       8.121   6.328  18.828  0.00  0.00    +0.000 OA
ATOM     20  H   UNL     1       6.480   8.333  16.926  0.00  0.00    +0.000 HD
BRANCH  17  24
ATOM     21  C   UNL     1      10.002  12.157  18.108  0.00  0.00    +0.000 C 
ATOM     22  C   UNL     1       9.330  10.847  18.286  0.00  0.00    +0.000 A 
ATOM     23  C   UNL     1       8.348  10.267  17.452  0.00  0.00    +0.000 A 
ATOM     24  C   UNL     1       8.068   9.046  18.014  0.00  0.00    +0.000 A 
ATOM     25  N   UNL     1       8.857   8.974  19.134  0.00  0.00    +0.000 N 
ATOM     26  N   UNL     1       9.635  10.052  19.318  0.00  0.00    +0.000 NA
ATOM     27  H   UNL     1       8.931   8.232  19.819  0.00  0.00    +0.000 HD
ENDBRANCH  17  24
ENDBRANCH   1  18
TORSDOF 3
ENDMDL
MODEL 3
REMARK VINA RESULT:      -8.8      0.495      1.081
REMARK  Name = 
REMARK  4 active torsions:
REMARK  status: ('A' for Active; 'I' for Inactive)
REMARK    1  A    between atoms: C_1  and  C_2
REMARK    2  A    between atoms: C_4  and  N_5
REMARK    3  A    between atoms: C_6  and  C_8
REMARK    4  A    between atoms: C_10  and  C_11
REMARK                            x       y       z     vdW  Elec       q    Type
REMARK                         _______ _______ _______ _____ _____    ______ ____
ROOT
ATOM      1  C   UNL     1       3.751   6.127  18.593  0.00  0.00    +0.000 A 
ATOM      2  C   UNL     1       3.017   7.292  18.825  0.00  0.00    +0.000 A 
ATOM      3  C   UNL     1       2.054   7.295  19.816  0.00  0.00    +0.000 A 
ATOM      4  N   UNL     1       1.819   6.193  20.558  0.00  0.00    +0.000 NA
ATOM      5  C   UNL     1       2.494   5.056  20.324  0.00  0.00    +0.000 A 
ATOM      6  C   UNL     1       2.185   3.944  21.097  0.00  0.00    +0.000 A 
ATOM      7  C   UNL     1       2.837   2.721  20.930  0.00  0.00    +0.000 A 
ATOM      8  C   UNL     1       3.829   2.601  19.971  0.00  0.00    +0.000 A 
ATOM      9  C   UNL     1       4.160   3.704  19.185  0.00  0.00    +0.000 A 
ATOM     10  C   UNL     1       3.494   4.951  19.338  0.00  0.00    +0.000 A 
ENDROOT
BRANCH   3  11
ATOM     11  C   UNL     1       1.235   8.487  20.111  0.00  0.00    +0.000 A 
ATOM     12  C   UNL     1       0.566   8.642  21.343  0.00  0.00    +0.000 A 
ATOM     13  C   UNL     1      -0.185   9.783  21.629  0.00  0.00    +0.000 A 
ATOM     14  C   UNL     1      -0.282  10.800  20.685  0.00  0.00    +0.000 A 
ATOM     15  C   UNL     1       0.354  10.667  19.454  0.00  0.00    +0.000 A 
ATOM     16  C   UNL     1       1.102   9.522  19.171  0.00  0.00    +0.000 A 
ENDBRANCH   3  11
BRANCH   1  18
ATOM     17  N   UNL     1       4.802   5.047  16.618  0.00  0.00    +0.000 N 
ATOM     18  C   UNL     1       4.771   6.176  17.518  0.00  0.00    +0.000 C 
ATOM     19  O   UNL     1       5.557   7.099  17.398  0.00  0.00    +0.000 OA
ATOM     20  H   UNL     1       4.135   4.296  16.729  0.00  0.00    +0.000 HD
BRANCH  17  24
ATOM     21  C   UNL     1       7.082   3.969  12.306  0.00  0.00    +0.000 C 
ATOM     22  C   UNL     1       6.722   4.496  13.644  0.00  0.00    +0.000 A 
ATOM     23  C   UNL     1       5.509   4.307  14.343  0.00  0.00    +0.000 A 
ATOM     24  C   UNL     1       5.673   4.956  15.541  0.00  0.00    +0.000 A 
ATOM     25  N   UNL     1       6.930   5.504  15.486  0.00  0.00    +0.000 N 
ATOM     26  N   UNL     1       7.588   5.235  14.348  0.00  0.00    +0.000 NA
ATOM     27  H   UNL     1       7.415   6.065  16.176  0.00  0.00    +0.000 HD
ENDBRANCH  17  24
ENDBRANCH   1  18
TORSDOF 3
ENDMDL
MODEL 4
REMARK VINA RESULT:      -8.6      0.930      1.341
REMARK  Name = 
REMARK  4 active torsions:
REMARK  status: ('A' for Active; 'I' for Inactive)
REMARK    1  A    between atoms: C_1  and  C_2
REMARK    2  A    between atoms: C_4  and  N_5
REMARK    3  A    between atoms: C_6  and  C_8
REMARK    4  A    between atoms: C_10  and  C_11
REMARK                            x       y       z     vdW  Elec       q    Type
REMARK                         _______ _______ _______ _____ _____    ______ ____
ROOT
ATOM      1  C   UNL     1       3.483   5.138  18.265  0.00  0.00    +0.000 A 
ATOM      2  C   UNL     1       3.034   6.459  18.226  0.00  0.00    +0.000 A 
ATOM      3  C   UNL     1       2.298   6.951  19.286  0.00  0.00    +0.000 A 
ATOM      4  N   UNL     1       2.013   6.176  20.353  0.00  0.00    +0.000 NA
ATOM      5  C   UNL     1       2.411   4.893  20.389  0.00  0.00    +0.000 A 
ATOM      6  C   UNL     1       2.059   4.133  21.497  0.00  0.00    +0.000 A 
ATOM      7  C   UNL     1       2.431   2.794  21.627  0.00  0.00    +0.000 A 
ATOM      8  C   UNL     1       3.181   2.194  20.628  0.00  0.00    +0.000 A 
ATOM      9  C   UNL     1       3.550   2.937  19.507  0.00  0.00    +0.000 A 
ATOM     10  C   UNL     1       3.165   4.298  19.360  0.00  0.00    +0.000 A 
ENDROOT
BRANCH   3  11
ATOM     11  C   UNL     1       1.782   8.334  19.309  0.00  0.00    +0.000 A 
ATOM     12  C   UNL     1       1.151   8.873  20.450  0.00  0.00    +0.000 A 
ATOM     13  C   UNL     1       0.690  10.189  20.477  0.00  0.00    +0.000 A 
ATOM     14  C   UNL     1       0.854  11.002  19.360  0.00  0.00    +0.000 A 
ATOM     15  C   UNL     1       1.459  10.493  18.215  0.00  0.00    +0.000 A 
ATOM     16  C   UNL     1       1.916   9.172  18.190  0.00  0.00    +0.000 A 
ENDBRANCH   3  11
BRANCH   1  18
ATOM     17  N   UNL     1       5.104   5.637  16.449  0.00  0.00    +0.000 N 
ATOM     18  C   UNL     1       4.268   4.657  17.102  0.00  0.00    +0.000 C 
ATOM     19  O   UNL     1       4.209   3.510  16.697  0.00  0.00    +0.000 OA
ATOM     20  H   UNL     1       5.146   6.582  16.806  0.00  0.00    +0.000 HD
BRANCH  17  24
ATOM     21  C   UNL     1       7.098   3.907  12.208  0.00  0.00    +0.000 C 
ATOM     22  C   UNL     1       6.850   4.586  13.503  0.00  0.00    +0.000 A 
ATOM     23  C   UNL     1       5.642   4.624  14.234  0.00  0.00    +0.000 A 
ATOM     24  C   UNL     1       5.925   5.339  15.370  0.00  0.00    +0.000 A 
ATOM     25  N   UNL     1       7.244   5.701  15.250  0.00  0.00    +0.000 N 
ATOM     26  N   UNL     1       7.828   5.253  14.129  0.00  0.00    +0.000 NA
ATOM     27  H   UNL     1       7.819   6.243  15.883  0.00  0.00    +0.000 HD
ENDBRANCH  17  24
ENDBRANCH   1  18
TORSDOF 3
ENDMDL
MODEL 5
REMARK VINA RESULT:      -8.5      0.930      1.032
REMARK  Name = 
REMARK  4 active torsions:
REMARK  status: ('A' for Active; 'I' for Inactive)
REMARK    1  A    between atoms: C_1  and  C_2
REMARK    2  A    between atoms: C_4  and  N_5
REMARK    3  A    between atoms: C_6  and  C_8
REMARK    4  A    between atoms: C_10  and  C_11
REMARK                            x       y       z     vdW  Elec       q    Type
REMARK                         _______ _______ _______ _____ _____    ______ ____
ROOT
ATOM      1  C   UNL     1       3.219   6.219  18.633  0.00  0.00    +0.000 A 
ATOM      2  C   UNL     1       2.603   7.401  19.049  0.00  0.00    +0.000 A 
ATOM      3  C   UNL     1       1.802   7.383  20.174  0.00  0.00    +0.000 A 
ATOM      4  N   UNL     1       1.613   6.245  20.874  0.00  0.00    +0.000 NA
ATOM      5  C   UNL     1       2.174   5.093  20.467  0.00  0.00    +0.000 A 
ATOM      6  C   UNL     1       1.916   3.947  21.207  0.00  0.00    +0.000 A 
ATOM      7  C   UNL     1       2.458   2.707  20.866  0.00  0.00    +0.000 A 
ATOM      8  C   UNL     1       3.286   2.604  19.760  0.00  0.00    +0.000 A 
ATOM      9  C   UNL     1       3.563   3.742  19.003  0.00  0.00    +0.000 A 
ATOM     10  C   UNL     1       3.006   5.007  19.335  0.00  0.00    +0.000 A 
ENDROOT
BRANCH   3  11
ATOM     11  C   UNL     1       1.111   8.592  20.666  0.00  0.00    +0.000 A 
ATOM     12  C   UNL     1       0.722   9.631  19.796  0.00  0.00    +0.000 A 
ATOM     13  C   UNL     1       0.045  10.759  20.261  0.00  0.00    +0.000 A 
ATOM     14  C   UNL     1      -0.263  10.871  21.613  0.00  0.00    +0.000 A 
ATOM     15  C   UNL     1       0.123   9.868  22.498  0.00  0.00    +0.000 A 
ATOM     16  C   UNL     1       0.804   8.742  22.028  0.00  0.00    +0.000 A 
ENDBRANCH   3  11
BRANCH   1  18
ATOM     17  N   UNL     1       4.774   5.083  17.063  0.00  0.00    +0.000 N 
ATOM     18  C   UNL     1       4.067   6.291  17.419  0.00  0.00    +0.000 C 
ATOM     19  O   UNL     1       4.186   7.308  16.759  0.00  0.00    +0.000 OA
ATOM     20  H   UNL     1       4.655   4.248  17.619  0.00  0.00    +0.000 HD
BRANCH  17  24
ATOM     21  C   UNL     1       6.847   3.868  12.684  0.00  0.00    +0.000 C 
ATOM     22  C   UNL     1       6.537   4.459  14.008  0.00  0.00    +0.000 A 
ATOM     23  C   UNL     1       5.386   4.240  14.797  0.00  0.00    +0.000 A 
ATOM     24  C   UNL     1       5.580   4.976  15.939  0.00  0.00    +0.000 A 
ATOM     25  N   UNL     1       6.791   5.598  15.765  0.00  0.00    +0.000 N 
ATOM     26  N   UNL     1       7.393   5.297  14.605  0.00  0.00    +0.000 NA
ATOM     27  H   UNL     1       7.279   6.234  16.385  0.00  0.00    +0.000 HD
ENDBRANCH  17  24
ENDBRANCH   1  18
TORSDOF 3
ENDMDL
MODEL 6
REMARK VINA RESULT:      -8.4      2.234      7.452
REMARK  Name = 
REMARK  4 active torsions:
REMARK  status: ('A' for Active; 'I' for Inactive)
REMARK    1  A    between atoms: C_1  and  C_2
REMARK    2  A    between atoms: C_4  and  N_5
REMARK    3  A    between atoms: C_6  and  C_8
REMARK    4  A    between atoms: C_10  and  C_11
REMARK                            x       y       z     vdW  Elec       q    Type
REMARK                         _______ _______ _______ _____ _____    ______ ____
ROOT
ATOM      1  C   UNL     1       2.714   6.090  19.025  0.00  0.00    +0.000 A 
ATOM      2  C   UNL     1       3.640   6.123  17.980  0.00  0.00    +0.000 A 
ATOM      3  C   UNL     1       4.225   4.944  17.561  0.00  0.00    +0.000 A 
ATOM      4  N   UNL     1       3.912   3.768  18.143  0.00  0.00    +0.000 NA
ATOM      5  C   UNL     1       3.047   3.725  19.171  0.00  0.00    +0.000 A 
ATOM      6  C   UNL     1       2.790   2.491  19.754  0.00  0.00    +0.000 A 
ATOM      7  C   UNL     1       1.903   2.346  20.822  0.00  0.00    +0.000 A 
ATOM      8  C   UNL     1       1.249   3.459  21.322  0.00  0.00    +0.000 A 
ATOM      9  C   UNL     1       1.488   4.709  20.752  0.00  0.00    +0.000 A 
ATOM     10  C   UNL     1       2.398   4.869  19.672  0.00  0.00    +0.000 A 
ENDROOT
BRANCH   3  11
ATOM     11  C   UNL     1       5.218   4.905  16.469  0.00  0.00    +0.000 A 
ATOM     12  C   UNL     1       6.529   5.397  16.639  0.00  0.00    +0.000 A 
ATOM     13  C   UNL     1       7.473   5.333  15.615  0.00  0.00    +0.000 A 
ATOM     14  C   UNL     1       7.126   4.770  14.390  0.00  0.00    +0.000 A 
ATOM     15  C   UNL     1       5.835   4.291  14.188  0.00  0.00    +0.000 A 
ATOM     16  C   UNL     1       4.891   4.361  15.217  0.00  0.00    +0.000 A 
ENDBRANCH   3  11
BRANCH   1  18
ATOM     17  N   UNL     1       1.660   7.464  20.806  0.00  0.00    +0.000 N 
ATOM     18  C   UNL     1       2.116   7.382  19.438  0.00  0.00    +0.000 C 
ATOM     19  O   UNL     1       1.992   8.324  18.675  0.00  0.00    +0.000 OA
ATOM     20  H   UNL     1       1.780   6.674  21.425  0.00  0.00    +0.000 HD
BRANCH  17  24
ATOM     21  C   UNL     1      -1.187  10.825  23.162  0.00  0.00    +0.000 C 
ATOM     22  C   UNL     1      -0.130  10.137  22.382  0.00  0.00    +0.000 A 
ATOM     23  C   UNL     1       0.004   8.748  22.160  0.00  0.00    +0.000 A 
ATOM     24  C   UNL     1       1.109   8.613  21.357  0.00  0.00    +0.000 A 
ATOM     25  N   UNL     1       1.577   9.889  21.167  0.00  0.00    +0.000 N 
ATOM     26  N   UNL     1       0.840  10.831  21.775  0.00  0.00    +0.000 NA
ATOM     27  H   UNL     1       2.380  10.204  20.638  0.00  0.00    +0.000 HD
ENDBRANCH  17  24
ENDBRANCH   1  18
TORSDOF 3
ENDMDL
MODEL 7
REMARK VINA RESULT:      -8.4      2.317      6.931
REMARK  Name = 
REMARK  4 active torsions:
REMARK  status: ('A' for Active; 'I' for Inactive)
REMARK    1  A    between atoms: C_1  and  C_2
REMARK    2  A    between atoms: C_4  and  N_5
REMARK    3  A    between atoms: C_6  and  C_8
REMARK    4  A    between atoms: C_10  and  C_11
REMARK                            x       y       z     vdW  Elec       q    Type
REMARK                         _______ _______ _______ _____ _____    ______ ____
ROOT
ATOM      1  C   UNL     1       2.785   6.093  18.586  0.00  0.00    +0.000 A 
ATOM      2  C   UNL     1       3.740   6.083  17.568  0.00  0.00    +0.000 A 
ATOM      3  C   UNL     1       4.240   4.874  17.125  0.00  0.00    +0.000 A 
ATOM      4  N   UNL     1       3.816   3.710  17.659  0.00  0.00    +0.000 NA
ATOM      5  C   UNL     1       2.920   3.705  18.662  0.00  0.00    +0.000 A 
ATOM      6  C   UNL     1       2.547   2.479  19.196  0.00  0.00    +0.000 A 
ATOM      7  C   UNL     1       1.621   2.374  20.234  0.00  0.00    +0.000 A 
ATOM      8  C   UNL     1       1.044   3.521  20.754  0.00  0.00    +0.000 A 
ATOM      9  C   UNL     1       1.401   4.764  20.233  0.00  0.00    +0.000 A 
ATOM     10  C   UNL     1       2.352   4.883  19.183  0.00  0.00    +0.000 A 
ENDROOT
BRANCH   3  11
ATOM     11  C   UNL     1       5.258   4.787  16.059  0.00  0.00    +0.000 A 
ATOM     12  C   UNL     1       5.002   4.130  14.838  0.00  0.00    +0.000 A 
ATOM     13  C   UNL     1       5.956   4.075  13.823  0.00  0.00    +0.000 A 
ATOM     14  C   UNL     1       7.195   4.682  14.006  0.00  0.00    +0.000 A 
ATOM     15  C   UNL     1       7.482   5.323  15.207  0.00  0.00    +0.000 A 
ATOM     16  C   UNL     1       6.524   5.373  16.223  0.00  0.00    +0.000 A 
ENDBRANCH   3  11
BRANCH   1  18
ATOM     17  N   UNL     1       1.936   8.347  17.978  0.00  0.00    +0.000 N 
ATOM     18  C   UNL     1       2.281   7.416  19.026  0.00  0.00    +0.000 C 
ATOM     19  O   UNL     1       2.175   7.722  20.201  0.00  0.00    +0.000 OA
ATOM     20  H   UNL     1       2.023   8.071  17.010  0.00  0.00    +0.000 HD
BRANCH  17  24
ATOM     21  C   UNL     1      -0.961  12.278  19.031  0.00  0.00    +0.000 C 
ATOM     22  C   UNL     1       0.167  11.383  18.675  0.00  0.00    +0.000 A 
ATOM     23  C   UNL     1       0.161   9.971  18.640  0.00  0.00    +0.000 A 
ATOM     24  C   UNL     1       1.419   9.612  18.223  0.00  0.00    +0.000 A 
ATOM     25  N   UNL     1       2.097  10.794  18.060  0.00  0.00    +0.000 N 
ATOM     26  N   UNL     1       1.358  11.882  18.324  0.00  0.00    +0.000 NA
ATOM     27  H   UNL     1       3.054  10.948  17.770  0.00  0.00    +0.000 HD
ENDBRANCH  17  24
ENDBRANCH   1  18
TORSDOF 3
ENDMDL
MODEL 8
REMARK VINA RESULT:      -8.4      2.094      7.395
REMARK  Name = 
REMARK  4 active torsions:
REMARK  status: ('A' for Active; 'I' for Inactive)
REMARK    1  A    between atoms: C_1  and  C_2
REMARK    2  A    between atoms: C_4  and  N_5
REMARK    3  A    between atoms: C_6  and  C_8
REMARK    4  A    between atoms: C_10  and  C_11
REMARK                            x       y       z     vdW  Elec       q    Type
REMARK                         _______ _______ _______ _____ _____    ______ ____
ROOT
ATOM      1  C   UNL     1       2.955   6.067  18.922  0.00  0.00    +0.000 A 
ATOM      2  C   UNL     1       3.791   6.062  17.804  0.00  0.00    +0.000 A 
ATOM      3  C   UNL     1       4.492   4.913  17.493  0.00  0.00    +0.000 A 
ATOM      4  N   UNL     1       4.376   3.802  18.249  0.00  0.00    +0.000 NA
ATOM      5  C   UNL     1       3.599   3.802  19.346  0.00  0.00    +0.000 A 
ATOM      6  C   UNL     1       3.544   2.641  20.105  0.00  0.00    +0.000 A 
ATOM      7  C   UNL     1       2.762   2.544  21.257  0.00  0.00    +0.000 A 
ATOM      8  C   UNL     1       2.007   3.632  21.663  0.00  0.00    +0.000 A 
ATOM      9  C   UNL     1       2.042   4.809  20.916  0.00  0.00    +0.000 A 
ATOM     10  C   UNL     1       2.845   4.921  19.748  0.00  0.00    +0.000 A 
ENDROOT
BRANCH   3  11
ATOM     11  C   UNL     1       5.402   4.838  16.332  0.00  0.00    +0.000 A 
ATOM     12  C   UNL     1       5.055   4.135  15.160  0.00  0.00    +0.000 A 
ATOM     13  C   UNL     1       5.905   4.090  14.056  0.00  0.00    +0.000 A 
ATOM     14  C   UNL     1       7.128   4.754  14.097  0.00  0.00    +0.000 A 
ATOM     15  C   UNL     1       7.504   5.442  15.247  0.00  0.00    +0.000 A 
ATOM     16  C   UNL     1       6.651   5.482  16.353  0.00  0.00    +0.000 A 
ENDBRANCH   3  11
BRANCH   1  18
ATOM     17  N   UNL     1       1.821   7.523  20.586  0.00  0.00    +0.000 N 
ATOM     18  C   UNL     1       2.226   7.325  19.214  0.00  0.00    +0.000 C 
ATOM     19  O   UNL     1       1.961   8.147  18.354  0.00  0.00    +0.000 OA
ATOM     20  H   UNL     1       2.059   6.833  21.285  0.00  0.00    +0.000 HD
BRANCH  17  24
ATOM     21  C   UNL     1      -1.028  10.848  22.990  0.00  0.00    +0.000 C 
ATOM     22  C   UNL     1      -0.095  10.166  22.061  0.00  0.00    +0.000 A 
ATOM     23  C   UNL     1       0.341   8.823  22.116  0.00  0.00    +0.000 A 
ATOM     24  C   UNL     1       1.162   8.661  21.028  0.00  0.00    +0.000 A 
ATOM     25  N   UNL     1       1.192   9.888  20.412  0.00  0.00    +0.000 N 
ATOM     26  N   UNL     1       0.434  10.815  21.017  0.00  0.00    +0.000 NA
ATOM     27  H   UNL     1       1.693  10.174  19.581  0.00  0.00    +0.000 HD
ENDBRANCH  17  24
ENDBRANCH   1  18
TORSDOF 3
ENDMDL
MODEL 9
REMARK VINA RESULT:      -8.3      3.502      7.251
REMARK  Name = 
REMARK  4 active torsions:
REMARK  status: ('A' for Active; 'I' for Inactive)
REMARK    1  A    between atoms: C_1  and  C_2
REMARK    2  A    between atoms: C_4  and  N_5
REMARK    3  A    between atoms: C_6  and  C_8
REMARK    4  A    between atoms: C_10  and  C_11
REMARK                            x       y       z     vdW  Elec       q    Type
REMARK                         _______ _______ _______ _____ _____    ______ ____
ROOT
ATOM      1  C   UNL     1       6.482   6.000  17.338  0.00  0.00    +0.000 A 
ATOM      2  C   UNL     1       6.814   5.639  16.031  0.00  0.00    +0.000 A 
ATOM      3  C   UNL     1       5.979   4.786  15.336  0.00  0.00    +0.000 A 
ATOM      4  N   UNL     1       4.852   4.305  15.900  0.00  0.00    +0.000 NA
ATOM      5  C   UNL     1       4.536   4.618  17.168  0.00  0.00    +0.000 A 
ATOM      6  C   UNL     1       3.382   4.066  17.708  0.00  0.00    +0.000 A 
ATOM      7  C   UNL     1       2.970   4.338  19.014  0.00  0.00    +0.000 A 
ATOM      8  C   UNL     1       3.725   5.189  19.805  0.00  0.00    +0.000 A 
ATOM      9  C   UNL     1       4.887   5.758  19.285  0.00  0.00    +0.000 A 
ATOM     10  C   UNL     1       5.321   5.479  17.960  0.00  0.00    +0.000 A 
ENDROOT
BRANCH   3  11
ATOM     11  C   UNL     1       6.271   4.353  13.955  0.00  0.00    +0.000 A 
ATOM     12  C   UNL     1       5.469   3.404  13.288  0.00  0.00    +0.000 A 
ATOM     13  C   UNL     1       5.732   3.018  11.974  0.00  0.00    +0.000 A 
ATOM     14  C   UNL     1       6.807   3.579  11.291  0.00  0.00    +0.000 A 
ATOM     15  C   UNL     1       7.626   4.507  11.929  0.00  0.00    +0.000 A 
ATOM     16  C   UNL     1       7.361   4.887  13.248  0.00  0.00    +0.000 A 
ENDBRANCH   3  11
BRANCH   1  18
ATOM     17  N   UNL     1       7.474   8.269  17.540  0.00  0.00    +0.000 N 
ATOM     18  C   UNL     1       7.412   6.916  18.041  0.00  0.00    +0.000 C 
ATOM     19  O   UNL     1       8.103   6.560  18.979  0.00  0.00    +0.000 OA
ATOM     20  H   UNL     1       6.885   8.548  16.767  0.00  0.00    +0.000 HD
BRANCH  17  24
ATOM     21  C   UNL     1      10.077  12.411  18.551  0.00  0.00    +0.000 C 
ATOM     22  C   UNL     1       9.442  11.071  18.592  0.00  0.00    +0.000 A 
ATOM     23  C   UNL     1       8.542  10.521  17.653  0.00  0.00    +0.000 A 
ATOM     24  C   UNL     1       8.267   9.256  18.109  0.00  0.00    +0.000 A 
ATOM     25  N   UNL     1       8.977   9.131  19.277  0.00  0.00    +0.000 N 
ATOM     26  N   UNL     1       9.701  10.216  19.589  0.00  0.00    +0.000 NA
ATOM     27  H   UNL     1       9.029   8.345  19.914  0.00  0.00    +0.000 HD
ENDBRANCH  17  24
ENDBRANCH   1  18
TORSDOF 3
ENDMDL
