MODEL 1
REMARK VINA RESULT:      -8.1      0.000      0.000
REMARK  Name = 
REMARK  6 active torsions:
REMARK  status: ('A' for Active; 'I' for Inactive)
REMARK    1  A    between atoms: C_2  and  C_14
REMARK    2  A    between atoms: N_3  and  C_4
REMARK    3  A    between atoms: C_4  and  C_5
REMARK    4  A    between atoms: C_19  and  O_20
REMARK    5  A    between atoms: O_20  and  C_21
REMARK    6  A    between atoms: C_21  and  C_22
REMARK                            x       y       z     vdW  Elec       q    Type
REMARK                         _______ _______ _______ _____ _____    ______ ____
ROOT
ATOM      1  C   UNL     1       2.206   4.643  19.323  0.00  0.00    +0.000 A 
ATOM      2  C   UNL     1       1.646   4.274  20.563  0.00  0.00    +0.000 A 
ATOM      3  C   UNL     1       1.071   3.016  20.752  0.00  0.00    +0.000 A 
ATOM      4  C   UNL     1       1.088   2.090  19.721  0.00  0.00    +0.000 A 
ATOM      5  C   UNL     1       1.691   2.415  18.506  0.00  0.00    +0.000 A 
ATOM      6  C   UNL     1       2.235   3.694  18.279  0.00  0.00    +0.000 A 
ENDROOT
BRANCH   1   8
ATOM      7  O   UNL     1       3.762   6.416  19.753  0.00  0.00    +0.000 OA
ATOM      8  C   UNL     1       2.747   6.041  19.181  0.00  0.00    +0.000 C 
ATOM      9  N   UNL     1       2.002   6.882  18.368  0.00  0.00    +0.000 N 
ATOM     10  H   UNL     1       1.240   6.517  17.810  0.00  0.00    +0.000 HD
BRANCH   9  11
ATOM     11  C   UNL     1       2.344   8.276  18.162  0.00  0.00    +0.000 C 
BRANCH  11  12
ATOM     12  C   UNL     1       1.233   9.142  18.655  0.00  0.00    +0.000 A 
ATOM     13  N   UNL     1       0.393   9.852  17.918  0.00  0.00    +0.000 NA
ATOM     14  N   UNL     1      -0.486  10.498  18.757  0.00  0.00    +0.000 NA
ATOM     15  C   UNL     1      -0.174  10.178  19.993  0.00  0.00    +0.000 A 
ATOM     16  C   UNL     1      -0.732  10.538  21.252  0.00  0.00    +0.000 A 
ATOM     17  C   UNL     1      -0.183  10.055  22.385  0.00  0.00    +0.000 A 
ATOM     18  C   UNL     1       0.974   9.169  22.351  0.00  0.00    +0.000 A 
ATOM     19  C   UNL     1       1.495   8.820  21.158  0.00  0.00    +0.000 A 
ATOM     20  N   UNL     1       0.922   9.323  19.991  0.00  0.00    +0.000 N 
ENDBRANCH  11  12
ENDBRANCH   9  11
ENDBRANCH   1   8
BRANCH   6  21
ATOM     21  O   UNL     1       2.772   4.054  17.068  0.00  0.00    +0.000 OA
BRANCH  21  22
ATOM     22  C   UNL     1       4.119   3.634  16.817  0.00  0.00    +0.000 C 
BRANCH  22  23
ATOM     23  C   UNL     1       5.135   4.697  17.168  0.00  0.00    +0.000 A 
ATOM     24  C   UNL     1       5.195   5.920  16.488  0.00  0.00    +0.000 A 
ATOM     25  C   UNL     1       6.159   6.870  16.830  0.00  0.00    +0.000 A 
ATOM     26  C   UNL     1       7.061   6.609  17.857  0.00  0.00    +0.000 A 
ATOM     27 CL   UNL     1       8.256   7.776  18.265  0.00  0.00    +0.000 Cl
ATOM     28  C   UNL     1       7.003   5.406  18.558  0.00  0.00    +0.000 A 
ATOM     29  C   UNL     1       6.040   4.454  18.217  0.00  0.00    +0.000 A 
ENDBRANCH  22  23
ENDBRANCH  21  22
ENDBRANCH   6  21
TORSDOF 6
ENDMDL
MODEL 2
REMARK VINA RESULT:      -8.1      2.246      3.152
REMARK  Name = 
REMARK  6 active torsions:
REMARK  status: ('A' for Active; 'I' for Inactive)
REMARK    1  A    between atoms: C_2  and  C_14
REMARK    2  A    between atoms: N_3  and  C_4
REMARK    3  A    between atoms: C_4  and  C_5
REMARK    4  A    between atoms: C_19  and  O_20
REMARK    5  A    between atoms: O_20  and  C_21
REMARK    6  A    between atoms: C_21  and  C_22
REMARK                            x       y       z     vdW  Elec       q    Type
REMARK                         _______ _______ _______ _____ _____    ______ ____
ROOT
ATOM      1  C   UNL     1       2.382   5.572  20.009  0.00  0.00    +0.000 A 
ATOM      2  C   UNL     1       1.275   4.890  20.554  0.00  0.00    +0.000 A 
ATOM      3  C   UNL     1       1.340   3.528  20.852  0.00  0.00    +0.000 A 
ATOM      4  C   UNL     1       2.524   2.835  20.655  0.00  0.00    +0.000 A 
ATOM      5  C   UNL     1       3.648   3.506  20.172  0.00  0.00    +0.000 A 
ATOM      6  C   UNL     1       3.591   4.869  19.822  0.00  0.00    +0.000 A 
ENDROOT
BRANCH   1   8
ATOM      7  O   UNL     1       2.639   7.505  18.613  0.00  0.00    +0.000 OA
ATOM      8  C   UNL     1       2.210   7.025  19.655  0.00  0.00    +0.000 C 
ATOM      9  N   UNL     1       1.546   7.789  20.602  0.00  0.00    +0.000 N 
ATOM     10  H   UNL     1       1.094   7.349  21.394  0.00  0.00    +0.000 HD
BRANCH   9  11
ATOM     11  C   UNL     1       1.339   9.217  20.452  0.00  0.00    +0.000 C 
BRANCH  11  12
ATOM     12  C   UNL     1       0.573   9.737  21.623  0.00  0.00    +0.000 A 
ATOM     13  N   UNL     1       0.719   9.379  22.889  0.00  0.00    +0.000 NA
ATOM     14  N   UNL     1      -0.167  10.103  23.653  0.00  0.00    +0.000 NA
ATOM     15  C   UNL     1      -0.844  10.892  22.848  0.00  0.00    +0.000 A 
ATOM     16  C   UNL     1      -1.871  11.851  23.077  0.00  0.00    +0.000 A 
ATOM     17  C   UNL     1      -2.401  12.519  22.032  0.00  0.00    +0.000 A 
ATOM     18  C   UNL     1      -1.945  12.282  20.669  0.00  0.00    +0.000 A 
ATOM     19  C   UNL     1      -0.965  11.382  20.454  0.00  0.00    +0.000 A 
ATOM     20  N   UNL     1      -0.421  10.695  21.539  0.00  0.00    +0.000 N 
ENDBRANCH  11  12
ENDBRANCH   9  11
ENDBRANCH   1   8
BRANCH   6  21
ATOM     21  O   UNL     1       4.667   5.529  19.283  0.00  0.00    +0.000 OA
BRANCH  21  22
ATOM     22  C   UNL     1       5.814   4.729  18.968  0.00  0.00    +0.000 C 
BRANCH  22  23
ATOM     23  C   UNL     1       5.999   4.538  17.480  0.00  0.00    +0.000 A 
ATOM     24  C   UNL     1       7.168   4.936  16.820  0.00  0.00    +0.000 A 
ATOM     25  C   UNL     1       7.295   4.759  15.440  0.00  0.00    +0.000 A 
ATOM     26  C   UNL     1       6.259   4.175  14.715  0.00  0.00    +0.000 A 
ATOM     27 CL   UNL     1       6.414   3.972  13.015  0.00  0.00    +0.000 Cl
ATOM     28  C   UNL     1       5.097   3.754  15.359  0.00  0.00    +0.000 A 
ATOM     29  C   UNL     1       4.970   3.931  16.738  0.00  0.00    +0.000 A 
ENDBRANCH  22  23
ENDBRANCH  21  22
ENDBRANCH   6  21
TORSDOF 6
ENDMDL
MODEL 3
REMARK VINA RESULT:      -8.1      3.301      6.218
REMARK  Name = 
REMARK  6 active torsions:
REMARK  status: ('A' for Active; 'I' for Inactive)
REMARK    1  A    between atoms: C_2  and  C_14
REMARK    2  A    between atoms: N_3  and  C_4
REMARK    3  A    between atoms: C_4  and  C_5
REMARK    4  A    between atoms: C_19  and  O_20
REMARK    5  A    between atoms: O_20  and  C_21
REMARK    6  A    between atoms: C_21  and  C_22
REMARK                            x       y       z     vdW  Elec       q    Type
REMARK                         _______ _______ _______ _____ _____    ______ ____
ROOT
ATOM      1  C   UNL     1       6.520   5.843  18.234  0.00  0.00    +0.000 A 
ATOM      2  C   UNL     1       7.727   6.118  18.911  0.00  0.00    +0.000 A 
ATOM      3  C   UNL     1       8.457   7.277  18.645  0.00  0.00    +0.000 A 
ATOM      4  C   UNL     1       7.973   8.203  17.734  0.00  0.00    +0.000 A 
ATOM      5  C   UNL     1       6.752   7.977  17.099  0.00  0.00    +0.000 A 
ATOM      6  C   UNL     1       6.022   6.793  17.318  0.00  0.00    +0.000 A 
ENDROOT
BRANCH   1   8
ATOM      7  O   UNL     1       5.820   4.036  19.645  0.00  0.00    +0.000 OA
ATOM      8  C   UNL     1       5.826   4.541  18.530  0.00  0.00    +0.000 C 
ATOM      9  N   UNL     1       5.207   3.942  17.444  0.00  0.00    +0.000 N 
ATOM     10  H   UNL     1       5.120   4.435  16.564  0.00  0.00    +0.000 HD
BRANCH   9  11
ATOM     11  C   UNL     1       4.538   2.658  17.533  0.00  0.00    +0.000 C 
BRANCH  11  12
ATOM     12  C   UNL     1       3.115   2.862  17.934  0.00  0.00    +0.000 A 
ATOM     13  N   UNL     1       2.091   3.104  17.131  0.00  0.00    +0.000 NA
ATOM     14  N   UNL     1       0.952   3.214  17.895  0.00  0.00    +0.000 NA
ATOM     15  C   UNL     1       1.291   3.042  19.153  0.00  0.00    +0.000 A 
ATOM     16  C   UNL     1       0.541   3.043  20.363  0.00  0.00    +0.000 A 
ATOM     17  C   UNL     1       1.173   2.846  21.537  0.00  0.00    +0.000 A 
ATOM     18  C   UNL     1       2.613   2.631  21.598  0.00  0.00    +0.000 A 
ATOM     19  C   UNL     1       3.321   2.619  20.452  0.00  0.00    +0.000 A 
ATOM     20  N   UNL     1       2.661   2.823  19.240  0.00  0.00    +0.000 N 
ENDBRANCH  11  12
ENDBRANCH   9  11
ENDBRANCH   1   8
BRANCH   6  21
ATOM     21  O   UNL     1       4.852   6.524  16.651  0.00  0.00    +0.000 OA
BRANCH  21  22
ATOM     22  C   UNL     1       3.922   7.608  16.531  0.00  0.00    +0.000 C 
BRANCH  22  23
ATOM     23  C   UNL     1       3.055   7.768  17.759  0.00  0.00    +0.000 A 
ATOM     24  C   UNL     1       2.312   8.931  17.997  0.00  0.00    +0.000 A 
ATOM     25  C   UNL     1       1.536   9.049  19.152  0.00  0.00    +0.000 A 
ATOM     26  C   UNL     1       1.491   8.004  20.070  0.00  0.00    +0.000 A 
ATOM     27 CL   UNL     1       0.546   8.159  21.498  0.00  0.00    +0.000 Cl
ATOM     28  C   UNL     1       2.208   6.831  19.840  0.00  0.00    +0.000 A 
ATOM     29  C   UNL     1       2.984   6.712  18.686  0.00  0.00    +0.000 A 
ENDBRANCH  22  23
ENDBRANCH  21  22
ENDBRANCH   6  21
TORSDOF 6
ENDMDL
MODEL 4
REMARK VINA RESULT:      -8.0      3.270      6.012
REMARK  Name = 
REMARK  6 active torsions:
REMARK  status: ('A' for Active; 'I' for Inactive)
REMARK    1  A    between atoms: C_2  and  C_14
REMARK    2  A    between atoms: N_3  and  C_4
REMARK    3  A    between atoms: C_4  and  C_5
REMARK    4  A    between atoms: C_19  and  O_20
REMARK    5  A    between atoms: O_20  and  C_21
REMARK    6  A    between atoms: C_21  and  C_22
REMARK                            x       y       z     vdW  Elec       q    Type
REMARK                         _______ _______ _______ _____ _____    ______ ____
ROOT
ATOM      1  C   UNL     1       3.116   3.327  19.748  0.00  0.00    +0.000 A 
ATOM      2  C   UNL     1       2.980   2.316  20.721  0.00  0.00    +0.000 A 
ATOM      3  C   UNL     1       1.862   2.260  21.554  0.00  0.00    +0.000 A 
ATOM      4  C   UNL     1       0.840   3.183  21.399  0.00  0.00    +0.000 A 
ATOM      5  C   UNL     1       0.929   4.155  20.401  0.00  0.00    +0.000 A 
ATOM      6  C   UNL     1       2.069   4.258  19.581  0.00  0.00    +0.000 A 
ENDROOT
BRANCH   1   8
ATOM      7  O   UNL     1       5.493   3.258  19.439  0.00  0.00    +0.000 OA
ATOM      8  C   UNL     1       4.383   3.357  18.934  0.00  0.00    +0.000 C 
ATOM      9  N   UNL     1       4.203   3.523  17.569  0.00  0.00    +0.000 N 
ATOM     10  H   UNL     1       3.277   3.479  17.162  0.00  0.00    +0.000 HD
BRANCH   9  11
ATOM     11  C   UNL     1       5.312   3.629  16.641  0.00  0.00    +0.000 C 
BRANCH  11  12
ATOM     12  C   UNL     1       5.683   5.064  16.466  0.00  0.00    +0.000 A 
ATOM     13  N   UNL     1       5.220   5.898  15.548  0.00  0.00    +0.000 NA
ATOM     14  N   UNL     1       5.804   7.129  15.741  0.00  0.00    +0.000 NA
ATOM     15  C   UNL     1       6.617   7.034  16.769  0.00  0.00    +0.000 A 
ATOM     16  C   UNL     1       7.467   7.975  17.416  0.00  0.00    +0.000 A 
ATOM     17  C   UNL     1       8.214   7.583  18.467  0.00  0.00    +0.000 A 
ATOM     18  C   UNL     1       8.172   6.212  18.959  0.00  0.00    +0.000 A 
ATOM     19  C   UNL     1       7.360   5.324  18.353  0.00  0.00    +0.000 A 
ATOM     20  N   UNL     1       6.589   5.737  17.267  0.00  0.00    +0.000 N 
ENDBRANCH  11  12
ENDBRANCH   9  11
ENDBRANCH   1   8
BRANCH   6  21
ATOM     21  O   UNL     1       2.203   5.248  18.640  0.00  0.00    +0.000 OA
BRANCH  21  22
ATOM     22  C   UNL     1       2.992   6.384  19.017  0.00  0.00    +0.000 C 
BRANCH  22  23
ATOM     23  C   UNL     1       2.172   7.649  19.129  0.00  0.00    +0.000 A 
ATOM     24  C   UNL     1       1.632   8.078  20.348  0.00  0.00    +0.000 A 
ATOM     25  C   UNL     1       0.865   9.244  20.409  0.00  0.00    +0.000 A 
ATOM     26  C   UNL     1       0.642   9.992  19.256  0.00  0.00    +0.000 A 
ATOM     27 CL   UNL     1      -0.314  11.419  19.332  0.00  0.00    +0.000 Cl
ATOM     28  C   UNL     1       1.190   9.592  18.039  0.00  0.00    +0.000 A 
ATOM     29  C   UNL     1       1.956   8.426  17.977  0.00  0.00    +0.000 A 
ENDBRANCH  22  23
ENDBRANCH  21  22
ENDBRANCH   6  21
TORSDOF 6
ENDMDL
MODEL 5
REMARK VINA RESULT:      -7.8      1.351      2.099
REMARK  Name = 
REMARK  6 active torsions:
REMARK  status: ('A' for Active; 'I' for Inactive)
REMARK    1  A    between atoms: C_2  and  C_14
REMARK    2  A    between atoms: N_3  and  C_4
REMARK    3  A    between atoms: C_4  and  C_5
REMARK    4  A    between atoms: C_19  and  O_20
REMARK    5  A    between atoms: O_20  and  C_21
REMARK    6  A    between atoms: C_21  and  C_22
REMARK                            x       y       z     vdW  Elec       q    Type
REMARK                         _______ _______ _______ _____ _____    ______ ____
ROOT
ATOM      1  C   UNL     1       2.094   5.072  19.675  0.00  0.00    +0.000 A 
ATOM      2  C   UNL     1       1.685   4.660  20.960  0.00  0.00    +0.000 A 
ATOM      3  C   UNL     1       1.469   3.312  21.253  0.00  0.00    +0.000 A 
ATOM      4  C   UNL     1       1.702   2.350  20.283  0.00  0.00    +0.000 A 
ATOM      5  C   UNL     1       2.165   2.733  19.024  0.00  0.00    +0.000 A 
ATOM      6  C   UNL     1       2.345   4.090  18.693  0.00  0.00    +0.000 A 
ENDROOT
BRANCH   1   8
ATOM      7  O   UNL     1       2.973   6.997  18.548  0.00  0.00    +0.000 OA
ATOM      8  C   UNL     1       2.242   6.548  19.421  0.00  0.00    +0.000 C 
ATOM      9  N   UNL     1       1.503   7.368  20.260  0.00  0.00    +0.000 N 
ATOM     10  H   UNL     1       0.815   6.974  20.890  0.00  0.00    +0.000 HD
BRANCH   9  11
ATOM     11  C   UNL     1       1.565   8.815  20.195  0.00  0.00    +0.000 C 
BRANCH  11  12
ATOM     12  C   UNL     1       0.889   9.400  21.390  0.00  0.00    +0.000 A 
ATOM     13  N   UNL     1       1.118   9.098  22.658  0.00  0.00    +0.000 NA
ATOM     14  N   UNL     1       0.296   9.869  23.448  0.00  0.00    +0.000 NA
ATOM     15  C   UNL     1      -0.427  10.629  22.656  0.00  0.00    +0.000 A 
ATOM     16  C   UNL     1      -1.424  11.613  22.910  0.00  0.00    +0.000 A 
ATOM     17  C   UNL     1      -2.018  12.240  21.875  0.00  0.00    +0.000 A 
ATOM     18  C   UNL     1      -1.661  11.934  20.495  0.00  0.00    +0.000 A 
ATOM     19  C   UNL     1      -0.709  11.011  20.255  0.00  0.00    +0.000 A 
ATOM     20  N   UNL     1      -0.098  10.367  21.331  0.00  0.00    +0.000 N 
ENDBRANCH  11  12
ENDBRANCH   9  11
ENDBRANCH   1   8
BRANCH   6  21
ATOM     21  O   UNL     1       2.734   4.489  17.438  0.00  0.00    +0.000 OA
BRANCH  21  22
ATOM     22  C   UNL     1       4.020   4.036  16.995  0.00  0.00    +0.000 C 
BRANCH  22  23
ATOM     23  C   UNL     1       5.133   4.986  17.375  0.00  0.00    +0.000 A 
ATOM     24  C   UNL     1       5.480   6.081  16.574  0.00  0.00    +0.000 A 
ATOM     25  C   UNL     1       6.527   6.927  16.949  0.00  0.00    +0.000 A 
ATOM     26  C   UNL     1       7.224   6.689  18.130  0.00  0.00    +0.000 A 
ATOM     27 CL   UNL     1       8.521   7.724  18.582  0.00  0.00    +0.000 Cl
ATOM     28  C   UNL     1       6.879   5.616  18.950  0.00  0.00    +0.000 A 
ATOM     29  C   UNL     1       5.834   4.770  18.575  0.00  0.00    +0.000 A 
ENDBRANCH  22  23
ENDBRANCH  21  22
ENDBRANCH   6  21
TORSDOF 6
ENDMDL
MODEL 6
REMARK VINA RESULT:      -7.8      0.963      1.702
REMARK  Name = 
REMARK  6 active torsions:
REMARK  status: ('A' for Active; 'I' for Inactive)
REMARK    1  A    between atoms: C_2  and  C_14
REMARK    2  A    between atoms: N_3  and  C_4
REMARK    3  A    between atoms: C_4  and  C_5
REMARK    4  A    between atoms: C_19  and  O_20
REMARK    5  A    between atoms: O_20  and  C_21
REMARK    6  A    between atoms: C_21  and  C_22
REMARK                            x       y       z     vdW  Elec       q    Type
REMARK                         _______ _______ _______ _____ _____    ______ ____
ROOT
ATOM      1  C   UNL     1       2.511   4.347  18.929  0.00  0.00    +0.000 A 
ATOM      2  C   UNL     1       1.789   3.769  19.994  0.00  0.00    +0.000 A 
ATOM      3  C   UNL     1       1.322   2.456  19.921  0.00  0.00    +0.000 A 
ATOM      4  C   UNL     1       1.607   1.684  18.806  0.00  0.00    +0.000 A 
ATOM      5  C   UNL     1       2.371   2.219  17.769  0.00  0.00    +0.000 A 
ATOM      6  C   UNL     1       2.813   3.556  17.801  0.00  0.00    +0.000 A 
ENDROOT
BRANCH   1   8
ATOM      7  O   UNL     1       3.910   6.139  19.692  0.00  0.00    +0.000 OA
ATOM      8  C   UNL     1       2.923   5.789  19.058  0.00  0.00    +0.000 C 
ATOM      9  N   UNL     1       2.095   6.699  18.419  0.00  0.00    +0.000 N 
ATOM     10  H   UNL     1       1.359   6.380  17.801  0.00  0.00    +0.000 HD
BRANCH   9  11
ATOM     11  C   UNL     1       2.308   8.132  18.483  0.00  0.00    +0.000 C 
BRANCH  11  12
ATOM     12  C   UNL     1       1.522   8.705  19.616  0.00  0.00    +0.000 A 
ATOM     13  N   UNL     1       1.584   8.342  20.888  0.00  0.00    +0.000 NA
ATOM     14  N   UNL     1       0.711   9.125  21.608  0.00  0.00    +0.000 NA
ATOM     15  C   UNL     1       0.126   9.953  20.772  0.00  0.00    +0.000 A 
ATOM     16  C   UNL     1      -0.845  10.978  20.951  0.00  0.00    +0.000 A 
ATOM     17  C   UNL     1      -1.280  11.676  19.883  0.00  0.00    +0.000 A 
ATOM     18  C   UNL     1      -0.775  11.406  18.542  0.00  0.00    +0.000 A 
ATOM     19  C   UNL     1       0.153  10.443  18.375  0.00  0.00    +0.000 A 
ATOM     20  N   UNL     1       0.598   9.725  19.485  0.00  0.00    +0.000 N 
ENDBRANCH  11  12
ENDBRANCH   9  11
ENDBRANCH   1   8
BRANCH   6  21
ATOM     21  O   UNL     1       3.508   4.119  16.760  0.00  0.00    +0.000 OA
BRANCH  21  22
ATOM     22  C   UNL     1       4.903   3.801  16.678  0.00  0.00    +0.000 C 
BRANCH  22  23
ATOM     23  C   UNL     1       5.786   4.945  17.122  0.00  0.00    +0.000 A 
ATOM     24  C   UNL     1       5.629   6.243  16.620  0.00  0.00    +0.000 A 
ATOM     25  C   UNL     1       6.477   7.270  17.042  0.00  0.00    +0.000 A 
ATOM     26  C   UNL     1       7.478   7.008  17.973  0.00  0.00    +0.000 A 
ATOM     27 CL   UNL     1       8.528   8.272  18.479  0.00  0.00    +0.000 Cl
ATOM     28  C   UNL     1       7.635   5.727  18.499  0.00  0.00    +0.000 A 
ATOM     29  C   UNL     1       6.789   4.700  18.077  0.00  0.00    +0.000 A 
ENDBRANCH  22  23
ENDBRANCH  21  22
ENDBRANCH   6  21
TORSDOF 6
ENDMDL
MODEL 7
REMARK VINA RESULT:      -7.7      3.328      6.043
REMARK  Name = 
REMARK  6 active torsions:
REMARK  status: ('A' for Active; 'I' for Inactive)
REMARK    1  A    between atoms: C_2  and  C_14
REMARK    2  A    between atoms: N_3  and  C_4
REMARK    3  A    between atoms: C_4  and  C_5
REMARK    4  A    between atoms: C_19  and  O_20
REMARK    5  A    between atoms: O_20  and  C_21
REMARK    6  A    between atoms: C_21  and  C_22
REMARK                            x       y       z     vdW  Elec       q    Type
REMARK                         _______ _______ _______ _____ _____    ______ ____
ROOT
ATOM      1  C   UNL     1       2.950   3.312  19.143  0.00  0.00    +0.000 A 
ATOM      2  C   UNL     1       2.215   2.116  19.014  0.00  0.00    +0.000 A 
ATOM      3  C   UNL     1       0.959   1.972  19.605  0.00  0.00    +0.000 A 
ATOM      4  C   UNL     1       0.395   3.034  20.294  0.00  0.00    +0.000 A 
ATOM      5  C   UNL     1       1.082   4.246  20.381  0.00  0.00    +0.000 A 
ATOM      6  C   UNL     1       2.370   4.397  19.833  0.00  0.00    +0.000 A 
ENDROOT
BRANCH   1   8
ATOM      7  O   UNL     1       5.347   3.278  19.201  0.00  0.00    +0.000 OA
ATOM      8  C   UNL     1       4.325   3.365  18.533  0.00  0.00    +0.000 C 
ATOM      9  N   UNL     1       4.354   3.535  17.157  0.00  0.00    +0.000 N 
ATOM     10  H   UNL     1       3.502   3.480  16.613  0.00  0.00    +0.000 HD
BRANCH   9  11
ATOM     11  C   UNL     1       5.590   3.662  16.409  0.00  0.00    +0.000 C 
BRANCH  11  12
ATOM     12  C   UNL     1       5.977   5.101  16.322  0.00  0.00    +0.000 A 
ATOM     13  N   UNL     1       5.611   5.965  15.387  0.00  0.00    +0.000 NA
ATOM     14  N   UNL     1       6.171   7.188  15.680  0.00  0.00    +0.000 NA
ATOM     15  C   UNL     1       6.872   7.058  16.784  0.00  0.00    +0.000 A 
ATOM     16  C   UNL     1       7.648   7.975  17.547  0.00  0.00    +0.000 A 
ATOM     17  C   UNL     1       8.282   7.547  18.657  0.00  0.00    +0.000 A 
ATOM     18  C   UNL     1       8.190   6.160  19.097  0.00  0.00    +0.000 A 
ATOM     19  C   UNL     1       7.446   5.295  18.381  0.00  0.00    +0.000 A 
ATOM     20  N   UNL     1       6.792   5.745  17.234  0.00  0.00    +0.000 N 
ENDBRANCH  11  12
ENDBRANCH   9  11
ENDBRANCH   1   8
BRANCH   6  21
ATOM     21  O   UNL     1       3.087   5.560  19.968  0.00  0.00    +0.000 OA
BRANCH  21  22
ATOM     22  C   UNL     1       3.103   6.435  18.832  0.00  0.00    +0.000 C 
BRANCH  22  23
ATOM     23  C   UNL     1       2.238   7.659  19.030  0.00  0.00    +0.000 A 
ATOM     24  C   UNL     1       1.910   8.515  17.971  0.00  0.00    +0.000 A 
ATOM     25  C   UNL     1       1.123   9.646  18.196  0.00  0.00    +0.000 A 
ATOM     26  C   UNL     1       0.651   9.923  19.476  0.00  0.00    +0.000 A 
ATOM     27 CL   UNL     1      -0.306  11.324  19.752  0.00  0.00    +0.000 Cl
ATOM     28  C   UNL     1       0.950   9.071  20.538  0.00  0.00    +0.000 A 
ATOM     29  C   UNL     1       1.738   7.940  20.314  0.00  0.00    +0.000 A 
ENDBRANCH  22  23
ENDBRANCH  21  22
ENDBRANCH   6  21
TORSDOF 6
ENDMDL
MODEL 8
REMARK VINA RESULT:      -7.7      4.870      7.359
REMARK  Name = 
REMARK  6 active torsions:
REMARK  status: ('A' for Active; 'I' for Inactive)
REMARK    1  A    between atoms: C_2  and  C_14
REMARK    2  A    between atoms: N_3  and  C_4
REMARK    3  A    between atoms: C_4  and  C_5
REMARK    4  A    between atoms: C_19  and  O_20
REMARK    5  A    between atoms: O_20  and  C_21
REMARK    6  A    between atoms: C_21  and  C_22
REMARK                            x       y       z     vdW  Elec       q    Type
REMARK                         _______ _______ _______ _____ _____    ______ ____
ROOT
ATOM      1  C   UNL     1       6.930   6.178  16.932  0.00  0.00    +0.000 A 
ATOM      2  C   UNL     1       7.627   5.337  16.040  0.00  0.00    +0.000 A 
ATOM      3  C   UNL     1       6.963   4.655  15.020  0.00  0.00    +0.000 A 
ATOM      4  C   UNL     1       5.600   4.836  14.844  0.00  0.00    +0.000 A 
ATOM      5  C   UNL     1       4.903   5.709  15.679  0.00  0.00    +0.000 A 
ATOM      6  C   UNL     1       5.545   6.372  16.743  0.00  0.00    +0.000 A 
ENDROOT
BRANCH   1   8
ATOM      7  O   UNL     1       8.031   6.224  19.061  0.00  0.00    +0.000 OA
ATOM      8  C   UNL     1       7.709   6.826  18.045  0.00  0.00    +0.000 C 
ATOM      9  N   UNL     1       8.021   8.162  17.847  0.00  0.00    +0.000 N 
ATOM     10  H   UNL     1       7.853   8.603  16.950  0.00  0.00    +0.000 HD
BRANCH   9  11
ATOM     11  C   UNL     1       8.718   8.959  18.837  0.00  0.00    +0.000 C 
BRANCH  11  12
ATOM     12  C   UNL     1       8.771  10.382  18.388  0.00  0.00    +0.000 A 
ATOM     13  N   UNL     1       7.967  10.969  17.516  0.00  0.00    +0.000 NA
ATOM     14  N   UNL     1       8.343  12.286  17.391  0.00  0.00    +0.000 NA
ATOM     15  C   UNL     1       9.372  12.489  18.184  0.00  0.00    +0.000 A 
ATOM     16  C   UNL     1      10.160  13.641  18.466  0.00  0.00    +0.000 A 
ATOM     17  C   UNL     1      11.185  13.548  19.337  0.00  0.00    +0.000 A 
ATOM     18  C   UNL     1      11.508  12.290  19.999  0.00  0.00    +0.000 A 
ATOM     19  C   UNL     1      10.755  11.203  19.740  0.00  0.00    +0.000 A 
ATOM     20  N   UNL     1       9.696  11.306  18.839  0.00  0.00    +0.000 N 
ENDBRANCH  11  12
ENDBRANCH   9  11
ENDBRANCH   1   8
BRANCH   6  21
ATOM     21  O   UNL     1       4.862   7.182  17.615  0.00  0.00    +0.000 OA
BRANCH  21  22
ATOM     22  C   UNL     1       3.432   7.141  17.538  0.00  0.00    +0.000 C 
BRANCH  22  23
ATOM     23  C   UNL     1       2.835   6.043  18.389  0.00  0.00    +0.000 A 
ATOM     24  C   UNL     1       2.083   5.000  17.835  0.00  0.00    +0.000 A 
ATOM     25  C   UNL     1       1.533   4.013  18.656  0.00  0.00    +0.000 A 
ATOM     26  C   UNL     1       1.740   4.057  20.032  0.00  0.00    +0.000 A 
ATOM     27 CL   UNL     1       1.050   2.848  21.041  0.00  0.00    +0.000 Cl
ATOM     28  C   UNL     1       2.504   5.076  20.598  0.00  0.00    +0.000 A 
ATOM     29  C   UNL     1       3.053   6.064  19.779  0.00  0.00    +0.000 A 
ENDBRANCH  22  23
ENDBRANCH  21  22
ENDBRANCH   6  21
TORSDOF 6
ENDMDL
MODEL 9
REMARK VINA RESULT:      -7.7      2.325      4.460
REMARK  Name = 
REMARK  6 active torsions:
REMARK  status: ('A' for Active; 'I' for Inactive)
REMARK    1  A    between atoms: C_2  and  C_14
REMARK    2  A    between atoms: N_3  and  C_4
REMARK    3  A    between atoms: C_4  and  C_5
REMARK    4  A    between atoms: C_19  and  O_20
REMARK    5  A    between atoms: O_20  and  C_21
REMARK    6  A    between atoms: C_21  and  C_22
REMARK                            x       y       z     vdW  Elec       q    Type
REMARK                         _______ _______ _______ _____ _____    ______ ____
ROOT
ATOM      1  C   UNL     1       5.494   5.283  17.080  0.00  0.00    +0.000 A 
ATOM      2  C   UNL     1       6.754   5.842  16.786  0.00  0.00    +0.000 A 
ATOM      3  C   UNL     1       7.452   5.487  15.631  0.00  0.00    +0.000 A 
ATOM      4  C   UNL     1       6.883   4.604  14.726  0.00  0.00    +0.000 A 
ATOM      5  C   UNL     1       5.611   4.086  14.970  0.00  0.00    +0.000 A 
ATOM      6  C   UNL     1       4.910   4.395  16.152  0.00  0.00    +0.000 A 
ENDROOT
BRANCH   1   8
ATOM      7  O   UNL     1       5.385   5.525  19.463  0.00  0.00    +0.000 OA
ATOM      8  C   UNL     1       4.836   5.668  18.378  0.00  0.00    +0.000 C 
ATOM      9  N   UNL     1       3.554   6.182  18.261  0.00  0.00    +0.000 N 
ATOM     10  H   UNL     1       3.170   6.406  17.351  0.00  0.00    +0.000 HD
BRANCH   9  11
ATOM     11  C   UNL     1       2.751   6.554  19.409  0.00  0.00    +0.000 C 
BRANCH  11  12
ATOM     12  C   UNL     1       2.084   7.864  19.151  0.00  0.00    +0.000 A 
ATOM     13  N   UNL     1       2.046   8.522  18.002  0.00  0.00    +0.000 NA
ATOM     14  N   UNL     1       1.321   9.677  18.184  0.00  0.00    +0.000 NA
ATOM     15  C   UNL     1       0.927   9.714  19.438  0.00  0.00    +0.000 A 
ATOM     16  C   UNL     1       0.154  10.653  20.178  0.00  0.00    +0.000 A 
ATOM     17  C   UNL     1      -0.089  10.429  21.485  0.00  0.00    +0.000 A 
ATOM     18  C   UNL     1       0.423   9.243  22.161  0.00  0.00    +0.000 A 
ATOM     19  C   UNL     1       1.145   8.350  21.457  0.00  0.00    +0.000 A 
ATOM     20  N   UNL     1       1.392   8.587  20.105  0.00  0.00    +0.000 N 
ENDBRANCH  11  12
ENDBRANCH   9  11
ENDBRANCH   1   8
BRANCH   6  21
ATOM     21  O   UNL     1       3.686   3.842  16.440  0.00  0.00    +0.000 OA
BRANCH  21  22
ATOM     22  C   UNL     1       3.700   2.556  17.073  0.00  0.00    +0.000 C 
BRANCH  22  23
ATOM     23  C   UNL     1       3.001   2.561  18.413  0.00  0.00    +0.000 A 
ATOM     24  C   UNL     1       1.615   2.719  18.528  0.00  0.00    +0.000 A 
ATOM     25  C   UNL     1       1.007   2.736  19.785  0.00  0.00    +0.000 A 
ATOM     26  C   UNL     1       1.780   2.585  20.933  0.00  0.00    +0.000 A 
ATOM     27 CL   UNL     1       1.030   2.620  22.480  0.00  0.00    +0.000 Cl
ATOM     28  C   UNL     1       3.159   2.405  20.837  0.00  0.00    +0.000 A 
ATOM     29  C   UNL     1       3.767   2.389  19.581  0.00  0.00    +0.000 A 
ENDBRANCH  22  23
ENDBRANCH  21  22
ENDBRANCH   6  21
TORSDOF 6
ENDMDL
