MODEL 1
REMARK VINA RESULT:      -8.4      0.000      0.000
REMARK  Name = 
REMARK  9 active torsions:
REMARK  status: ('A' for Active; 'I' for Inactive)
REMARK    1  A    between atoms: C_1  and  C_2
REMARK    2  A    between atoms: C_2  and  C_3
REMARK    3  A    between atoms: N_7  and  C_8
REMARK    4  A    between atoms: C_8  and  C_9
REMARK    5  A    between atoms: C_13  and  N_14
REMARK    6  A    between atoms: C_19  and  C_20
REMARK    7  A    between atoms: C_20  and  C_21
REMARK    8  A    between atoms: C_20  and  O_22
REMARK    9  A    between atoms: C_24  and  C_25
REMARK                            x       y       z     vdW  Elec       q    Type
REMARK                         _______ _______ _______ _____ _____    ______ ____
ROOT
ATOM      1  N   UNL     1       3.166   3.816  19.337  0.00  0.00    +0.000 N 
ATOM      2  C   UNL     1       4.556   4.114  19.672  0.00  0.00    +0.000 C 
ATOM      3  C   UNL     1       5.228   4.148  18.334  0.00  0.00    +0.000 A 
ATOM      4  C   UNL     1       4.448   3.422  17.440  0.00  0.00    +0.000 A 
ATOM      5  C   UNL     1       4.656   3.439  16.069  0.00  0.00    +0.000 A 
ATOM      6  C   UNL     1       5.734   4.193  15.582  0.00  0.00    +0.000 A 
ATOM      7  C   UNL     1       6.560   4.887  16.499  0.00  0.00    +0.000 A 
ATOM      8  C   UNL     1       6.323   4.870  17.890  0.00  0.00    +0.000 A 
ATOM      9  C   UNL     1       3.239   2.990  18.159  0.00  0.00    +0.000 C 
ATOM     10  O   UNL     1       2.421   2.217  17.700  0.00  0.00    +0.000 OA
ENDROOT
BRANCH   1  15
ATOM     11  C   UNL     1       2.106   7.155  20.049  0.00  0.00    +0.000 A 
ATOM     12  C   UNL     1       2.749   7.619  18.895  0.00  0.00    +0.000 A 
ATOM     13  C   UNL     1       2.806   6.843  17.745  0.00  0.00    +0.000 A 
ATOM     14  C   UNL     1       2.458   5.505  17.807  0.00  0.00    +0.000 A 
ATOM     15  C   UNL     1       2.269   4.941  19.066  0.00  0.00    +0.000 A 
ATOM     16  C   UNL     1       1.860   5.774  20.134  0.00  0.00    +0.000 A 
BRANCH  11  17
ATOM     17  C   UNL     1       1.709   8.136  21.155  0.00  0.00    +0.000 C 
BRANCH  17  22
ATOM     18  C   UNL     1      -0.061   9.814  20.516  0.00  0.00    +0.000 C 
ATOM     19  C   UNL     1       0.060  10.739  21.732  0.00  0.00    +0.000 C 
ATOM     20  C   UNL     1      -0.578   9.925  22.834  0.00  0.00    +0.000 C 
ATOM     21  C   UNL     1      -0.369   8.484  22.409  0.00  0.00    +0.000 C 
ATOM     22  N   UNL     1       0.277   8.497  21.074  0.00  0.00    +0.000 NA
BRANCH  18  24
ATOM     23  C   UNL     1       0.041   9.936  17.976  0.00  0.00    +0.000 C 
ATOM     24  C   UNL     1       0.659  10.384  19.292  0.00  0.00    +0.000 C 
ENDBRANCH  18  24
ENDBRANCH  17  22
ENDBRANCH  11  17
ENDBRANCH   1  15
BRANCH   8  25
ATOM     25  C   UNL     1       7.192   5.681  18.815  0.00  0.00    +0.000 C 
ATOM     26  F   UNL     1       7.434   6.944  18.369  0.00  0.00    +0.000 F 
ATOM     27  F   UNL     1       6.644   5.825  20.053  0.00  0.00    +0.000 F 
ATOM     28  F   UNL     1       8.414   5.114  19.004  0.00  0.00    +0.000 F 
ENDBRANCH   8  25
BRANCH   6  29
ATOM     29  C   UNL     1       6.015   4.305  14.093  0.00  0.00    +0.000 C 
ATOM     30  C   UNL     1       7.314   5.052  13.815  0.00  0.00    +0.000 C 
BRANCH  29  31
ATOM     31  O   UNL     1       6.055   3.017  13.490  0.00  0.00    +0.000 OA
ATOM     32  H   UNL     1       6.037   2.346  14.192  0.00  0.00    +0.000 HD
ENDBRANCH  29  31
ENDBRANCH   6  29
TORSDOF 7
ENDMDL
MODEL 2
REMARK VINA RESULT:      -8.4      0.926      1.079
REMARK  Name = 
REMARK  9 active torsions:
REMARK  status: ('A' for Active; 'I' for Inactive)
REMARK    1  A    between atoms: C_1  and  C_2
REMARK    2  A    between atoms: C_2  and  C_3
REMARK    3  A    between atoms: N_7  and  C_8
REMARK    4  A    between atoms: C_8  and  C_9
REMARK    5  A    between atoms: C_13  and  N_14
REMARK    6  A    between atoms: C_19  and  C_20
REMARK    7  A    between atoms: C_20  and  C_21
REMARK    8  A    between atoms: C_20  and  O_22
REMARK    9  A    between atoms: C_24  and  C_25
REMARK                            x       y       z     vdW  Elec       q    Type
REMARK                         _______ _______ _______ _____ _____    ______ ____
ROOT
ATOM      1  N   UNL     1       4.044   4.593  19.493  0.00  0.00    +0.000 N 
ATOM      2  C   UNL     1       5.344   5.258  19.473  0.00  0.00    +0.000 C 
ATOM      3  C   UNL     1       5.796   5.080  18.057  0.00  0.00    +0.000 A 
ATOM      4  C   UNL     1       5.112   3.994  17.518  0.00  0.00    +0.000 A 
ATOM      5  C   UNL     1       5.119   3.693  16.165  0.00  0.00    +0.000 A 
ATOM      6  C   UNL     1       5.892   4.503  15.319  0.00  0.00    +0.000 A 
ATOM      7  C   UNL     1       6.632   5.573  15.878  0.00  0.00    +0.000 A 
ATOM      8  C   UNL     1       6.599   5.874  17.257  0.00  0.00    +0.000 A 
ATOM      9  C   UNL     1       4.163   3.521  18.538  0.00  0.00    +0.000 C 
ATOM     10  O   UNL     1       3.514   2.498  18.433  0.00  0.00    +0.000 OA
ENDROOT
BRANCH   1  15
ATOM     11  C   UNL     1       2.237   7.671  19.706  0.00  0.00    +0.000 A 
ATOM     12  C   UNL     1       2.607   7.995  18.395  0.00  0.00    +0.000 A 
ATOM     13  C   UNL     1       2.738   7.011  17.423  0.00  0.00    +0.000 A 
ATOM     14  C   UNL     1       2.758   5.679  17.799  0.00  0.00    +0.000 A 
ATOM     15  C   UNL     1       2.861   5.389  19.157  0.00  0.00    +0.000 A 
ATOM     16  C   UNL     1       2.368   6.327  20.096  0.00  0.00    +0.000 A 
BRANCH  11  17
ATOM     17  C   UNL     1       1.721   8.760  20.650  0.00  0.00    +0.000 C 
BRANCH  17  22
ATOM     18  C   UNL     1      -0.506   9.850  20.196  0.00  0.00    +0.000 C 
ATOM     19  C   UNL     1      -0.483  10.884  21.327  0.00  0.00    +0.000 C 
ATOM     20  C   UNL     1      -0.725  10.039  22.556  0.00  0.00    +0.000 C 
ATOM     21  C   UNL     1      -0.190   8.669  22.184  0.00  0.00    +0.000 C 
ATOM     22  N   UNL     1       0.247   8.725  20.767  0.00  0.00    +0.000 NA
BRANCH  18  24
ATOM     23  C   UNL     1      -1.095  10.086  17.732  0.00  0.00    +0.000 C 
ATOM     24  C   UNL     1      -0.136  10.471  18.847  0.00  0.00    +0.000 C 
ENDBRANCH  18  24
ENDBRANCH  17  22
ENDBRANCH  11  17
ENDBRANCH   1  15
BRANCH   8  25
ATOM     25  C   UNL     1       7.351   7.067  17.788  0.00  0.00    +0.000 C 
ATOM     26  F   UNL     1       8.243   7.588  16.902  0.00  0.00    +0.000 F 
ATOM     27  F   UNL     1       6.525   8.094  18.129  0.00  0.00    +0.000 F 
ATOM     28  F   UNL     1       8.068   6.769  18.905  0.00  0.00    +0.000 F 
ENDBRANCH   8  25
BRANCH   6  29
ATOM     29  C   UNL     1       5.929   4.274  13.818  0.00  0.00    +0.000 C 
ATOM     30  C   UNL     1       7.123   4.963  13.169  0.00  0.00    +0.000 C 
BRANCH  29  31
ATOM     31  O   UNL     1       5.948   2.883  13.521  0.00  0.00    +0.000 OA
ATOM     32  H   UNL     1       5.839   2.388  14.350  0.00  0.00    +0.000 HD
ENDBRANCH  29  31
ENDBRANCH   6  29
TORSDOF 7
ENDMDL
MODEL 3
REMARK VINA RESULT:      -8.3      6.969      9.827
REMARK  Name = 
REMARK  9 active torsions:
REMARK  status: ('A' for Active; 'I' for Inactive)
REMARK    1  A    between atoms: C_1  and  C_2
REMARK    2  A    between atoms: C_2  and  C_3
REMARK    3  A    between atoms: N_7  and  C_8
REMARK    4  A    between atoms: C_8  and  C_9
REMARK    5  A    between atoms: C_13  and  N_14
REMARK    6  A    between atoms: C_19  and  C_20
REMARK    7  A    between atoms: C_20  and  C_21
REMARK    8  A    between atoms: C_20  and  O_22
REMARK    9  A    between atoms: C_24  and  C_25
REMARK                            x       y       z     vdW  Elec       q    Type
REMARK                         _______ _______ _______ _____ _____    ______ ____
ROOT
ATOM      1  N   UNL     1      -0.518  10.721  18.271  0.00  0.00    +0.000 N 
ATOM      2  C   UNL     1       0.163  10.096  19.401  0.00  0.00    +0.000 C 
ATOM      3  C   UNL     1      -0.298  10.911  20.569  0.00  0.00    +0.000 A 
ATOM      4  C   UNL     1      -0.720  12.149  20.093  0.00  0.00    +0.000 A 
ATOM      5  C   UNL     1      -1.418  13.060  20.871  0.00  0.00    +0.000 A 
ATOM      6  C   UNL     1      -1.660  12.723  22.212  0.00  0.00    +0.000 A 
ATOM      7  C   UNL     1      -1.180  11.487  22.709  0.00  0.00    +0.000 A 
ATOM      8  C   UNL     1      -0.486  10.565  21.897  0.00  0.00    +0.000 A 
ATOM      9  C   UNL     1      -0.619  12.114  18.626  0.00  0.00    +0.000 C 
ATOM     10  O   UNL     1      -0.780  13.087  17.915  0.00  0.00    +0.000 OA
ENDROOT
BRANCH   1  15
ATOM     11  C   UNL     1      -3.963  11.380  17.578  0.00  0.00    +0.000 A 
ATOM     12  C   UNL     1      -3.732  11.217  16.207  0.00  0.00    +0.000 A 
ATOM     13  C   UNL     1      -2.808  10.292  15.740  0.00  0.00    +0.000 A 
ATOM     14  C   UNL     1      -1.921   9.707  16.627  0.00  0.00    +0.000 A 
ATOM     15  C   UNL     1      -1.851  10.230  17.916  0.00  0.00    +0.000 A 
ATOM     16  C   UNL     1      -2.992  10.870  18.457  0.00  0.00    +0.000 A 
BRANCH  11  17
ATOM     17  C   UNL     1      -5.226  12.094  18.066  0.00  0.00    +0.000 C 
BRANCH  17  22
ATOM     18  C   UNL     1      -6.613  11.151  19.948  0.00  0.00    +0.000 C 
ATOM     19  C   UNL     1      -7.710  12.220  19.973  0.00  0.00    +0.000 C 
ATOM     20  C   UNL     1      -7.005  13.407  20.589  0.00  0.00    +0.000 C 
ATOM     21  C   UNL     1      -5.545  13.207  20.227  0.00  0.00    +0.000 C 
ATOM     22  N   UNL     1      -5.430  11.908  19.519  0.00  0.00    +0.000 NA
BRANCH  18  24
ATOM     23  C   UNL     1      -7.246   8.695  20.156  0.00  0.00    +0.000 C 
ATOM     24  C   UNL     1      -7.069   9.883  19.223  0.00  0.00    +0.000 C 
ENDBRANCH  18  24
ENDBRANCH  17  22
ENDBRANCH  11  17
ENDBRANCH   1  15
BRANCH   8  25
ATOM     25  C   UNL     1      -0.058   9.235  22.459  0.00  0.00    +0.000 C 
ATOM     26  F   UNL     1      -0.799   8.187  22.007  0.00  0.00    +0.000 F 
ATOM     27  F   UNL     1       1.234   8.933  22.157  0.00  0.00    +0.000 F 
ATOM     28  F   UNL     1      -0.150   9.196  23.816  0.00  0.00    +0.000 F 
ENDBRANCH   8  25
BRANCH   6  29
ATOM     29  C   UNL     1      -2.451  13.640  23.129  0.00  0.00    +0.000 C 
ATOM     30  C   UNL     1      -2.701  15.001  22.491  0.00  0.00    +0.000 C 
BRANCH  29  31
ATOM     31  O   UNL     1      -3.688  13.040  23.497  0.00  0.00    +0.000 OA
ATOM     32  H   UNL     1      -3.512  12.347  24.155  0.00  0.00    +0.000 HD
ENDBRANCH  29  31
ENDBRANCH   6  29
TORSDOF 7
ENDMDL
MODEL 4
REMARK VINA RESULT:      -8.1      4.805      8.907
REMARK  Name = 
REMARK  9 active torsions:
REMARK  status: ('A' for Active; 'I' for Inactive)
REMARK    1  A    between atoms: C_1  and  C_2
REMARK    2  A    between atoms: C_2  and  C_3
REMARK    3  A    between atoms: N_7  and  C_8
REMARK    4  A    between atoms: C_8  and  C_9
REMARK    5  A    between atoms: C_13  and  N_14
REMARK    6  A    between atoms: C_19  and  C_20
REMARK    7  A    between atoms: C_20  and  C_21
REMARK    8  A    between atoms: C_20  and  O_22
REMARK    9  A    between atoms: C_24  and  C_25
REMARK                            x       y       z     vdW  Elec       q    Type
REMARK                         _______ _______ _______ _____ _____    ______ ____
ROOT
ATOM      1  N   UNL     1       0.195   9.052  20.612  0.00  0.00    +0.000 N 
ATOM      2  C   UNL     1      -0.956   9.182  19.723  0.00  0.00    +0.000 C 
ATOM      3  C   UNL     1      -0.965  10.642  19.390  0.00  0.00    +0.000 A 
ATOM      4  C   UNL     1      -0.269  11.318  20.387  0.00  0.00    +0.000 A 
ATOM      5  C   UNL     1       0.110  12.647  20.277  0.00  0.00    +0.000 A 
ATOM      6  C   UNL     1      -0.273  13.341  19.119  0.00  0.00    +0.000 A 
ATOM      7  C   UNL     1      -1.029  12.666  18.130  0.00  0.00    +0.000 A 
ATOM      8  C   UNL     1      -1.391  11.308  18.253  0.00  0.00    +0.000 A 
ATOM      9  C   UNL     1       0.262  10.307  21.316  0.00  0.00    +0.000 C 
ATOM     10  O   UNL     1       0.798  10.578  22.374  0.00  0.00    +0.000 OA
ENDROOT
BRANCH   1  15
ATOM     11  C   UNL     1       2.441   6.781  19.005  0.00  0.00    +0.000 A 
ATOM     12  C   UNL     1       2.193   7.390  17.769  0.00  0.00    +0.000 A 
ATOM     13  C   UNL     1       1.962   8.757  17.676  0.00  0.00    +0.000 A 
ATOM     14  C   UNL     1       1.717   9.487  18.826  0.00  0.00    +0.000 A 
ATOM     15  C   UNL     1       1.502   8.784  20.008  0.00  0.00    +0.000 A 
ATOM     16  C   UNL     1       2.084   7.503  20.158  0.00  0.00    +0.000 A 
BRANCH  11  17
ATOM     17  C   UNL     1       3.069   5.388  19.063  0.00  0.00    +0.000 C 
BRANCH  17  22
ATOM     18  C   UNL     1       1.640   3.314  19.181  0.00  0.00    +0.000 C 
ATOM     19  C   UNL     1       2.763   2.273  19.244  0.00  0.00    +0.000 C 
ATOM     20  C   UNL     1       3.299   2.275  17.831  0.00  0.00    +0.000 C 
ATOM     21  C   UNL     1       2.995   3.669  17.315  0.00  0.00    +0.000 C 
ATOM     22  N   UNL     1       2.233   4.384  18.368  0.00  0.00    +0.000 NA
BRANCH  18  24
ATOM     23  C   UNL     1       1.731   2.819  21.676  0.00  0.00    +0.000 C 
ATOM     24  C   UNL     1       1.035   3.585  20.561  0.00  0.00    +0.000 C 
ENDBRANCH  18  24
ENDBRANCH  17  22
ENDBRANCH  11  17
ENDBRANCH   1  15
BRANCH   8  25
ATOM     25  C   UNL     1      -2.137  10.621  17.140  0.00  0.00    +0.000 C 
ATOM     26  F   UNL     1      -1.531   9.486  16.695  0.00  0.00    +0.000 F 
ATOM     27  F   UNL     1      -3.394  10.250  17.506  0.00  0.00    +0.000 F 
ATOM     28  F   UNL     1      -2.280  11.418  16.046  0.00  0.00    +0.000 F 
ENDBRANCH   8  25
BRANCH   6  29
ATOM     29  C   UNL     1       0.132  14.787  18.892  0.00  0.00    +0.000 C 
ATOM     30  C   UNL     1      -0.094  15.641  20.133  0.00  0.00    +0.000 C 
BRANCH  29  31
ATOM     31  O   UNL     1       1.494  14.871  18.484  0.00  0.00    +0.000 OA
ATOM     32  H   UNL     1       1.936  15.548  19.023  0.00  0.00    +0.000 HD
ENDBRANCH  29  31
ENDBRANCH   6  29
TORSDOF 7
ENDMDL
MODEL 5
REMARK VINA RESULT:      -8.0      3.135      4.475
REMARK  Name = 
REMARK  9 active torsions:
REMARK  status: ('A' for Active; 'I' for Inactive)
REMARK    1  A    between atoms: C_1  and  C_2
REMARK    2  A    between atoms: C_2  and  C_3
REMARK    3  A    between atoms: N_7  and  C_8
REMARK    4  A    between atoms: C_8  and  C_9
REMARK    5  A    between atoms: C_13  and  N_14
REMARK    6  A    between atoms: C_19  and  C_20
REMARK    7  A    between atoms: C_20  and  C_21
REMARK    8  A    between atoms: C_20  and  O_22
REMARK    9  A    between atoms: C_24  and  C_25
REMARK                            x       y       z     vdW  Elec       q    Type
REMARK                         _______ _______ _______ _____ _____    ______ ____
ROOT
ATOM      1  N   UNL     1       1.840   7.199  18.414  0.00  0.00    +0.000 N 
ATOM      2  C   UNL     1       1.850   5.753  18.612  0.00  0.00    +0.000 C 
ATOM      3  C   UNL     1       3.311   5.425  18.646  0.00  0.00    +0.000 A 
ATOM      4  C   UNL     1       3.999   6.448  18.000  0.00  0.00    +0.000 A 
ATOM      5  C   UNL     1       5.378   6.579  18.049  0.00  0.00    +0.000 A 
ATOM      6  C   UNL     1       6.103   5.601  18.747  0.00  0.00    +0.000 A 
ATOM      7  C   UNL     1       5.404   4.530  19.357  0.00  0.00    +0.000 A 
ATOM      8  C   UNL     1       3.998   4.423  19.310  0.00  0.00    +0.000 A 
ATOM      9  C   UNL     1       3.012   7.473  17.624  0.00  0.00    +0.000 C 
ATOM     10  O   UNL     1       3.269   8.430  16.920  0.00  0.00    +0.000 OA
ENDROOT
BRANCH   1  15
ATOM     11  C   UNL     1       0.345   9.776  20.393  0.00  0.00    +0.000 A 
ATOM     12  C   UNL     1      -0.120   8.822  21.307  0.00  0.00    +0.000 A 
ATOM     13  C   UNL     1       0.622   7.684  21.595  0.00  0.00    +0.000 A 
ATOM     14  C   UNL     1       1.699   7.350  20.792  0.00  0.00    +0.000 A 
ATOM     15  C   UNL     1       1.866   8.055  19.603  0.00  0.00    +0.000 A 
ATOM     16  C   UNL     1       1.369   9.377  19.516  0.00  0.00    +0.000 A 
BRANCH  11  17
ATOM     17  C   UNL     1      -0.262  11.180  20.371  0.00  0.00    +0.000 C 
BRANCH  17  22
ATOM     18  C   UNL     1      -0.693  12.486  22.484  0.00  0.00    +0.000 C 
ATOM     19  C   UNL     1      -1.266  13.757  21.848  0.00  0.00    +0.000 C 
ATOM     20  C   UNL     1      -0.042  14.410  21.249  0.00  0.00    +0.000 C 
ATOM     21  C   UNL     1       0.900  13.256  20.963  0.00  0.00    +0.000 C 
ATOM     22  N   UNL     1       0.263  12.017  21.472  0.00  0.00    +0.000 NA
BRANCH  18  24
ATOM     23  C   UNL     1      -3.119  12.302  23.230  0.00  0.00    +0.000 C 
ATOM     24  C   UNL     1      -1.794  11.580  23.040  0.00  0.00    +0.000 C 
ENDBRANCH  18  24
ENDBRANCH  17  22
ENDBRANCH  11  17
ENDBRANCH   1  15
BRANCH   8  25
ATOM     25  C   UNL     1       3.302   3.301  20.034  0.00  0.00    +0.000 C 
ATOM     26  F   UNL     1       4.153   2.371  20.547  0.00  0.00    +0.000 F 
ATOM     27  F   UNL     1       2.558   3.741  21.085  0.00  0.00    +0.000 F 
ATOM     28  F   UNL     1       2.448   2.616  19.225  0.00  0.00    +0.000 F 
ENDBRANCH   8  25
BRANCH   6  29
ATOM     29  C   UNL     1       7.613   5.684  18.889  0.00  0.00    +0.000 C 
ATOM     30  C   UNL     1       8.150   7.039  18.446  0.00  0.00    +0.000 C 
BRANCH  29  31
ATOM     31  O   UNL     1       8.009   5.417  20.230  0.00  0.00    +0.000 OA
ATOM     32  H   UNL     1       8.591   4.639  20.231  0.00  0.00    +0.000 HD
ENDBRANCH  29  31
ENDBRANCH   6  29
TORSDOF 7
ENDMDL
MODEL 6
REMARK VINA RESULT:      -8.0      7.129     10.035
REMARK  Name = 
REMARK  9 active torsions:
REMARK  status: ('A' for Active; 'I' for Inactive)
REMARK    1  A    between atoms: C_1  and  C_2
REMARK    2  A    between atoms: C_2  and  C_3
REMARK    3  A    between atoms: N_7  and  C_8
REMARK    4  A    between atoms: C_8  and  C_9
REMARK    5  A    between atoms: C_13  and  N_14
REMARK    6  A    between atoms: C_19  and  C_20
REMARK    7  A    between atoms: C_20  and  C_21
REMARK    8  A    between atoms: C_20  and  O_22
REMARK    9  A    between atoms: C_24  and  C_25
REMARK                            x       y       z     vdW  Elec       q    Type
REMARK                         _______ _______ _______ _____ _____    ______ ____
ROOT
ATOM      1  N   UNL     1      -0.572  10.921  18.523  0.00  0.00    +0.000 N 
ATOM      2  C   UNL     1       0.220  10.391  19.630  0.00  0.00    +0.000 C 
ATOM      3  C   UNL     1      -0.425  11.006  20.834  0.00  0.00    +0.000 A 
ATOM      4  C   UNL     1      -1.109  12.145  20.424  0.00  0.00    +0.000 A 
ATOM      5  C   UNL     1      -2.002  12.825  21.238  0.00  0.00    +0.000 A 
ATOM      6  C   UNL     1      -2.177  12.356  22.549  0.00  0.00    +0.000 A 
ATOM      7  C   UNL     1      -1.437  11.229  22.982  0.00  0.00    +0.000 A 
ATOM      8  C   UNL     1      -0.546  10.540  22.132  0.00  0.00    +0.000 A 
ATOM      9  C   UNL     1      -0.987  12.230  18.959  0.00  0.00    +0.000 C 
ATOM     10  O   UNL     1      -1.354  13.187  18.306  0.00  0.00    +0.000 OA
ENDROOT
BRANCH   1  15
ATOM     11  C   UNL     1      -4.057  10.850  17.726  0.00  0.00    +0.000 A 
ATOM     12  C   UNL     1      -3.756  10.792  16.360  0.00  0.00    +0.000 A 
ATOM     13  C   UNL     1      -2.641  10.104  15.899  0.00  0.00    +0.000 A 
ATOM     14  C   UNL     1      -1.674   9.691  16.800  0.00  0.00    +0.000 A 
ATOM     15  C   UNL     1      -1.757  10.169  18.105  0.00  0.00    +0.000 A 
ATOM     16  C   UNL     1      -3.024  10.528  18.624  0.00  0.00    +0.000 A 
BRANCH  11  17
ATOM     17  C   UNL     1      -5.457  11.257  18.189  0.00  0.00    +0.000 C 
BRANCH  17  22
ATOM     18  C   UNL     1      -6.253  13.292  19.446  0.00  0.00    +0.000 C 
ATOM     19  C   UNL     1      -7.742  13.204  19.093  0.00  0.00    +0.000 C 
ATOM     20  C   UNL     1      -7.766  13.630  17.643  0.00  0.00    +0.000 C 
ATOM     21  C   UNL     1      -6.393  13.255  17.118  0.00  0.00    +0.000 C 
ATOM     22  N   UNL     1      -5.602  12.728  18.257  0.00  0.00    +0.000 NA
BRANCH  18  24
ATOM     23  C   UNL     1      -7.187  12.128  21.508  0.00  0.00    +0.000 C 
ATOM     24  C   UNL     1      -5.969  12.762  20.854  0.00  0.00    +0.000 C 
ENDBRANCH  18  24
ENDBRANCH  17  22
ENDBRANCH  11  17
ENDBRANCH   1  15
BRANCH   8  25
ATOM     25  C   UNL     1       0.164   9.306  22.623  0.00  0.00    +0.000 C 
ATOM     26  F   UNL     1       1.488   9.275  22.307  0.00  0.00    +0.000 F 
ATOM     27  F   UNL     1       0.105   9.174  23.977  0.00  0.00    +0.000 F 
ATOM     28  F   UNL     1      -0.367   8.165  22.107  0.00  0.00    +0.000 F 
ENDBRANCH   8  25
BRANCH   6  29
ATOM     29  C   UNL     1      -3.164  13.011  23.500  0.00  0.00    +0.000 C 
ATOM     30  C   UNL     1      -3.684  14.335  22.954  0.00  0.00    +0.000 C 
BRANCH  29  31
ATOM     31  O   UNL     1      -4.253  12.138  23.777  0.00  0.00    +0.000 OA
ATOM     32  H   UNL     1      -4.054  11.266  23.397  0.00  0.00    +0.000 HD
ENDBRANCH  29  31
ENDBRANCH   6  29
TORSDOF 7
ENDMDL
MODEL 7
REMARK VINA RESULT:      -7.9      1.500      2.025
REMARK  Name = 
REMARK  9 active torsions:
REMARK  status: ('A' for Active; 'I' for Inactive)
REMARK    1  A    between atoms: C_1  and  C_2
REMARK    2  A    between atoms: C_2  and  C_3
REMARK    3  A    between atoms: N_7  and  C_8
REMARK    4  A    between atoms: C_8  and  C_9
REMARK    5  A    between atoms: C_13  and  N_14
REMARK    6  A    between atoms: C_19  and  C_20
REMARK    7  A    between atoms: C_20  and  C_21
REMARK    8  A    between atoms: C_20  and  O_22
REMARK    9  A    between atoms: C_24  and  C_25
REMARK                            x       y       z     vdW  Elec       q    Type
REMARK                         _______ _______ _______ _____ _____    ______ ____
ROOT
ATOM      1  N   UNL     1       4.194   4.947  19.401  0.00  0.00    +0.000 N 
ATOM      2  C   UNL     1       5.474   5.650  19.424  0.00  0.00    +0.000 C 
ATOM      3  C   UNL     1       6.056   5.342  18.080  0.00  0.00    +0.000 A 
ATOM      4  C   UNL     1       5.451   4.183  17.602  0.00  0.00    +0.000 A 
ATOM      5  C   UNL     1       5.588   3.744  16.294  0.00  0.00    +0.000 A 
ATOM      6  C   UNL     1       6.415   4.487  15.438  0.00  0.00    +0.000 A 
ATOM      7  C   UNL     1       7.074   5.635  15.943  0.00  0.00    +0.000 A 
ATOM      8  C   UNL     1       6.909   6.076  17.273  0.00  0.00    +0.000 A 
ATOM      9  C   UNL     1       4.426   3.786  18.580  0.00  0.00    +0.000 C 
ATOM     10  O   UNL     1       3.814   2.736  18.528  0.00  0.00    +0.000 OA
ENDROOT
BRANCH   1  15
ATOM     11  C   UNL     1       2.230   7.930  19.233  0.00  0.00    +0.000 A 
ATOM     12  C   UNL     1       2.749   8.216  17.964  0.00  0.00    +0.000 A 
ATOM     13  C   UNL     1       3.049   7.200  17.066  0.00  0.00    +0.000 A 
ATOM     14  C   UNL     1       3.086   5.888  17.508  0.00  0.00    +0.000 A 
ATOM     15  C   UNL     1       3.027   5.663  18.881  0.00  0.00    +0.000 A 
ATOM     16  C   UNL     1       2.374   6.612  19.703  0.00  0.00    +0.000 A 
BRANCH  11  17
ATOM     17  C   UNL     1       1.546   9.028  20.049  0.00  0.00    +0.000 C 
BRANCH  17  22
ATOM     18  C   UNL     1       0.835  11.134  18.858  0.00  0.00    +0.000 C 
ATOM     19  C   UNL     1       0.384  11.940  20.081  0.00  0.00    +0.000 C 
ATOM     20  C   UNL     1      -0.916  11.270  20.460  0.00  0.00    +0.000 C 
ATOM     21  C   UNL     1      -0.764   9.845  19.964  0.00  0.00    +0.000 C 
ATOM     22  N   UNL     1       0.532   9.751  19.250  0.00  0.00    +0.000 NA
BRANCH  18  24
ATOM     23  C   UNL     1       2.365  13.057  18.196  0.00  0.00    +0.000 C 
ATOM     24  C   UNL     1       2.227  11.553  18.380  0.00  0.00    +0.000 C 
ENDBRANCH  18  24
ENDBRANCH  17  22
ENDBRANCH  11  17
ENDBRANCH   1  15
BRANCH   8  25
ATOM     25  C   UNL     1       7.580   7.342  17.738  0.00  0.00    +0.000 C 
ATOM     26  F   UNL     1       8.317   7.185  18.871  0.00  0.00    +0.000 F 
ATOM     27  F   UNL     1       8.433   7.851  16.808  0.00  0.00    +0.000 F 
ATOM     28  F   UNL     1       6.684   8.329  18.012  0.00  0.00    +0.000 F 
ENDBRANCH   8  25
BRANCH   6  29
ATOM     29  C   UNL     1       6.592   4.106  13.979  0.00  0.00    +0.000 C 
ATOM     30  C   UNL     1       5.255   3.862  13.290  0.00  0.00    +0.000 C 
BRANCH  29  31
ATOM     31  O   UNL     1       7.324   5.108  13.282  0.00  0.00    +0.000 OA
ATOM     32  H   UNL     1       6.794   5.407  12.524  0.00  0.00    +0.000 HD
ENDBRANCH  29  31
ENDBRANCH   6  29
TORSDOF 7
ENDMDL
MODEL 8
REMARK VINA RESULT:      -7.9      1.292      2.236
REMARK  Name = 
REMARK  9 active torsions:
REMARK  status: ('A' for Active; 'I' for Inactive)
REMARK    1  A    between atoms: C_1  and  C_2
REMARK    2  A    between atoms: C_2  and  C_3
REMARK    3  A    between atoms: N_7  and  C_8
REMARK    4  A    between atoms: C_8  and  C_9
REMARK    5  A    between atoms: C_13  and  N_14
REMARK    6  A    between atoms: C_19  and  C_20
REMARK    7  A    between atoms: C_20  and  C_21
REMARK    8  A    between atoms: C_20  and  O_22
REMARK    9  A    between atoms: C_24  and  C_25
REMARK                            x       y       z     vdW  Elec       q    Type
REMARK                         _______ _______ _______ _____ _____    ______ ____
ROOT
ATOM      1  N   UNL     1       4.276   4.809  19.339  0.00  0.00    +0.000 N 
ATOM      2  C   UNL     1       5.538   5.543  19.371  0.00  0.00    +0.000 C 
ATOM      3  C   UNL     1       6.118   5.281  18.016  0.00  0.00    +0.000 A 
ATOM      4  C   UNL     1       5.539   4.120  17.515  0.00  0.00    +0.000 A 
ATOM      5  C   UNL     1       5.677   3.714  16.196  0.00  0.00    +0.000 A 
ATOM      6  C   UNL     1       6.478   4.498  15.353  0.00  0.00    +0.000 A 
ATOM      7  C   UNL     1       7.113   5.650  15.880  0.00  0.00    +0.000 A 
ATOM      8  C   UNL     1       6.946   6.055  17.221  0.00  0.00    +0.000 A 
ATOM      9  C   UNL     1       4.531   3.674  18.490  0.00  0.00    +0.000 C 
ATOM     10  O   UNL     1       3.945   2.611  18.417  0.00  0.00    +0.000 OA
ENDROOT
BRANCH   1  15
ATOM     11  C   UNL     1       1.978   7.537  19.584  0.00  0.00    +0.000 A 
ATOM     12  C   UNL     1       2.585   8.164  18.489  0.00  0.00    +0.000 A 
ATOM     13  C   UNL     1       3.103   7.422  17.435  0.00  0.00    +0.000 A 
ATOM     14  C   UNL     1       3.259   6.054  17.575  0.00  0.00    +0.000 A 
ATOM     15  C   UNL     1       3.088   5.508  18.845  0.00  0.00    +0.000 A 
ATOM     16  C   UNL     1       2.239   6.167  19.765  0.00  0.00    +0.000 A 
BRANCH  11  17
ATOM     17  C   UNL     1       1.080   8.339  20.529  0.00  0.00    +0.000 C 
BRANCH  17  22
ATOM     18  C   UNL     1       0.238  10.670  20.992  0.00  0.00    +0.000 C 
ATOM     19  C   UNL     1      -1.075  10.593  20.205  0.00  0.00    +0.000 C 
ATOM     20  C   UNL     1      -0.605  10.646  18.769  0.00  0.00    +0.000 C 
ATOM     21  C   UNL     1       0.795  10.064  18.809  0.00  0.00    +0.000 C 
ATOM     22  N   UNL     1       1.128   9.787  20.228  0.00  0.00    +0.000 NA
BRANCH  18  24
ATOM     23  C   UNL     1      -1.260  11.158  22.991  0.00  0.00    +0.000 C 
ATOM     24  C   UNL     1       0.013  10.488  22.495  0.00  0.00    +0.000 C 
ENDBRANCH  18  24
ENDBRANCH  17  22
ENDBRANCH  11  17
ENDBRANCH   1  15
BRANCH   8  25
ATOM     25  C   UNL     1       7.589   7.326  17.711  0.00  0.00    +0.000 C 
ATOM     26  F   UNL     1       8.321   7.165  18.847  0.00  0.00    +0.000 F 
ATOM     27  F   UNL     1       8.439   7.867  16.796  0.00  0.00    +0.000 F 
ATOM     28  F   UNL     1       6.673   8.291  17.995  0.00  0.00    +0.000 F 
ENDBRANCH   8  25
BRANCH   6  29
ATOM     29  C   UNL     1       6.655   4.156  13.883  0.00  0.00    +0.000 C 
ATOM     30  C   UNL     1       5.317   3.931  13.189  0.00  0.00    +0.000 C 
BRANCH  29  31
ATOM     31  O   UNL     1       7.386   5.176  13.212  0.00  0.00    +0.000 OA
ATOM     32  H   UNL     1       6.884   6.005  13.271  0.00  0.00    +0.000 HD
ENDBRANCH  29  31
ENDBRANCH   6  29
TORSDOF 7
ENDMDL
MODEL 9
REMARK VINA RESULT:      -7.8      6.835      9.823
REMARK  Name = 
REMARK  9 active torsions:
REMARK  status: ('A' for Active; 'I' for Inactive)
REMARK    1  A    between atoms: C_1  and  C_2
REMARK    2  A    between atoms: C_2  and  C_3
REMARK    3  A    between atoms: N_7  and  C_8
REMARK    4  A    between atoms: C_8  and  C_9
REMARK    5  A    between atoms: C_13  and  N_14
REMARK    6  A    between atoms: C_19  and  C_20
REMARK    7  A    between atoms: C_20  and  C_21
REMARK    8  A    between atoms: C_20  and  O_22
REMARK    9  A    between atoms: C_24  and  C_25
REMARK                            x       y       z     vdW  Elec       q    Type
REMARK                         _______ _______ _______ _____ _____    ______ ____
ROOT
ATOM      1  N   UNL     1      -0.415  10.625  18.280  0.00  0.00    +0.000 N 
ATOM      2  C   UNL     1       0.266   9.964  19.390  0.00  0.00    +0.000 C 
ATOM      3  C   UNL     1      -0.085  10.825  20.564  0.00  0.00    +0.000 A 
ATOM      4  C   UNL     1      -0.436  12.084  20.088  0.00  0.00    +0.000 A 
ATOM      5  C   UNL     1      -1.032  13.053  20.881  0.00  0.00    +0.000 A 
ATOM      6  C   UNL     1      -1.242  12.751  22.235  0.00  0.00    +0.000 A 
ATOM      7  C   UNL     1      -0.832  11.489  22.730  0.00  0.00    +0.000 A 
ATOM      8  C   UNL     1      -0.242  10.509  21.903  0.00  0.00    +0.000 A 
ATOM      9  C   UNL     1      -0.400  12.025  18.618  0.00  0.00    +0.000 C 
ATOM     10  O   UNL     1      -0.520  12.999  17.900  0.00  0.00    +0.000 OA
ENDROOT
BRANCH   1  15
ATOM     11  C   UNL     1      -3.857  11.505  17.877  0.00  0.00    +0.000 A 
ATOM     12  C   UNL     1      -3.728  11.427  16.485  0.00  0.00    +0.000 A 
ATOM     13  C   UNL     1      -2.889  10.491  15.894  0.00  0.00    +0.000 A 
ATOM     14  C   UNL     1      -1.979   9.801  16.675  0.00  0.00    +0.000 A 
ATOM     15  C   UNL     1      -1.794  10.228  17.988  0.00  0.00    +0.000 A 
ATOM     16  C   UNL     1      -2.859  10.885  18.649  0.00  0.00    +0.000 A 
BRANCH  11  17
ATOM     17  C   UNL     1      -5.043  12.246  18.498  0.00  0.00    +0.000 C 
BRANCH  17  22
ATOM     18  C   UNL     1      -7.555  12.186  18.708  0.00  0.00    +0.000 C 
ATOM     19  C   UNL     1      -7.646  11.742  20.172  0.00  0.00    +0.000 C 
ATOM     20  C   UNL     1      -7.243  10.287  20.105  0.00  0.00    +0.000 C 
ATOM     21  C   UNL     1      -6.340  10.202  18.889  0.00  0.00    +0.000 C 
ATOM     22  N   UNL     1      -6.319  11.539  18.248  0.00  0.00    +0.000 NA
BRANCH  18  24
ATOM     23  C   UNL     1      -7.916  14.414  19.885  0.00  0.00    +0.000 C 
ATOM     24  C   UNL     1      -7.788  13.691  18.552  0.00  0.00    +0.000 C 
ENDBRANCH  18  24
ENDBRANCH  17  22
ENDBRANCH  11  17
ENDBRANCH   1  15
BRANCH   8  25
ATOM     25  C   UNL     1       0.113   9.158  22.467  0.00  0.00    +0.000 C 
ATOM     26  F   UNL     1      -0.656   8.145  21.982  0.00  0.00    +0.000 F 
ATOM     27  F   UNL     1       1.400   8.805  22.204  0.00  0.00    +0.000 F 
ATOM     28  F   UNL     1      -0.024   9.112  23.820  0.00  0.00    +0.000 F 
ENDBRANCH   8  25
BRANCH   6  29
ATOM     29  C   UNL     1      -1.925  13.734  23.170  0.00  0.00    +0.000 C 
ATOM     30  C   UNL     1      -1.067  14.967  23.421  0.00  0.00    +0.000 C 
BRANCH  29  31
ATOM     31  O   UNL     1      -3.194  14.119  22.656  0.00  0.00    +0.000 OA
ATOM     32  H   UNL     1      -3.475  13.460  22.000  0.00  0.00    +0.000 HD
ENDBRANCH  29  31
ENDBRANCH   6  29
TORSDOF 7
ENDMDL
