MODEL 1
REMARK VINA RESULT:      -8.8      0.000      0.000
REMARK  Name = 
REMARK  5 active torsions:
REMARK  status: ('A' for Active; 'I' for Inactive)
REMARK    1  A    between atoms: C_2  and  C_13
REMARK    2  A    between atoms: N_3  and  C_4
REMARK    3  A    between atoms: C_4  and  C_5
REMARK    4  A    between atoms: N_9  and  C_10
REMARK    5  A    between atoms: C_17  and  C_18
REMARK                            x       y       z     vdW  Elec       q    Type
REMARK                         _______ _______ _______ _____ _____    ______ ____
ROOT
ATOM      1  C   UNL     1       7.638   6.643  18.207  0.00  0.00    +0.000 A 
ATOM      2  C   UNL     1       8.205   6.199  19.386  0.00  0.00    +0.000 A 
ATOM      3  N   UNL     1       8.034   4.852  19.408  0.00  0.00    +0.000 N 
ATOM      4  N   UNL     1       7.442   4.365  18.308  0.00  0.00    +0.000 NA
ATOM      5  C   UNL     1       7.249   5.447  17.539  0.00  0.00    +0.000 A 
ATOM      6  H   UNL     1       8.315   4.194  20.136  0.00  0.00    +0.000 HD
ENDROOT
BRANCH   5   7
ATOM      7  C   UNL     1       6.814   5.307  16.114  0.00  0.00    +0.000 A 
ATOM      8  C   UNL     1       5.683   4.639  15.677  0.00  0.00    +0.000 A 
ATOM      9  C   UNL     1       5.840   4.452  14.279  0.00  0.00    +0.000 A 
ATOM     10  C   UNL     1       5.150   3.769  13.272  0.00  0.00    +0.000 A 
ATOM     11  C   UNL     1       5.934   3.280  12.222  0.00  0.00    +0.000 A 
ATOM     12  C   UNL     1       7.170   3.862  11.935  0.00  0.00    +0.000 A 
ATOM     13  C   UNL     1       7.675   4.900  12.724  0.00  0.00    +0.000 A 
ATOM     14  C   UNL     1       7.052   5.043  13.956  0.00  0.00    +0.000 A 
ATOM     15  O   UNL     1       7.564   5.691  15.034  0.00  0.00    +0.000 OA
ENDBRANCH   5   7
BRANCH   1  17
ATOM     16  O   UNL     1       6.958   8.436  16.849  0.00  0.00    +0.000 OA
ATOM     17  C   UNL     1       7.639   8.011  17.782  0.00  0.00    +0.000 C 
ATOM     18  N   UNL     1       8.595   8.817  18.375  0.00  0.00    +0.000 N 
ATOM     19  H   UNL     1       9.167   8.474  19.135  0.00  0.00    +0.000 HD
BRANCH  18  20
ATOM     20  C   UNL     1       8.655  10.236  18.068  0.00  0.00    +0.000 C 
BRANCH  20  21
ATOM     21  C   UNL     1       9.434  10.937  19.118  0.00  0.00    +0.000 A 
ATOM     22  N   UNL     1       9.226  10.889  20.424  0.00  0.00    +0.000 NA
ATOM     23  N   UNL     1      10.182  11.665  21.039  0.00  0.00    +0.000 NA
ATOM     24  C   UNL     1      10.949  12.165  20.097  0.00  0.00    +0.000 A 
ATOM     25  N   UNL     1      10.515  11.741  18.877  0.00  0.00    +0.000 N 
BRANCH  25  26
ATOM     26  C   UNL     1      11.078  12.087  17.589  0.00  0.00    +0.000 C 
ATOM     27  C   UNL     1      12.235  13.064  17.439  0.00  0.00    +0.000 C 
ATOM     28  C   UNL     1      10.877  13.469  16.983  0.00  0.00    +0.000 C 
ENDBRANCH  25  26
ENDBRANCH  20  21
ENDBRANCH  18  20
ENDBRANCH   1  17
TORSDOF 5
ENDMDL
MODEL 2
REMARK VINA RESULT:      -8.8      4.568      7.297
REMARK  Name = 
REMARK  5 active torsions:
REMARK  status: ('A' for Active; 'I' for Inactive)
REMARK    1  A    between atoms: C_2  and  C_13
REMARK    2  A    between atoms: N_3  and  C_4
REMARK    3  A    between atoms: C_4  and  C_5
REMARK    4  A    between atoms: N_9  and  C_10
REMARK    5  A    between atoms: C_17  and  C_18
REMARK                            x       y       z     vdW  Elec       q    Type
REMARK                         _______ _______ _______ _____ _____    ______ ____
ROOT
ATOM      1  C   UNL     1       6.268   5.303  18.671  0.00  0.00    +0.000 A 
ATOM      2  C   UNL     1       7.176   5.439  19.702  0.00  0.00    +0.000 A 
ATOM      3  N   UNL     1       8.379   5.054  19.205  0.00  0.00    +0.000 N 
ATOM      4  N   UNL     1       8.345   4.722  17.906  0.00  0.00    +0.000 NA
ATOM      5  C   UNL     1       7.067   4.928  17.553  0.00  0.00    +0.000 A 
ATOM      6  H   UNL     1       9.275   5.011  19.691  0.00  0.00    +0.000 HD
ENDROOT
BRANCH   5   7
ATOM      7  C   UNL     1       6.653   4.892  16.116  0.00  0.00    +0.000 A 
ATOM      8  C   UNL     1       5.570   4.196  15.605  0.00  0.00    +0.000 A 
ATOM      9  C   UNL     1       5.750   4.149  14.198  0.00  0.00    +0.000 A 
ATOM     10  C   UNL     1       5.113   3.518  13.124  0.00  0.00    +0.000 A 
ATOM     11  C   UNL     1       5.935   3.178  12.045  0.00  0.00    +0.000 A 
ATOM     12  C   UNL     1       7.132   3.862  11.828  0.00  0.00    +0.000 A 
ATOM     13  C   UNL     1       7.564   4.853  12.715  0.00  0.00    +0.000 A 
ATOM     14  C   UNL     1       6.924   4.842  13.946  0.00  0.00    +0.000 A 
ATOM     15  O   UNL     1       7.385   5.420  15.086  0.00  0.00    +0.000 OA
ENDBRANCH   5   7
BRANCH   1  17
ATOM     16  O   UNL     1       4.317   6.445  18.028  0.00  0.00    +0.000 OA
ATOM     17  C   UNL     1       4.880   5.643  18.773  0.00  0.00    +0.000 C 
ATOM     18  N   UNL     1       4.225   5.142  19.886  0.00  0.00    +0.000 N 
ATOM     19  H   UNL     1       4.683   4.490  20.509  0.00  0.00    +0.000 HD
BRANCH  18  20
ATOM     20  C   UNL     1       2.802   5.369  20.067  0.00  0.00    +0.000 C 
BRANCH  20  21
ATOM     21  C   UNL     1       2.177   4.157  20.650  0.00  0.00    +0.000 A 
ATOM     22  N   UNL     1       2.179   3.800  21.924  0.00  0.00    +0.000 NA
ATOM     23  N   UNL     1       1.473   2.623  22.041  0.00  0.00    +0.000 NA
ATOM     24  C   UNL     1       1.058   2.293  20.839  0.00  0.00    +0.000 A 
ATOM     25  N   UNL     1       1.481   3.221  19.935  0.00  0.00    +0.000 N 
BRANCH  25  26
ATOM     26  C   UNL     1       1.248   3.206  18.506  0.00  0.00    +0.000 C 
ATOM     27  C   UNL     1       2.383   3.201  17.493  0.00  0.00    +0.000 C 
ATOM     28  C   UNL     1       1.548   4.424  17.644  0.00  0.00    +0.000 C 
ENDBRANCH  25  26
ENDBRANCH  20  21
ENDBRANCH  18  20
ENDBRANCH   1  17
TORSDOF 5
ENDMDL
MODEL 3
REMARK VINA RESULT:      -8.6      5.313      9.259
REMARK  Name = 
REMARK  5 active torsions:
REMARK  status: ('A' for Active; 'I' for Inactive)
REMARK    1  A    between atoms: C_2  and  C_13
REMARK    2  A    between atoms: N_3  and  C_4
REMARK    3  A    between atoms: C_4  and  C_5
REMARK    4  A    between atoms: N_9  and  C_10
REMARK    5  A    between atoms: C_17  and  C_18
REMARK                            x       y       z     vdW  Elec       q    Type
REMARK                         _______ _______ _______ _____ _____    ______ ____
ROOT
ATOM      1  C   UNL     1       5.855   5.089  17.660  0.00  0.00    +0.000 A 
ATOM      2  C   UNL     1       7.170   5.220  17.258  0.00  0.00    +0.000 A 
ATOM      3  N   UNL     1       7.267   6.434  16.659  0.00  0.00    +0.000 N 
ATOM      4  N   UNL     1       6.126   7.139  16.680  0.00  0.00    +0.000 NA
ATOM      5  C   UNL     1       5.269   6.348  17.344  0.00  0.00    +0.000 A 
ATOM      6  H   UNL     1       8.089   6.859  16.228  0.00  0.00    +0.000 HD
ENDROOT
BRANCH   5   7
ATOM      7  C   UNL     1       3.937   6.863  17.786  0.00  0.00    +0.000 A 
ATOM      8  C   UNL     1       3.254   7.928  17.220  0.00  0.00    +0.000 A 
ATOM      9  C   UNL     1       2.238   8.290  18.141  0.00  0.00    +0.000 A 
ATOM     10  C   UNL     1       1.299   9.322  18.249  0.00  0.00    +0.000 A 
ATOM     11  C   UNL     1       0.961   9.702  19.552  0.00  0.00    +0.000 A 
ATOM     12  C   UNL     1       1.123   8.808  20.612  0.00  0.00    +0.000 A 
ATOM     13  C   UNL     1       1.683   7.544  20.405  0.00  0.00    +0.000 A 
ATOM     14  C   UNL     1       2.357   7.402  19.200  0.00  0.00    +0.000 A 
ATOM     15  O   UNL     1       3.281   6.448  18.914  0.00  0.00    +0.000 OA
ENDBRANCH   5   7
BRANCH   1  17
ATOM     16  O   UNL     1       5.641   3.688  19.535  0.00  0.00    +0.000 OA
ATOM     17  C   UNL     1       5.342   3.956  18.371  0.00  0.00    +0.000 C 
ATOM     18  N   UNL     1       4.608   3.061  17.612  0.00  0.00    +0.000 N 
ATOM     19  H   UNL     1       4.366   3.268  16.653  0.00  0.00    +0.000 HD
BRANCH  18  20
ATOM     20  C   UNL     1       3.986   1.905  18.234  0.00  0.00    +0.000 C 
BRANCH  20  21
ATOM     21  C   UNL     1       2.535   2.158  18.411  0.00  0.00    +0.000 A 
ATOM     22  N   UNL     1       1.598   2.080  17.480  0.00  0.00    +0.000 NA
ATOM     23  N   UNL     1       0.387   2.372  18.064  0.00  0.00    +0.000 NA
ATOM     24  C   UNL     1       0.612   2.618  19.335  0.00  0.00    +0.000 A 
ATOM     25  N   UNL     1       1.945   2.502  19.597  0.00  0.00    +0.000 N 
BRANCH  25  26
ATOM     26  C   UNL     1       2.598   2.716  20.870  0.00  0.00    +0.000 C 
ATOM     27  C   UNL     1       1.823   2.907  22.165  0.00  0.00    +0.000 C 
ATOM     28  C   UNL     1       2.544   4.066  21.571  0.00  0.00    +0.000 C 
ENDBRANCH  25  26
ENDBRANCH  20  21
ENDBRANCH  18  20
ENDBRANCH   1  17
TORSDOF 5
ENDMDL
MODEL 4
REMARK VINA RESULT:      -8.5      4.737      6.102
REMARK  Name = 
REMARK  5 active torsions:
REMARK  status: ('A' for Active; 'I' for Inactive)
REMARK    1  A    between atoms: C_2  and  C_13
REMARK    2  A    between atoms: N_3  and  C_4
REMARK    3  A    between atoms: C_4  and  C_5
REMARK    4  A    between atoms: N_9  and  C_10
REMARK    5  A    between atoms: C_17  and  C_18
REMARK                            x       y       z     vdW  Elec       q    Type
REMARK                         _______ _______ _______ _____ _____    ______ ____
ROOT
ATOM      1  C   UNL     1       5.876   5.013  18.675  0.00  0.00    +0.000 A 
ATOM      2  C   UNL     1       6.687   5.231  19.772  0.00  0.00    +0.000 A 
ATOM      3  N   UNL     1       7.964   5.097  19.334  0.00  0.00    +0.000 N 
ATOM      4  N   UNL     1       8.062   4.858  18.019  0.00  0.00    +0.000 NA
ATOM      5  C   UNL     1       6.790   4.863  17.594  0.00  0.00    +0.000 A 
ATOM      6  H   UNL     1       8.826   5.176  19.876  0.00  0.00    +0.000 HD
ENDROOT
BRANCH   5   7
ATOM      7  C   UNL     1       6.469   4.858  16.133  0.00  0.00    +0.000 A 
ATOM      8  C   UNL     1       5.445   4.143  15.533  0.00  0.00    +0.000 A 
ATOM      9  C   UNL     1       5.715   4.145  14.140  0.00  0.00    +0.000 A 
ATOM     10  C   UNL     1       5.170   3.528  13.009  0.00  0.00    +0.000 A 
ATOM     11  C   UNL     1       6.069   3.248  11.976  0.00  0.00    +0.000 A 
ATOM     12  C   UNL     1       7.254   3.976  11.856  0.00  0.00    +0.000 A 
ATOM     13  C   UNL     1       7.595   4.953  12.797  0.00  0.00    +0.000 A 
ATOM     14  C   UNL     1       6.878   4.883  13.984  0.00  0.00    +0.000 A 
ATOM     15  O   UNL     1       7.246   5.440  15.167  0.00  0.00    +0.000 OA
ENDBRANCH   5   7
BRANCH   1  17
ATOM     16  O   UNL     1       3.700   4.145  18.479  0.00  0.00    +0.000 OA
ATOM     17  C   UNL     1       4.446   5.098  18.705  0.00  0.00    +0.000 C 
ATOM     18  N   UNL     1       3.929   6.376  18.834  0.00  0.00    +0.000 N 
ATOM     19  H   UNL     1       4.535   7.168  19.009  0.00  0.00    +0.000 HD
BRANCH  18  20
ATOM     20  C   UNL     1       2.496   6.585  18.936  0.00  0.00    +0.000 C 
BRANCH  20  21
ATOM     21  C   UNL     1       2.175   7.995  18.609  0.00  0.00    +0.000 A 
ATOM     22  N   UNL     1       2.539   8.659  17.524  0.00  0.00    +0.000 NA
ATOM     23  N   UNL     1       2.020   9.931  17.604  0.00  0.00    +0.000 NA
ATOM     24  C   UNL     1       1.351  10.012  18.732  0.00  0.00    +0.000 A 
ATOM     25  N   UNL     1       1.426   8.825  19.398  0.00  0.00    +0.000 N 
BRANCH  25  26
ATOM     26  C   UNL     1       0.840   8.516  20.685  0.00  0.00    +0.000 C 
ATOM     27  C   UNL     1       0.220   9.580  21.578  0.00  0.00    +0.000 C 
ATOM     28  C   UNL     1       1.507   8.951  21.982  0.00  0.00    +0.000 C 
ENDBRANCH  25  26
ENDBRANCH  20  21
ENDBRANCH  18  20
ENDBRANCH   1  17
TORSDOF 5
ENDMDL
MODEL 5
REMARK VINA RESULT:      -8.4      5.514      7.600
REMARK  Name = 
REMARK  5 active torsions:
REMARK  status: ('A' for Active; 'I' for Inactive)
REMARK    1  A    between atoms: C_2  and  C_13
REMARK    2  A    between atoms: N_3  and  C_4
REMARK    3  A    between atoms: C_4  and  C_5
REMARK    4  A    between atoms: N_9  and  C_10
REMARK    5  A    between atoms: C_17  and  C_18
REMARK                            x       y       z     vdW  Elec       q    Type
REMARK                         _______ _______ _______ _____ _____    ______ ____
ROOT
ATOM      1  C   UNL     1       2.231   3.600  19.272  0.00  0.00    +0.000 A 
ATOM      2  C   UNL     1       1.345   2.542  19.320  0.00  0.00    +0.000 A 
ATOM      3  N   UNL     1       1.781   1.638  18.405  0.00  0.00    +0.000 N 
ATOM      4  N   UNL     1       2.919   1.995  17.793  0.00  0.00    +0.000 NA
ATOM      5  C   UNL     1       3.236   3.169  18.360  0.00  0.00    +0.000 A 
ATOM      6  H   UNL     1       1.362   0.740  18.159  0.00  0.00    +0.000 HD
ENDROOT
BRANCH   5   7
ATOM      7  C   UNL     1       4.569   3.802  18.117  0.00  0.00    +0.000 A 
ATOM      8  C   UNL     1       5.576   3.950  19.057  0.00  0.00    +0.000 A 
ATOM      9  C   UNL     1       6.494   4.889  18.520  0.00  0.00    +0.000 A 
ATOM     10  C   UNL     1       7.632   5.559  18.981  0.00  0.00    +0.000 A 
ATOM     11  C   UNL     1       7.848   6.832  18.443  0.00  0.00    +0.000 A 
ATOM     12  C   UNL     1       7.303   7.175  17.204  0.00  0.00    +0.000 A 
ATOM     13  C   UNL     1       6.485   6.281  16.507  0.00  0.00    +0.000 A 
ATOM     14  C   UNL     1       5.993   5.233  17.274  0.00  0.00    +0.000 A 
ATOM     15  O   UNL     1       4.916   4.463  16.969  0.00  0.00    +0.000 OA
ENDBRANCH   5   7
BRANCH   1  17
ATOM     16  O   UNL     1       1.965   4.702  21.331  0.00  0.00    +0.000 OA
ATOM     17  C   UNL     1       2.147   4.756  20.115  0.00  0.00    +0.000 C 
ATOM     18  N   UNL     1       2.110   5.972  19.454  0.00  0.00    +0.000 N 
ATOM     19  H   UNL     1       2.248   6.025  18.454  0.00  0.00    +0.000 HD
BRANCH  18  20
ATOM     20  C   UNL     1       2.085   7.216  20.202  0.00  0.00    +0.000 C 
BRANCH  20  21
ATOM     21  C   UNL     1       1.854   8.349  19.273  0.00  0.00    +0.000 A 
ATOM     22  N   UNL     1       2.490   8.582  18.136  0.00  0.00    +0.000 NA
ATOM     23  N   UNL     1       1.959   9.722  17.574  0.00  0.00    +0.000 NA
ATOM     24  C   UNL     1       1.014  10.153  18.379  0.00  0.00    +0.000 A 
ATOM     25  N   UNL     1       0.917   9.328  19.459  0.00  0.00    +0.000 N 
BRANCH  25  26
ATOM     26  C   UNL     1       0.013   9.473  20.580  0.00  0.00    +0.000 C 
ATOM     27  C   UNL     1      -0.527  10.823  21.027  0.00  0.00    +0.000 C 
ATOM     28  C   UNL     1       0.465  10.117  21.883  0.00  0.00    +0.000 C 
ENDBRANCH  25  26
ENDBRANCH  20  21
ENDBRANCH  18  20
ENDBRANCH   1  17
TORSDOF 5
ENDMDL
MODEL 6
REMARK VINA RESULT:      -8.4      4.545      7.446
REMARK  Name = 
REMARK  5 active torsions:
REMARK  status: ('A' for Active; 'I' for Inactive)
REMARK    1  A    between atoms: C_2  and  C_13
REMARK    2  A    between atoms: N_3  and  C_4
REMARK    3  A    between atoms: C_4  and  C_5
REMARK    4  A    between atoms: N_9  and  C_10
REMARK    5  A    between atoms: C_17  and  C_18
REMARK                            x       y       z     vdW  Elec       q    Type
REMARK                         _______ _______ _______ _____ _____    ______ ____
ROOT
ATOM      1  C   UNL     1       6.368   5.382  18.455  0.00  0.00    +0.000 A 
ATOM      2  C   UNL     1       7.248   5.470  19.515  0.00  0.00    +0.000 A 
ATOM      3  N   UNL     1       8.423   4.947  19.081  0.00  0.00    +0.000 N 
ATOM      4  N   UNL     1       8.401   4.567  17.795  0.00  0.00    +0.000 NA
ATOM      5  C   UNL     1       7.164   4.884  17.384  0.00  0.00    +0.000 A 
ATOM      6  H   UNL     1       9.293   4.836  19.603  0.00  0.00    +0.000 HD
ENDROOT
BRANCH   5   7
ATOM      7  C   UNL     1       6.800   4.829  15.935  0.00  0.00    +0.000 A 
ATOM      8  C   UNL     1       5.868   3.975  15.368  0.00  0.00    +0.000 A 
ATOM      9  C   UNL     1       6.089   4.011  13.967  0.00  0.00    +0.000 A 
ATOM     10  C   UNL     1       5.600   3.319  12.853  0.00  0.00    +0.000 A 
ATOM     11  C   UNL     1       6.496   3.166  11.790  0.00  0.00    +0.000 A 
ATOM     12  C   UNL     1       7.561   4.054  11.633  0.00  0.00    +0.000 A 
ATOM     13  C   UNL     1       7.791   5.072  12.564  0.00  0.00    +0.000 A 
ATOM     14  C   UNL     1       7.131   4.905  13.774  0.00  0.00    +0.000 A 
ATOM     15  O   UNL     1       7.455   5.513  14.945  0.00  0.00    +0.000 OA
ENDBRANCH   5   7
BRANCH   1  17
ATOM     16  O   UNL     1       4.531   6.593  17.627  0.00  0.00    +0.000 OA
ATOM     17  C   UNL     1       5.018   5.862  18.489  0.00  0.00    +0.000 C 
ATOM     18  N   UNL     1       4.322   5.596  19.656  0.00  0.00    +0.000 N 
ATOM     19  H   UNL     1       4.718   5.005  20.376  0.00  0.00    +0.000 HD
BRANCH  18  20
ATOM     20  C   UNL     1       2.928   5.980  19.786  0.00  0.00    +0.000 C 
BRANCH  20  21
ATOM     21  C   UNL     1       2.065   4.911  19.227  0.00  0.00    +0.000 A 
ATOM     22  N   UNL     1       1.541   4.870  18.013  0.00  0.00    +0.000 NA
ATOM     23  N   UNL     1       0.824   3.701  17.894  0.00  0.00    +0.000 NA
ATOM     24  C   UNL     1       0.931   3.057  19.035  0.00  0.00    +0.000 A 
ATOM     25  N   UNL     1       1.694   3.780  19.902  0.00  0.00    +0.000 N 
BRANCH  25  26
ATOM     26  C   UNL     1       2.028   3.424  21.265  0.00  0.00    +0.000 C 
ATOM     27  C   UNL     1       2.458   2.020  21.661  0.00  0.00    +0.000 C 
ATOM     28  C   UNL     1       1.123   2.521  22.091  0.00  0.00    +0.000 C 
ENDBRANCH  25  26
ENDBRANCH  20  21
ENDBRANCH  18  20
ENDBRANCH   1  17
TORSDOF 5
ENDMDL
MODEL 7
REMARK VINA RESULT:      -8.4      5.322      8.325
REMARK  Name = 
REMARK  5 active torsions:
REMARK  status: ('A' for Active; 'I' for Inactive)
REMARK    1  A    between atoms: C_2  and  C_13
REMARK    2  A    between atoms: N_3  and  C_4
REMARK    3  A    between atoms: C_4  and  C_5
REMARK    4  A    between atoms: N_9  and  C_10
REMARK    5  A    between atoms: C_17  and  C_18
REMARK                            x       y       z     vdW  Elec       q    Type
REMARK                         _______ _______ _______ _____ _____    ______ ____
ROOT
ATOM      1  C   UNL     1       2.461   3.403  19.420  0.00  0.00    +0.000 A 
ATOM      2  C   UNL     1       2.174   2.250  20.124  0.00  0.00    +0.000 A 
ATOM      3  N   UNL     1       2.048   2.618  21.425  0.00  0.00    +0.000 N 
ATOM      4  N   UNL     1       2.179   3.937  21.627  0.00  0.00    +0.000 NA
ATOM      5  C   UNL     1       2.374   4.436  20.397  0.00  0.00    +0.000 A 
ATOM      6  H   UNL     1       1.852   2.023  22.231  0.00  0.00    +0.000 HD
ENDROOT
BRANCH   5   7
ATOM      7  C   UNL     1       2.340   5.911  20.153  0.00  0.00    +0.000 A 
ATOM      8  C   UNL     1       1.626   6.836  20.898  0.00  0.00    +0.000 A 
ATOM      9  C   UNL     1       1.592   8.030  20.132  0.00  0.00    +0.000 A 
ATOM     10  C   UNL     1       0.957   9.272  20.233  0.00  0.00    +0.000 A 
ATOM     11  C   UNL     1       0.640   9.894  19.021  0.00  0.00    +0.000 A 
ATOM     12  C   UNL     1       1.348   9.577  17.860  0.00  0.00    +0.000 A 
ATOM     13  C   UNL     1       2.341   8.593  17.871  0.00  0.00    +0.000 A 
ATOM     14  C   UNL     1       2.309   7.755  18.977  0.00  0.00    +0.000 A 
ATOM     15  O   UNL     1       2.888   6.529  19.061  0.00  0.00    +0.000 OA
ENDBRANCH   5   7
BRANCH   1  17
ATOM     16  O   UNL     1       1.817   3.006  17.195  0.00  0.00    +0.000 OA
ATOM     17  C   UNL     1       2.635   3.453  17.999  0.00  0.00    +0.000 C 
ATOM     18  N   UNL     1       3.877   3.887  17.567  0.00  0.00    +0.000 N 
ATOM     19  H   UNL     1       4.559   4.246  18.221  0.00  0.00    +0.000 HD
BRANCH  18  20
ATOM     20  C   UNL     1       4.151   4.038  16.149  0.00  0.00    +0.000 C 
BRANCH  20  21
ATOM     21  C   UNL     1       5.481   4.669  15.966  0.00  0.00    +0.000 A 
ATOM     22  N   UNL     1       6.047   5.567  16.756  0.00  0.00    +0.000 NA
ATOM     23  N   UNL     1       7.284   5.876  16.238  0.00  0.00    +0.000 NA
ATOM     24  C   UNL     1       7.444   5.160  15.148  0.00  0.00    +0.000 A 
ATOM     25  N   UNL     1       6.337   4.394  14.935  0.00  0.00    +0.000 N 
BRANCH  25  26
ATOM     26  C   UNL     1       6.114   3.485  13.830  0.00  0.00    +0.000 C 
ATOM     27  C   UNL     1       6.644   3.753  12.430  0.00  0.00    +0.000 C 
ATOM     28  C   UNL     1       5.180   3.848  12.684  0.00  0.00    +0.000 C 
ENDBRANCH  25  26
ENDBRANCH  20  21
ENDBRANCH  18  20
ENDBRANCH   1  17
TORSDOF 5
ENDMDL
MODEL 8
REMARK VINA RESULT:      -8.4      5.572      7.495
REMARK  Name = 
REMARK  5 active torsions:
REMARK  status: ('A' for Active; 'I' for Inactive)
REMARK    1  A    between atoms: C_2  and  C_13
REMARK    2  A    between atoms: N_3  and  C_4
REMARK    3  A    between atoms: C_4  and  C_5
REMARK    4  A    between atoms: N_9  and  C_10
REMARK    5  A    between atoms: C_17  and  C_18
REMARK                            x       y       z     vdW  Elec       q    Type
REMARK                         _______ _______ _______ _____ _____    ______ ____
ROOT
ATOM      1  C   UNL     1       5.725   6.027  17.303  0.00  0.00    +0.000 A 
ATOM      2  C   UNL     1       7.004   6.269  16.844  0.00  0.00    +0.000 A 
ATOM      3  N   UNL     1       7.782   5.272  17.336  0.00  0.00    +0.000 N 
ATOM      4  N   UNL     1       7.103   4.358  18.044  0.00  0.00    +0.000 NA
ATOM      5  C   UNL     1       5.831   4.779  17.981  0.00  0.00    +0.000 A 
ATOM      6  H   UNL     1       8.786   5.138  17.212  0.00  0.00    +0.000 HD
ENDROOT
BRANCH   5   7
ATOM      7  C   UNL     1       4.711   3.909  18.457  0.00  0.00    +0.000 A 
ATOM      8  C   UNL     1       3.592   3.558  17.719  0.00  0.00    +0.000 A 
ATOM      9  C   UNL     1       2.649   3.037  18.642  0.00  0.00    +0.000 A 
ATOM     10  C   UNL     1       1.313   2.624  18.590  0.00  0.00    +0.000 A 
ATOM     11  C   UNL     1       0.573   2.812  19.762  0.00  0.00    +0.000 A 
ATOM     12  C   UNL     1       1.217   2.898  20.997  0.00  0.00    +0.000 A 
ATOM     13  C   UNL     1       2.612   2.860  21.083  0.00  0.00    +0.000 A 
ATOM     14  C   UNL     1       3.269   3.086  19.882  0.00  0.00    +0.000 A 
ATOM     15  O   UNL     1       4.566   3.468  19.745  0.00  0.00    +0.000 OA
ENDBRANCH   5   7
BRANCH   1  17
ATOM     16  O   UNL     1       4.390   7.317  15.861  0.00  0.00    +0.000 OA
ATOM     17  C   UNL     1       4.587   6.835  16.976  0.00  0.00    +0.000 C 
ATOM     18  N   UNL     1       3.789   7.198  18.047  0.00  0.00    +0.000 N 
ATOM     19  H   UNL     1       3.949   6.815  18.970  0.00  0.00    +0.000 HD
BRANCH  18  20
ATOM     20  C   UNL     1       2.575   7.966  17.834  0.00  0.00    +0.000 C 
BRANCH  20  21
ATOM     21  C   UNL     1       1.911   8.216  19.136  0.00  0.00    +0.000 A 
ATOM     22  N   UNL     1       2.076   7.528  20.254  0.00  0.00    +0.000 NA
ATOM     23  N   UNL     1       1.291   8.100  21.230  0.00  0.00    +0.000 NA
ATOM     24  C   UNL     1       0.670   9.121  20.686  0.00  0.00    +0.000 A 
ATOM     25  N   UNL     1       1.022   9.229  19.374  0.00  0.00    +0.000 N 
BRANCH  25  26
ATOM     26  C   UNL     1       0.539  10.210  18.426  0.00  0.00    +0.000 C 
ATOM     27  C   UNL     1      -0.460  11.292  18.806  0.00  0.00    +0.000 C 
ATOM     28  C   UNL     1      -0.895  10.180  17.917  0.00  0.00    +0.000 C 
ENDBRANCH  25  26
ENDBRANCH  20  21
ENDBRANCH  18  20
ENDBRANCH   1  17
TORSDOF 5
ENDMDL
MODEL 9
REMARK VINA RESULT:      -8.3      5.396      8.928
REMARK  Name = 
REMARK  5 active torsions:
REMARK  status: ('A' for Active; 'I' for Inactive)
REMARK    1  A    between atoms: C_2  and  C_13
REMARK    2  A    between atoms: N_3  and  C_4
REMARK    3  A    between atoms: C_4  and  C_5
REMARK    4  A    between atoms: N_9  and  C_10
REMARK    5  A    between atoms: C_17  and  C_18
REMARK                            x       y       z     vdW  Elec       q    Type
REMARK                         _______ _______ _______ _____ _____    ______ ____
ROOT
ATOM      1  C   UNL     1       5.779   5.230  17.904  0.00  0.00    +0.000 A 
ATOM      2  C   UNL     1       6.998   5.343  17.266  0.00  0.00    +0.000 A 
ATOM      3  N   UNL     1       6.879   6.376  16.394  0.00  0.00    +0.000 N 
ATOM      4  N   UNL     1       5.687   6.989  16.445  0.00  0.00    +0.000 NA
ATOM      5  C   UNL     1       5.026   6.332  17.409  0.00  0.00    +0.000 A 
ATOM      6  H   UNL     1       7.579   6.735  15.744  0.00  0.00    +0.000 HD
ENDROOT
BRANCH   5   7
ATOM      7  C   UNL     1       3.728   6.853  17.940  0.00  0.00    +0.000 A 
ATOM      8  C   UNL     1       3.039   7.951  17.452  0.00  0.00    +0.000 A 
ATOM      9  C   UNL     1       2.077   8.294  18.438  0.00  0.00    +0.000 A 
ATOM     10  C   UNL     1       1.166   9.337  18.635  0.00  0.00    +0.000 A 
ATOM     11  C   UNL     1       0.902   9.670  19.967  0.00  0.00    +0.000 A 
ATOM     12  C   UNL     1       1.101   8.732  20.981  0.00  0.00    +0.000 A 
ATOM     13  C   UNL     1       1.623   7.466  20.696  0.00  0.00    +0.000 A 
ATOM     14  C   UNL     1       2.233   7.362  19.453  0.00  0.00    +0.000 A 
ATOM     15  O   UNL     1       3.122   6.404  19.083  0.00  0.00    +0.000 OA
ENDBRANCH   5   7
BRANCH   1  17
ATOM     16  O   UNL     1       5.956   4.346  20.075  0.00  0.00    +0.000 OA
ATOM     17  C   UNL     1       5.498   4.275  18.935  0.00  0.00    +0.000 C 
ATOM     18  N   UNL     1       4.805   3.148  18.528  0.00  0.00    +0.000 N 
ATOM     19  H   UNL     1       4.434   3.075  17.590  0.00  0.00    +0.000 HD
BRANCH  18  20
ATOM     20  C   UNL     1       4.410   2.137  19.493  0.00  0.00    +0.000 C 
BRANCH  20  21
ATOM     21  C   UNL     1       3.239   2.621  20.265  0.00  0.00    +0.000 A 
ATOM     22  N   UNL     1       3.182   2.828  21.571  0.00  0.00    +0.000 NA
ATOM     23  N   UNL     1       1.923   3.293  21.877  0.00  0.00    +0.000 NA
ATOM     24  C   UNL     1       1.245   3.360  20.754  0.00  0.00    +0.000 A 
ATOM     25  N   UNL     1       2.026   2.943  19.719  0.00  0.00    +0.000 N 
BRANCH  25  26
ATOM     26  C   UNL     1       1.642   2.849  18.326  0.00  0.00    +0.000 C 
ATOM     27  C   UNL     1       2.460   3.475  17.207  0.00  0.00    +0.000 C 
ATOM     28  C   UNL     1       1.139   4.064  17.560  0.00  0.00    +0.000 C 
ENDBRANCH  25  26
ENDBRANCH  20  21
ENDBRANCH  18  20
ENDBRANCH   1  17
TORSDOF 5
ENDMDL
