MODEL 1
REMARK VINA RESULT:      -9.1      0.000      0.000
REMARK  Name = 
REMARK  6 active torsions:
REMARK  status: ('A' for Active; 'I' for Inactive)
REMARK    1  A    between atoms: C_2  and  C_4
REMARK    2  A    between atoms: C_10  and  O_11
REMARK    3  A    between atoms: O_11  and  C_12
REMARK    4  A    between atoms: C_12  and  C_13
REMARK    5  A    between atoms: N_15  and  C_16
REMARK    6  A    between atoms: C_16  and  C_17
REMARK                            x       y       z     vdW  Elec       q    Type
REMARK                         _______ _______ _______ _____ _____    ______ ____
ROOT
ATOM      1  C   UNL     1       2.150   6.869  19.573  0.00  0.00    +0.000 C 
ATOM      2  O   UNL     1       2.195   7.025  18.357  0.00  0.00    +0.000 OA
ATOM      3  N   UNL     1       2.398   5.675  20.221  0.00  0.00    +0.000 N 
ATOM      4  H   UNL     1       2.095   5.603  21.183  0.00  0.00    +0.000 HD
ENDROOT
BRANCH   3   5
ATOM      5  C   UNL     1       2.650   4.406  19.536  0.00  0.00    +0.000 C 
ATOM      6  C   UNL     1       1.435   4.095  18.620  0.00  0.00    +0.000 C 
ATOM      7  C   UNL     1       1.372   2.574  18.481  0.00  0.00    +0.000 C 
ATOM      8  C   UNL     1       2.212   2.004  19.616  0.00  0.00    +0.000 C 
ATOM      9  C   UNL     1       2.542   3.197  20.500  0.00  0.00    +0.000 C 
BRANCH   5  10
ATOM     10  C   UNL     1       3.944   4.521  18.713  0.00  0.00    +0.000 A 
ATOM     11  C   UNL     1       5.181   4.843  19.299  0.00  0.00    +0.000 A 
ATOM     12  C   UNL     1       6.351   4.922  18.541  0.00  0.00    +0.000 A 
ATOM     13  C   UNL     1       6.311   4.713  17.169  0.00  0.00    +0.000 A 
ATOM     14  C   UNL     1       5.102   4.397  16.554  0.00  0.00    +0.000 A 
ATOM     15  C   UNL     1       3.928   4.316  17.313  0.00  0.00    +0.000 A 
ATOM     16  O   UNL     1       4.989   4.164  15.204  0.00  0.00    +0.000 OA
ATOM     17  C   UNL     1       6.272   3.951  14.597  0.00  0.00    +0.000 C 
ATOM     18  C   UNL     1       7.288   4.969  15.089  0.00  0.00    +0.000 C 
ATOM     19  O   UNL     1       7.499   4.829  16.497  0.00  0.00    +0.000 OA
ENDBRANCH   5  10
ENDBRANCH   3   5
BRANCH   1  20
ATOM     20  C   UNL     1       1.910   8.036  20.523  0.00  0.00    +0.000 C 
BRANCH  20  21
ATOM     21  O   UNL     1       1.244   9.130  19.894  0.00  0.00    +0.000 OA
BRANCH  21  28
ATOM     22  C   UNL     1      -0.394  10.891  20.164  0.00  0.00    +0.000 A 
ATOM     23  C   UNL     1      -1.250  11.618  21.020  0.00  0.00    +0.000 A 
ATOM     24  C   UNL     1      -1.331  11.314  22.375  0.00  0.00    +0.000 A 
ATOM     25 CL   UNL     1      -2.383  12.203  23.405  0.00  0.00    +0.000 Cl
ATOM     26  C   UNL     1      -0.566  10.292  22.909  0.00  0.00    +0.000 A 
ATOM     27  C   UNL     1       0.296   9.575  22.082  0.00  0.00    +0.000 A 
ATOM     28  C   UNL     1       0.386   9.842  20.704  0.00  0.00    +0.000 A 
BRANCH  22  30
ATOM     29  N   UNL     1      -0.401  10.327  17.772  0.00  0.00    +0.000 N 
ATOM     30  C   UNL     1      -0.445  11.308  18.726  0.00  0.00    +0.000 C 
ATOM     31  O   UNL     1      -0.536  12.479  18.392  0.00  0.00    +0.000 OA
ATOM     32  H   UNL     1      -0.400  10.613  16.801  0.00  0.00    +0.000 HD
ATOM     33  H   UNL     1      -0.240   9.360  18.007  0.00  0.00    +0.000 HD
ENDBRANCH  22  30
ENDBRANCH  21  28
ENDBRANCH  20  21
ENDBRANCH   1  20
TORSDOF 6
ENDMDL
MODEL 2
REMARK VINA RESULT:      -8.8      1.736      2.205
REMARK  Name = 
REMARK  6 active torsions:
REMARK  status: ('A' for Active; 'I' for Inactive)
REMARK    1  A    between atoms: C_2  and  C_4
REMARK    2  A    between atoms: C_10  and  O_11
REMARK    3  A    between atoms: O_11  and  C_12
REMARK    4  A    between atoms: C_12  and  C_13
REMARK    5  A    between atoms: N_15  and  C_16
REMARK    6  A    between atoms: C_16  and  C_17
REMARK                            x       y       z     vdW  Elec       q    Type
REMARK                         _______ _______ _______ _____ _____    ______ ____
ROOT
ATOM      1  C   UNL     1       2.120   6.928  19.808  0.00  0.00    +0.000 C 
ATOM      2  O   UNL     1       2.130   7.117  18.596  0.00  0.00    +0.000 OA
ATOM      3  N   UNL     1       2.375   5.715  20.417  0.00  0.00    +0.000 N 
ATOM      4  H   UNL     1       2.100   5.620  21.384  0.00  0.00    +0.000 HD
ENDROOT
BRANCH   3   5
ATOM      5  C   UNL     1       2.596   4.464  19.690  0.00  0.00    +0.000 C 
ATOM      6  C   UNL     1       1.372   4.209  18.770  0.00  0.00    +0.000 C 
ATOM      7  C   UNL     1       1.273   2.695  18.582  0.00  0.00    +0.000 C 
ATOM      8  C   UNL     1       2.103   2.070  19.695  0.00  0.00    +0.000 C 
ATOM      9  C   UNL     1       2.463   3.227  20.617  0.00  0.00    +0.000 C 
BRANCH   5  10
ATOM     10  C   UNL     1       3.890   4.575  18.867  0.00  0.00    +0.000 A 
ATOM     11  C   UNL     1       5.124   4.916  19.449  0.00  0.00    +0.000 A 
ATOM     12  C   UNL     1       6.295   4.991  18.691  0.00  0.00    +0.000 A 
ATOM     13  C   UNL     1       6.258   4.760  17.323  0.00  0.00    +0.000 A 
ATOM     14  C   UNL     1       5.052   4.425  16.711  0.00  0.00    +0.000 A 
ATOM     15  C   UNL     1       3.878   4.347  17.471  0.00  0.00    +0.000 A 
ATOM     16  O   UNL     1       4.942   4.170  15.366  0.00  0.00    +0.000 OA
ATOM     17  C   UNL     1       6.227   3.956  14.763  0.00  0.00    +0.000 C 
ATOM     18  C   UNL     1       7.235   4.989  15.241  0.00  0.00    +0.000 C 
ATOM     19  O   UNL     1       7.446   4.873  16.650  0.00  0.00    +0.000 OA
ENDBRANCH   5  10
ENDBRANCH   3   5
BRANCH   1  20
ATOM     20  C   UNL     1       1.917   8.071  20.795  0.00  0.00    +0.000 C 
BRANCH  20  21
ATOM     21  O   UNL     1       0.554   8.486  20.886  0.00  0.00    +0.000 OA
BRANCH  21  28
ATOM     22  C   UNL     1      -0.344  10.676  21.389  0.00  0.00    +0.000 A 
ATOM     23  C   UNL     1      -0.603  11.998  20.965  0.00  0.00    +0.000 A 
ATOM     24  C   UNL     1      -0.226  12.427  19.697  0.00  0.00    +0.000 A 
ATOM     25 CL   UNL     1      -0.540  14.041  19.195  0.00  0.00    +0.000 Cl
ATOM     26  C   UNL     1       0.408  11.559  18.824  0.00  0.00    +0.000 A 
ATOM     27  C   UNL     1       0.657  10.246  19.221  0.00  0.00    +0.000 A 
ATOM     28  C   UNL     1       0.308   9.786  20.503  0.00  0.00    +0.000 A 
BRANCH  22  30
ATOM     29  N   UNL     1      -0.098   9.396  23.473  0.00  0.00    +0.000 N 
ATOM     30  C   UNL     1      -0.774  10.373  22.792  0.00  0.00    +0.000 C 
ATOM     31  O   UNL     1      -1.686  10.975  23.337  0.00  0.00    +0.000 OA
ATOM     32  H   UNL     1      -0.412   9.169  24.408  0.00  0.00    +0.000 HD
ATOM     33  H   UNL     1       0.601   8.821  23.028  0.00  0.00    +0.000 HD
ENDBRANCH  22  30
ENDBRANCH  21  28
ENDBRANCH  20  21
ENDBRANCH   1  20
TORSDOF 6
ENDMDL
MODEL 3
REMARK VINA RESULT:      -8.7      1.095      1.110
REMARK  Name = 
REMARK  6 active torsions:
REMARK  status: ('A' for Active; 'I' for Inactive)
REMARK    1  A    between atoms: C_2  and  C_4
REMARK    2  A    between atoms: C_10  and  O_11
REMARK    3  A    between atoms: O_11  and  C_12
REMARK    4  A    between atoms: C_12  and  C_13
REMARK    5  A    between atoms: N_15  and  C_16
REMARK    6  A    between atoms: C_16  and  C_17
REMARK                            x       y       z     vdW  Elec       q    Type
REMARK                         _______ _______ _______ _____ _____    ______ ____
ROOT
ATOM      1  C   UNL     1       1.950   6.090  20.422  0.00  0.00    +0.000 C 
ATOM      2  O   UNL     1       1.121   5.282  20.825  0.00  0.00    +0.000 OA
ATOM      3  N   UNL     1       2.940   5.808  19.502  0.00  0.00    +0.000 N 
ATOM      4  H   UNL     1       3.704   6.466  19.433  0.00  0.00    +0.000 HD
ENDROOT
BRANCH   3   5
ATOM      5  C   UNL     1       3.195   4.474  18.954  0.00  0.00    +0.000 C 
ATOM      6  C   UNL     1       1.933   4.017  18.173  0.00  0.00    +0.000 C 
ATOM      7  C   UNL     1       1.921   2.489  18.219  0.00  0.00    +0.000 C 
ATOM      8  C   UNL     1       2.858   2.086  19.349  0.00  0.00    +0.000 C 
ATOM      9  C   UNL     1       3.201   3.388  20.060  0.00  0.00    +0.000 C 
BRANCH   5  10
ATOM     10  C   UNL     1       4.424   4.529  18.031  0.00  0.00    +0.000 A 
ATOM     11  C   UNL     1       5.729   4.698  18.528  0.00  0.00    +0.000 A 
ATOM     12  C   UNL     1       6.837   4.723  17.678  0.00  0.00    +0.000 A 
ATOM     13  C   UNL     1       6.668   4.613  16.305  0.00  0.00    +0.000 A 
ATOM     14  C   UNL     1       5.389   4.451  15.777  0.00  0.00    +0.000 A 
ATOM     15  C   UNL     1       4.277   4.423  16.628  0.00  0.00    +0.000 A 
ATOM     16  O   UNL     1       5.147   4.322  14.431  0.00  0.00    +0.000 OA
ATOM     17  C   UNL     1       6.350   4.037  13.703  0.00  0.00    +0.000 C 
ATOM     18  C   UNL     1       7.494   4.923  14.168  0.00  0.00    +0.000 C 
ATOM     19  O   UNL     1       7.804   4.668  15.541  0.00  0.00    +0.000 OA
ENDBRANCH   5  10
ENDBRANCH   3   5
BRANCH   1  20
ATOM     20  C   UNL     1       1.907   7.556  20.834  0.00  0.00    +0.000 C 
BRANCH  20  21
ATOM     21  O   UNL     1       0.864   8.281  20.182  0.00  0.00    +0.000 OA
BRANCH  21  28
ATOM     22  C   UNL     1       0.354  10.639  20.367  0.00  0.00    +0.000 A 
ATOM     23  C   UNL     1      -0.175  11.700  21.134  0.00  0.00    +0.000 A 
ATOM     24  C   UNL     1      -0.708  11.470  22.398  0.00  0.00    +0.000 A 
ATOM     25 CL   UNL     1      -1.356  12.769  23.319  0.00  0.00    +0.000 Cl
ATOM     26  C   UNL     1      -0.723  10.192  22.929  0.00  0.00    +0.000 A 
ATOM     27  C   UNL     1      -0.191   9.135  22.192  0.00  0.00    +0.000 A 
ATOM     28  C   UNL     1       0.336   9.330  20.902  0.00  0.00    +0.000 A 
BRANCH  22  30
ATOM     29  N   UNL     1       0.327  10.400  17.921  0.00  0.00    +0.000 N 
ATOM     30  C   UNL     1       0.856  11.036  19.013  0.00  0.00    +0.000 C 
ATOM     31  O   UNL     1       1.699  11.907  18.861  0.00  0.00    +0.000 OA
ATOM     32  H   UNL     1       0.692  10.645  17.009  0.00  0.00    +0.000 HD
ATOM     33  H   UNL     1      -0.305   9.620  18.012  0.00  0.00    +0.000 HD
ENDBRANCH  22  30
ENDBRANCH  21  28
ENDBRANCH  20  21
ENDBRANCH   1  20
TORSDOF 6
ENDMDL
MODEL 4
REMARK VINA RESULT:      -8.7      1.116      1.738
REMARK  Name = 
REMARK  6 active torsions:
REMARK  status: ('A' for Active; 'I' for Inactive)
REMARK    1  A    between atoms: C_2  and  C_4
REMARK    2  A    between atoms: C_10  and  O_11
REMARK    3  A    between atoms: O_11  and  C_12
REMARK    4  A    between atoms: C_12  and  C_13
REMARK    5  A    between atoms: N_15  and  C_16
REMARK    6  A    between atoms: C_16  and  C_17
REMARK                            x       y       z     vdW  Elec       q    Type
REMARK                         _______ _______ _______ _____ _____    ______ ____
ROOT
ATOM      1  C   UNL     1       1.848   7.185  20.105  0.00  0.00    +0.000 C 
ATOM      2  O   UNL     1       2.011   7.152  18.890  0.00  0.00    +0.000 OA
ATOM      3  N   UNL     1       1.922   6.086  20.938  0.00  0.00    +0.000 N 
ATOM      4  H   UNL     1       1.532   6.186  21.865  0.00  0.00    +0.000 HD
ENDROOT
BRANCH   3   5
ATOM      5  C   UNL     1       2.108   4.712  20.469  0.00  0.00    +0.000 C 
ATOM      6  C   UNL     1       0.771   4.222  19.847  0.00  0.00    +0.000 C 
ATOM      7  C   UNL     1       0.747   2.702  20.007  0.00  0.00    +0.000 C 
ATOM      8  C   UNL     1       1.784   2.365  21.069  0.00  0.00    +0.000 C 
ATOM      9  C   UNL     1       2.209   3.708  21.646  0.00  0.00    +0.000 C 
BRANCH   5  10
ATOM     10  C   UNL     1       3.242   4.678  19.431  0.00  0.00    +0.000 A 
ATOM     11  C   UNL     1       3.017   4.345  18.083  0.00  0.00    +0.000 A 
ATOM     12  C   UNL     1       4.054   4.341  17.148  0.00  0.00    +0.000 A 
ATOM     13  C   UNL     1       5.352   4.637  17.542  0.00  0.00    +0.000 A 
ATOM     14  C   UNL     1       5.613   4.966  18.870  0.00  0.00    +0.000 A 
ATOM     15  C   UNL     1       4.573   4.973  19.808  0.00  0.00    +0.000 A 
ATOM     16  O   UNL     1       6.868   5.284  19.328  0.00  0.00    +0.000 OA
ATOM     17  C   UNL     1       7.769   5.563  18.247  0.00  0.00    +0.000 C 
ATOM     18  C   UNL     1       7.625   4.537  17.134  0.00  0.00    +0.000 C 
ATOM     19  O   UNL     1       6.313   4.590  16.567  0.00  0.00    +0.000 OA
ENDBRANCH   5  10
ENDBRANCH   3   5
BRANCH   1  20
ATOM     20  C   UNL     1       1.641   8.498  20.850  0.00  0.00    +0.000 C 
BRANCH  20  21
ATOM     21  O   UNL     1       0.823   9.419  20.128  0.00  0.00    +0.000 OA
BRANCH  21  28
ATOM     22  C   UNL     1      -0.720  11.272  20.323  0.00  0.00    +0.000 A 
ATOM     23  C   UNL     1      -1.567  12.054  21.140  0.00  0.00    +0.000 A 
ATOM     24  C   UNL     1      -1.721  11.763  22.491  0.00  0.00    +0.000 A 
ATOM     25 CL   UNL     1      -2.761  12.717  23.473  0.00  0.00    +0.000 Cl
ATOM     26  C   UNL     1      -1.039  10.702  23.061  0.00  0.00    +0.000 A 
ATOM     27  C   UNL     1      -0.186   9.931  22.273  0.00  0.00    +0.000 A 
ATOM     28  C   UNL     1      -0.024  10.183  20.899  0.00  0.00    +0.000 A 
BRANCH  22  30
ATOM     29  N   UNL     1      -0.729  10.697  17.934  0.00  0.00    +0.000 N 
ATOM     30  C   UNL     1      -0.686  11.684  18.883  0.00  0.00    +0.000 C 
ATOM     31  O   UNL     1      -0.636  12.855  18.542  0.00  0.00    +0.000 OA
ATOM     32  H   UNL     1      -0.671  10.974  16.962  0.00  0.00    +0.000 HD
ATOM     33  H   UNL     1      -0.684   9.720  18.176  0.00  0.00    +0.000 HD
ENDBRANCH  22  30
ENDBRANCH  21  28
ENDBRANCH  20  21
ENDBRANCH   1  20
TORSDOF 6
ENDMDL
MODEL 5
REMARK VINA RESULT:      -8.6      1.486      1.715
REMARK  Name = 
REMARK  6 active torsions:
REMARK  status: ('A' for Active; 'I' for Inactive)
REMARK    1  A    between atoms: C_2  and  C_4
REMARK    2  A    between atoms: C_10  and  O_11
REMARK    3  A    between atoms: O_11  and  C_12
REMARK    4  A    between atoms: C_12  and  C_13
REMARK    5  A    between atoms: N_15  and  C_16
REMARK    6  A    between atoms: C_16  and  C_17
REMARK                            x       y       z     vdW  Elec       q    Type
REMARK                         _______ _______ _______ _____ _____    ______ ____
ROOT
ATOM      1  C   UNL     1       1.954   5.450  20.378  0.00  0.00    +0.000 C 
ATOM      2  O   UNL     1       1.050   4.633  20.513  0.00  0.00    +0.000 OA
ATOM      3  N   UNL     1       3.066   5.266  19.580  0.00  0.00    +0.000 N 
ATOM      4  H   UNL     1       3.851   5.885  19.735  0.00  0.00    +0.000 HD
ENDROOT
BRANCH   3   5
ATOM      5  C   UNL     1       3.365   4.026  18.861  0.00  0.00    +0.000 C 
ATOM      6  C   UNL     1       2.091   3.592  18.086  0.00  0.00    +0.000 C 
ATOM      7  C   UNL     1       2.164   2.072  17.944  0.00  0.00    +0.000 C 
ATOM      8  C   UNL     1       3.178   1.592  18.973  0.00  0.00    +0.000 C 
ATOM      9  C   UNL     1       3.486   2.816  19.824  0.00  0.00    +0.000 C 
BRANCH   5  10
ATOM     10  C   UNL     1       4.539   4.266  17.899  0.00  0.00    +0.000 A 
ATOM     11  C   UNL     1       5.816   4.644  18.352  0.00  0.00    +0.000 A 
ATOM     12  C   UNL     1       6.879   4.836  17.466  0.00  0.00    +0.000 A 
ATOM     13  C   UNL     1       6.687   4.687  16.100  0.00  0.00    +0.000 A 
ATOM     14  C   UNL     1       5.434   4.318  15.615  0.00  0.00    +0.000 A 
ATOM     15  C   UNL     1       4.367   4.123  16.502  0.00  0.00    +0.000 A 
ATOM     16  O   UNL     1       5.173   4.139  14.278  0.00  0.00    +0.000 OA
ATOM     17  C   UNL     1       6.383   4.040  13.513  0.00  0.00    +0.000 C 
ATOM     18  C   UNL     1       7.386   5.101  13.936  0.00  0.00    +0.000 C 
ATOM     19  O   UNL     1       7.775   4.913  15.299  0.00  0.00    +0.000 OA
ENDBRANCH   5  10
ENDBRANCH   3   5
BRANCH   1  20
ATOM     20  C   UNL     1       1.889   6.831  21.018  0.00  0.00    +0.000 C 
BRANCH  20  21
ATOM     21  O   UNL     1       1.925   7.886  20.057  0.00  0.00    +0.000 OA
BRANCH  21  28
ATOM     22  C   UNL     1       0.999  10.023  19.402  0.00  0.00    +0.000 A 
ATOM     23  C   UNL     1       0.148  11.110  19.702  0.00  0.00    +0.000 A 
ATOM     24  C   UNL     1      -0.596  11.131  20.877  0.00  0.00    +0.000 A 
ATOM     25 CL   UNL     1      -1.633  12.456  21.227  0.00  0.00    +0.000 Cl
ATOM     26  C   UNL     1      -0.509  10.084  21.778  0.00  0.00    +0.000 A 
ATOM     27  C   UNL     1       0.338   9.011  21.506  0.00  0.00    +0.000 A 
ATOM     28  C   UNL     1       1.087   8.948  20.317  0.00  0.00    +0.000 A 
BRANCH  22  30
ATOM     29  N   UNL     1       2.299  11.318  17.767  0.00  0.00    +0.000 N 
ATOM     30  C   UNL     1       1.704  10.126  18.084  0.00  0.00    +0.000 C 
ATOM     31  O   UNL     1       1.771   9.187  17.307  0.00  0.00    +0.000 OA
ATOM     32  H   UNL     1       2.744  11.397  16.862  0.00  0.00    +0.000 HD
ATOM     33  H   UNL     1       2.191  12.139  18.343  0.00  0.00    +0.000 HD
ENDBRANCH  22  30
ENDBRANCH  21  28
ENDBRANCH  20  21
ENDBRANCH   1  20
TORSDOF 6
ENDMDL
MODEL 6
REMARK VINA RESULT:      -8.6      1.757      2.157
REMARK  Name = 
REMARK  6 active torsions:
REMARK  status: ('A' for Active; 'I' for Inactive)
REMARK    1  A    between atoms: C_2  and  C_4
REMARK    2  A    between atoms: C_10  and  O_11
REMARK    3  A    between atoms: O_11  and  C_12
REMARK    4  A    between atoms: C_12  and  C_13
REMARK    5  A    between atoms: N_15  and  C_16
REMARK    6  A    between atoms: C_16  and  C_17
REMARK                            x       y       z     vdW  Elec       q    Type
REMARK                         _______ _______ _______ _____ _____    ______ ____
ROOT
ATOM      1  C   UNL     1       2.101   7.334  19.057  0.00  0.00    +0.000 C 
ATOM      2  O   UNL     1       2.210   7.252  17.838  0.00  0.00    +0.000 OA
ATOM      3  N   UNL     1       2.336   6.298  19.939  0.00  0.00    +0.000 N 
ATOM      4  H   UNL     1       1.982   6.405  20.879  0.00  0.00    +0.000 HD
ENDROOT
BRANCH   3   5
ATOM      5  C   UNL     1       2.654   4.929  19.529  0.00  0.00    +0.000 C 
ATOM      6  C   UNL     1       1.464   4.379  18.696  0.00  0.00    +0.000 C 
ATOM      7  C   UNL     1       1.472   2.861  18.873  0.00  0.00    +0.000 C 
ATOM      8  C   UNL     1       2.324   2.576  20.101  0.00  0.00    +0.000 C 
ATOM      9  C   UNL     1       2.591   3.940  20.722  0.00  0.00    +0.000 C 
BRANCH   5  10
ATOM     10  C   UNL     1       3.949   4.933  18.701  0.00  0.00    +0.000 A 
ATOM     11  C   UNL     1       5.194   5.284  19.255  0.00  0.00    +0.000 A 
ATOM     12  C   UNL     1       6.365   5.261  18.495  0.00  0.00    +0.000 A 
ATOM     13  C   UNL     1       6.320   4.917  17.151  0.00  0.00    +0.000 A 
ATOM     14  C   UNL     1       5.104   4.569  16.567  0.00  0.00    +0.000 A 
ATOM     15  C   UNL     1       3.929   4.590  17.329  0.00  0.00    +0.000 A 
ATOM     16  O   UNL     1       4.986   4.206  15.248  0.00  0.00    +0.000 OA
ATOM     17  C   UNL     1       6.263   3.904  14.667  0.00  0.00    +0.000 C 
ATOM     18  C   UNL     1       7.302   4.943  15.058  0.00  0.00    +0.000 C 
ATOM     19  O   UNL     1       7.510   4.939  16.473  0.00  0.00    +0.000 OA
ENDBRANCH   5  10
ENDBRANCH   3   5
BRANCH   1  20
ATOM     20  C   UNL     1       1.783   8.656  19.746  0.00  0.00    +0.000 C 
BRANCH  20  21
ATOM     21  O   UNL     1       1.607   9.730  18.823  0.00  0.00    +0.000 OA
BRANCH  21  28
ATOM     22  C   UNL     1      -0.119  11.218  19.638  0.00  0.00    +0.000 A 
ATOM     23  C   UNL     1      -1.445  11.693  19.538  0.00  0.00    +0.000 A 
ATOM     24  C   UNL     1      -2.309  11.198  18.567  0.00  0.00    +0.000 A 
ATOM     25 CL   UNL     1      -3.919  11.791  18.451  0.00  0.00    +0.000 Cl
ATOM     26  C   UNL     1      -1.883  10.223  17.683  0.00  0.00    +0.000 A 
ATOM     27  C   UNL     1      -0.582   9.731  17.777  0.00  0.00    +0.000 A 
ATOM     28  C   UNL     1       0.324  10.225  18.733  0.00  0.00    +0.000 A 
BRANCH  22  30
ATOM     29  N   UNL     1       1.807  12.582  20.321  0.00  0.00    +0.000 N 
ATOM     30  C   UNL     1       0.702  11.873  20.707  0.00  0.00    +0.000 C 
ATOM     31  O   UNL     1       0.406  11.801  21.889  0.00  0.00    +0.000 OA
ATOM     32  H   UNL     1       2.381  12.995  21.046  0.00  0.00    +0.000 HD
ATOM     33  H   UNL     1       2.130  12.592  19.366  0.00  0.00    +0.000 HD
ENDBRANCH  22  30
ENDBRANCH  21  28
ENDBRANCH  20  21
ENDBRANCH   1  20
TORSDOF 6
ENDMDL
MODEL 7
REMARK VINA RESULT:      -8.5      2.053      2.810
REMARK  Name = 
REMARK  6 active torsions:
REMARK  status: ('A' for Active; 'I' for Inactive)
REMARK    1  A    between atoms: C_2  and  C_4
REMARK    2  A    between atoms: C_10  and  O_11
REMARK    3  A    between atoms: O_11  and  C_12
REMARK    4  A    between atoms: C_12  and  C_13
REMARK    5  A    between atoms: N_15  and  C_16
REMARK    6  A    between atoms: C_16  and  C_17
REMARK                            x       y       z     vdW  Elec       q    Type
REMARK                         _______ _______ _______ _____ _____    ______ ____
ROOT
ATOM      1  C   UNL     1       1.861   7.133  20.214  0.00  0.00    +0.000 C 
ATOM      2  O   UNL     1       2.002   7.140  18.996  0.00  0.00    +0.000 OA
ATOM      3  N   UNL     1       1.940   6.006  21.008  0.00  0.00    +0.000 N 
ATOM      4  H   UNL     1       1.568   6.077  21.945  0.00  0.00    +0.000 HD
ENDROOT
BRANCH   3   5
ATOM      5  C   UNL     1       2.104   4.647  20.489  0.00  0.00    +0.000 C 
ATOM      6  C   UNL     1       0.758   4.200  19.855  0.00  0.00    +0.000 C 
ATOM      7  C   UNL     1       0.711   2.676  19.960  0.00  0.00    +0.000 C 
ATOM      8  C   UNL     1       1.746   2.285  21.005  0.00  0.00    +0.000 C 
ATOM      9  C   UNL     1       2.193   3.600  21.629  0.00  0.00    +0.000 C 
BRANCH   5  10
ATOM     10  C   UNL     1       3.234   4.633  19.447  0.00  0.00    +0.000 A 
ATOM     11  C   UNL     1       3.004   4.329  18.093  0.00  0.00    +0.000 A 
ATOM     12  C   UNL     1       4.037   4.343  17.154  0.00  0.00    +0.000 A 
ATOM     13  C   UNL     1       5.337   4.630  17.549  0.00  0.00    +0.000 A 
ATOM     14  C   UNL     1       5.603   4.931  18.883  0.00  0.00    +0.000 A 
ATOM     15  C   UNL     1       4.567   4.919  19.825  0.00  0.00    +0.000 A 
ATOM     16  O   UNL     1       6.861   5.237  19.343  0.00  0.00    +0.000 OA
ATOM     17  C   UNL     1       7.758   5.538  18.264  0.00  0.00    +0.000 C 
ATOM     18  C   UNL     1       7.609   4.536  17.132  0.00  0.00    +0.000 C 
ATOM     19  O   UNL     1       6.295   4.602  16.570  0.00  0.00    +0.000 OA
ENDBRANCH   5  10
ENDBRANCH   3   5
BRANCH   1  20
ATOM     20  C   UNL     1       1.681   8.421  21.008  0.00  0.00    +0.000 C 
BRANCH  20  21
ATOM     21  O   UNL     1       0.338   8.905  20.977  0.00  0.00    +0.000 OA
BRANCH  21  28
ATOM     22  C   UNL     1      -0.394  11.187  21.310  0.00  0.00    +0.000 A 
ATOM     23  C   UNL     1      -0.559  12.488  20.786  0.00  0.00    +0.000 A 
ATOM     24  C   UNL     1      -0.160  12.789  19.488  0.00  0.00    +0.000 A 
ATOM     25 CL   UNL     1      -0.359  14.379  18.864  0.00  0.00    +0.000 Cl
ATOM     26  C   UNL     1       0.403  11.813  18.684  0.00  0.00    +0.000 A 
ATOM     27  C   UNL     1       0.558  10.520  19.180  0.00  0.00    +0.000 A 
ATOM     28  C   UNL     1       0.185  10.187  20.495  0.00  0.00    +0.000 A 
BRANCH  22  30
ATOM     29  N   UNL     1      -0.856   9.761  23.258  0.00  0.00    +0.000 N 
ATOM     30  C   UNL     1      -0.835  11.025  22.733  0.00  0.00    +0.000 C 
ATOM     31  O   UNL     1      -1.158  11.978  23.426  0.00  0.00    +0.000 OA
ATOM     32  H   UNL     1      -1.188   9.649  24.208  0.00  0.00    +0.000 HD
ATOM     33  H   UNL     1      -0.680   8.944  22.693  0.00  0.00    +0.000 HD
ENDBRANCH  22  30
ENDBRANCH  21  28
ENDBRANCH  20  21
ENDBRANCH   1  20
TORSDOF 6
ENDMDL
MODEL 8
REMARK VINA RESULT:      -8.4      1.470      2.005
REMARK  Name = 
REMARK  6 active torsions:
REMARK  status: ('A' for Active; 'I' for Inactive)
REMARK    1  A    between atoms: C_2  and  C_4
REMARK    2  A    between atoms: C_10  and  O_11
REMARK    3  A    between atoms: O_11  and  C_12
REMARK    4  A    between atoms: C_12  and  C_13
REMARK    5  A    between atoms: N_15  and  C_16
REMARK    6  A    between atoms: C_16  and  C_17
REMARK                            x       y       z     vdW  Elec       q    Type
REMARK                         _______ _______ _______ _____ _____    ______ ____
ROOT
ATOM      1  C   UNL     1       1.825   7.169  20.225  0.00  0.00    +0.000 C 
ATOM      2  O   UNL     1       1.916   7.165  19.002  0.00  0.00    +0.000 OA
ATOM      3  N   UNL     1       1.952   6.051  21.026  0.00  0.00    +0.000 N 
ATOM      4  H   UNL     1       1.617   6.127  21.976  0.00  0.00    +0.000 HD
ENDROOT
BRANCH   3   5
ATOM      5  C   UNL     1       2.115   4.689  20.514  0.00  0.00    +0.000 C 
ATOM      6  C   UNL     1       0.763   4.232  19.901  0.00  0.00    +0.000 C 
ATOM      7  C   UNL     1       0.725   2.708  20.017  0.00  0.00    +0.000 C 
ATOM      8  C   UNL     1       1.776   2.330  21.052  0.00  0.00    +0.000 C 
ATOM      9  C   UNL     1       2.224   3.651  21.660  0.00  0.00    +0.000 C 
BRANCH   5  10
ATOM     10  C   UNL     1       3.232   4.674  19.457  0.00  0.00    +0.000 A 
ATOM     11  C   UNL     1       2.980   4.389  18.103  0.00  0.00    +0.000 A 
ATOM     12  C   UNL     1       4.002   4.401  17.151  0.00  0.00    +0.000 A 
ATOM     13  C   UNL     1       5.310   4.665  17.532  0.00  0.00    +0.000 A 
ATOM     14  C   UNL     1       5.597   4.946  18.866  0.00  0.00    +0.000 A 
ATOM     15  C   UNL     1       4.573   4.937  19.821  0.00  0.00    +0.000 A 
ATOM     16  O   UNL     1       6.865   5.230  19.314  0.00  0.00    +0.000 OA
ATOM     17  C   UNL     1       7.752   5.533  18.227  0.00  0.00    +0.000 C 
ATOM     18  C   UNL     1       7.575   4.547  17.084  0.00  0.00    +0.000 C 
ATOM     19  O   UNL     1       6.255   4.637  16.541  0.00  0.00    +0.000 OA
ENDBRANCH   5  10
ENDBRANCH   3   5
BRANCH   1  20
ATOM     20  C   UNL     1       1.657   8.463  21.012  0.00  0.00    +0.000 C 
BRANCH  20  21
ATOM     21  O   UNL     1       1.000   9.484  20.261  0.00  0.00    +0.000 OA
BRANCH  21  28
ATOM     22  C   UNL     1       0.628  11.832  20.709  0.00  0.00    +0.000 A 
ATOM     23  C   UNL     1       0.014  12.823  21.506  0.00  0.00    +0.000 A 
ATOM     24  C   UNL     1      -0.810  12.474  22.571  0.00  0.00    +0.000 A 
ATOM     25 CL   UNL     1      -1.558  13.690  23.528  0.00  0.00    +0.000 Cl
ATOM     26  C   UNL     1      -1.036  11.142  22.873  0.00  0.00    +0.000 A 
ATOM     27  C   UNL     1      -0.424  10.151  22.107  0.00  0.00    +0.000 A 
ATOM     28  C   UNL     1       0.396  10.469  21.010  0.00  0.00    +0.000 A 
BRANCH  22  30
ATOM     29  N   UNL     1       1.461  11.655  18.404  0.00  0.00    +0.000 N 
ATOM     30  C   UNL     1       1.453  12.362  19.577  0.00  0.00    +0.000 C 
ATOM     31  O   UNL     1       2.096  13.396  19.669  0.00  0.00    +0.000 OA
ATOM     32  H   UNL     1       2.047  11.996  17.652  0.00  0.00    +0.000 HD
ATOM     33  H   UNL     1       1.014  10.756  18.319  0.00  0.00    +0.000 HD
ENDBRANCH  22  30
ENDBRANCH  21  28
ENDBRANCH  20  21
ENDBRANCH   1  20
TORSDOF 6
ENDMDL
MODEL 9
REMARK VINA RESULT:      -8.3      5.788      8.109
REMARK  Name = 
REMARK  6 active torsions:
REMARK  status: ('A' for Active; 'I' for Inactive)
REMARK    1  A    between atoms: C_2  and  C_4
REMARK    2  A    between atoms: C_10  and  O_11
REMARK    3  A    between atoms: O_11  and  C_12
REMARK    4  A    between atoms: C_12  and  C_13
REMARK    5  A    between atoms: N_15  and  C_16
REMARK    6  A    between atoms: C_16  and  C_17
REMARK                            x       y       z     vdW  Elec       q    Type
REMARK                         _______ _______ _______ _____ _____    ______ ____
ROOT
ATOM      1  C   UNL     1       7.609   7.860  17.799  0.00  0.00    +0.000 C 
ATOM      2  O   UNL     1       8.044   7.017  18.576  0.00  0.00    +0.000 OA
ATOM      3  N   UNL     1       6.623   7.628  16.859  0.00  0.00    +0.000 N 
ATOM      4  H   UNL     1       6.522   8.312  16.122  0.00  0.00    +0.000 HD
ENDROOT
BRANCH   3   5
ATOM      5  C   UNL     1       6.033   6.315  16.596  0.00  0.00    +0.000 C 
ATOM      6  C   UNL     1       7.152   5.244  16.711  0.00  0.00    +0.000 C 
ATOM      7  C   UNL     1       6.738   4.081  15.810  0.00  0.00    +0.000 C 
ATOM      8  C   UNL     1       5.677   4.628  14.865  0.00  0.00    +0.000 C 
ATOM      9  C   UNL     1       5.677   6.132  15.098  0.00  0.00    +0.000 C 
BRANCH   5  10
ATOM     10  C   UNL     1       4.910   6.049  17.612  0.00  0.00    +0.000 A 
ATOM     11  C   UNL     1       3.864   6.963  17.831  0.00  0.00    +0.000 A 
ATOM     12  C   UNL     1       2.839   6.696  18.742  0.00  0.00    +0.000 A 
ATOM     13  C   UNL     1       2.849   5.523  19.483  0.00  0.00    +0.000 A 
ATOM     14  C   UNL     1       3.873   4.597  19.295  0.00  0.00    +0.000 A 
ATOM     15  C   UNL     1       4.900   4.862  18.381  0.00  0.00    +0.000 A 
ATOM     16  O   UNL     1       3.941   3.409  19.983  0.00  0.00    +0.000 OA
ATOM     17  C   UNL     1       2.697   3.101  20.627  0.00  0.00    +0.000 C 
ATOM     18  C   UNL     1       2.121   4.324  21.321  0.00  0.00    +0.000 C 
ATOM     19  O   UNL     1       1.819   5.348  20.368  0.00  0.00    +0.000 OA
ENDBRANCH   5  10
ENDBRANCH   3   5
BRANCH   1  20
ATOM     20  C   UNL     1       8.054   9.315  17.864  0.00  0.00    +0.000 C 
BRANCH  20  21
ATOM     21  O   UNL     1       8.865   9.593  19.005  0.00  0.00    +0.000 OA
BRANCH  21  28
ATOM     22  C   UNL     1       9.658  11.655  19.993  0.00  0.00    +0.000 A 
ATOM     23  C   UNL     1      10.435  12.828  19.872  0.00  0.00    +0.000 A 
ATOM     24  C   UNL     1      11.168  13.081  18.717  0.00  0.00    +0.000 A 
ATOM     25 CL   UNL     1      12.117  14.509  18.585  0.00  0.00    +0.000 Cl
ATOM     26  C   UNL     1      11.142  12.187  17.661  0.00  0.00    +0.000 A 
ATOM     27  C   UNL     1      10.367  11.032  17.758  0.00  0.00    +0.000 A 
ATOM     28  C   UNL     1       9.632  10.735  18.919  0.00  0.00    +0.000 A 
BRANCH  22  30
ATOM     29  N   UNL     1       8.375  12.614  21.857  0.00  0.00    +0.000 N 
ATOM     30  C   UNL     1       8.957  11.502  21.308  0.00  0.00    +0.000 C 
ATOM     31  O   UNL     1       8.883  10.429  21.886  0.00  0.00    +0.000 OA
ATOM     32  H   UNL     1       7.932  12.517  22.762  0.00  0.00    +0.000 HD
ATOM     33  H   UNL     1       8.488  13.531  21.454  0.00  0.00    +0.000 HD
ENDBRANCH  22  30
ENDBRANCH  21  28
ENDBRANCH  20  21
ENDBRANCH   1  20
TORSDOF 6
ENDMDL
