MODEL 1
REMARK VINA RESULT:      -8.3      0.000      0.000
REMARK  Name = 
REMARK  5 active torsions:
REMARK  status: ('A' for Active; 'I' for Inactive)
REMARK    1  A    between atoms: C_2  and  C_16
REMARK    2  A    between atoms: N_3  and  C_4
REMARK    3  A    between atoms: C_4  and  C_5
REMARK    4  A    between atoms: C_5  and  O_7
REMARK    5  A    between atoms: C_20  and  N_21
REMARK                            x       y       z     vdW  Elec       q    Type
REMARK                         _______ _______ _______ _____ _____    ______ ____
ROOT
ATOM      1  O   UNL     1       1.404   8.745  21.531  0.00  0.00    +0.000 OA
ATOM      2  C   UNL     1       1.517   8.294  20.401  0.00  0.00    +0.000 C 
ATOM      3  N   UNL     1       1.193   8.968  19.246  0.00  0.00    +0.000 N 
ATOM      4  H   UNL     1       1.258   8.495  18.352  0.00  0.00    +0.000 HD
ENDROOT
BRANCH   3   5
ATOM      5  C   UNL     1       0.716  10.346  19.186  0.00  0.00    +0.000 C 
ATOM      6  C   UNL     1       0.489  10.975  20.583  0.00  0.00    +0.000 C 
ATOM      7  C   UNL     1      -0.737  11.895  20.464  0.00  0.00    +0.000 C 
ATOM      8  C   UNL     1      -1.477  11.294  19.312  0.00  0.00    +0.000 A 
ATOM      9  C   UNL     1      -2.796  11.500  18.953  0.00  0.00    +0.000 A 
ATOM     10  C   UNL     1      -3.297  10.815  17.840  0.00  0.00    +0.000 A 
ATOM     11  C   UNL     1      -2.472   9.963  17.091  0.00  0.00    +0.000 A 
ATOM     12  C   UNL     1      -1.137   9.779  17.444  0.00  0.00    +0.000 A 
ATOM     13  C   UNL     1      -0.657  10.440  18.566  0.00  0.00    +0.000 A 
BRANCH   5  14
ATOM     14  C   UNL     1       1.805  11.152  18.427  0.00  0.00    +0.000 C 
ATOM     15  O   UNL     1       2.187  12.261  18.799  0.00  0.00    +0.000 OA
BRANCH  14  16
ATOM     16  O   UNL     1       2.318  10.579  17.312  0.00  0.00    +0.000 OA
ATOM     17  H   UNL     1       2.085  11.028  16.475  0.00  0.00    +0.000 HD
ENDBRANCH  14  16
ENDBRANCH   5  14
ENDBRANCH   3   5
BRANCH   2  18
ATOM     18  C   UNL     1       2.021   6.914  20.207  0.00  0.00    +0.000 A 
ATOM     19  C   UNL     1       1.373   5.826  20.797  0.00  0.00    +0.000 A 
ATOM     20  C   UNL     1       1.859   4.544  20.589  0.00  0.00    +0.000 A 
ATOM     21  C   UNL     1       2.969   4.348  19.770  0.00  0.00    +0.000 A 
ATOM     22  C   UNL     1       3.622   5.419  19.145  0.00  0.00    +0.000 A 
ATOM     23  C   UNL     1       3.139   6.713  19.384  0.00  0.00    +0.000 A 
BRANCH  22  24
ATOM     24  N   UNL     1       4.718   5.201  18.273  0.00  0.00    +0.000 N 
ATOM     25  C   UNL     1       4.582   5.138  16.837  0.00  0.00    +0.000 C 
ATOM     26  C   UNL     1       5.868   4.486  16.372  0.00  0.00    +0.000 C 
ATOM     27  C   UNL     1       6.886   4.919  17.407  0.00  0.00    +0.000 C 
ATOM     28  C   UNL     1       6.064   5.111  18.654  0.00  0.00    +0.000 C 
ATOM     29  O   UNL     1       6.568   5.217  19.762  0.00  0.00    +0.000 OA
ENDBRANCH  22  24
ENDBRANCH   2  18
TORSDOF 5
ENDMDL
MODEL 2
REMARK VINA RESULT:      -8.1      1.146      1.220
REMARK  Name = 
REMARK  5 active torsions:
REMARK  status: ('A' for Active; 'I' for Inactive)
REMARK    1  A    between atoms: C_2  and  C_16
REMARK    2  A    between atoms: N_3  and  C_4
REMARK    3  A    between atoms: C_4  and  C_5
REMARK    4  A    between atoms: C_5  and  O_7
REMARK    5  A    between atoms: C_20  and  N_21
REMARK                            x       y       z     vdW  Elec       q    Type
REMARK                         _______ _______ _______ _____ _____    ______ ____
ROOT
ATOM      1  O   UNL     1       1.367   8.965  21.493  0.00  0.00    +0.000 OA
ATOM      2  C   UNL     1       1.400   8.517  20.358  0.00  0.00    +0.000 C 
ATOM      3  N   UNL     1       0.960   9.179  19.235  0.00  0.00    +0.000 N 
ATOM      4  H   UNL     1       0.964   8.706  18.338  0.00  0.00    +0.000 HD
ENDROOT
BRANCH   3   5
ATOM      5  C   UNL     1       0.437  10.541  19.215  0.00  0.00    +0.000 C 
ATOM      6  C   UNL     1       0.086  11.080  20.625  0.00  0.00    +0.000 C 
ATOM      7  C   UNL     1      -1.161  11.964  20.467  0.00  0.00    +0.000 C 
ATOM      8  C   UNL     1      -1.793  11.407  19.230  0.00  0.00    +0.000 A 
ATOM      9  C   UNL     1      -3.090  11.590  18.786  0.00  0.00    +0.000 A 
ATOM     10  C   UNL     1      -3.482  10.955  17.603  0.00  0.00    +0.000 A 
ATOM     11  C   UNL     1      -2.574  10.175  16.871  0.00  0.00    +0.000 A 
ATOM     12  C   UNL     1      -1.263  10.015  17.312  0.00  0.00    +0.000 A 
ATOM     13  C   UNL     1      -0.890  10.626  18.502  0.00  0.00    +0.000 A 
BRANCH   5  14
ATOM     14  C   UNL     1       1.548  11.426  18.586  0.00  0.00    +0.000 C 
ATOM     15  O   UNL     1       1.866  12.518  19.052  0.00  0.00    +0.000 OA
BRANCH  14  16
ATOM     16  O   UNL     1       2.153  10.940  17.475  0.00  0.00    +0.000 OA
ATOM     17  H   UNL     1       2.793  11.550  17.057  0.00  0.00    +0.000 HD
ENDBRANCH  14  16
ENDBRANCH   5  14
ENDBRANCH   3   5
BRANCH   2  18
ATOM     18  C   UNL     1       1.928   7.152  20.121  0.00  0.00    +0.000 A 
ATOM     19  C   UNL     1       1.548   6.086  20.940  0.00  0.00    +0.000 A 
ATOM     20  C   UNL     1       2.048   4.818  20.689  0.00  0.00    +0.000 A 
ATOM     21  C   UNL     1       2.898   4.610  19.604  0.00  0.00    +0.000 A 
ATOM     22  C   UNL     1       3.275   5.656  18.752  0.00  0.00    +0.000 A 
ATOM     23  C   UNL     1       2.785   6.940  19.032  0.00  0.00    +0.000 A 
BRANCH  22  24
ATOM     24  N   UNL     1       4.099   5.422  17.623  0.00  0.00    +0.000 N 
ATOM     25  C   UNL     1       4.993   6.417  17.079  0.00  0.00    +0.000 C 
ATOM     26  C   UNL     1       5.322   5.901  15.693  0.00  0.00    +0.000 C 
ATOM     27  C   UNL     1       5.239   4.395  15.841  0.00  0.00    +0.000 C 
ATOM     28  C   UNL     1       4.234   4.202  16.946  0.00  0.00    +0.000 C 
ATOM     29  O   UNL     1       3.716   3.121  17.179  0.00  0.00    +0.000 OA
ENDBRANCH  22  24
ENDBRANCH   2  18
TORSDOF 5
ENDMDL
MODEL 3
REMARK VINA RESULT:      -8.1      1.084      1.213
REMARK  Name = 
REMARK  5 active torsions:
REMARK  status: ('A' for Active; 'I' for Inactive)
REMARK    1  A    between atoms: C_2  and  C_16
REMARK    2  A    between atoms: N_3  and  C_4
REMARK    3  A    between atoms: C_4  and  C_5
REMARK    4  A    between atoms: C_5  and  O_7
REMARK    5  A    between atoms: C_20  and  N_21
REMARK                            x       y       z     vdW  Elec       q    Type
REMARK                         _______ _______ _______ _____ _____    ______ ____
ROOT
ATOM      1  O   UNL     1       1.971   9.511  17.714  0.00  0.00    +0.000 OA
ATOM      2  C   UNL     1       1.653   9.000  18.776  0.00  0.00    +0.000 C 
ATOM      3  N   UNL     1       0.806   9.565  19.702  0.00  0.00    +0.000 N 
ATOM      4  H   UNL     1       0.647   9.100  20.589  0.00  0.00    +0.000 HD
ENDROOT
BRANCH   3   5
ATOM      5  C   UNL     1       0.113  10.839  19.536  0.00  0.00    +0.000 C 
ATOM      6  C   UNL     1      -0.572  11.334  20.835  0.00  0.00    +0.000 C 
ATOM      7  C   UNL     1      -1.877  12.029  20.414  0.00  0.00    +0.000 C 
ATOM      8  C   UNL     1      -2.178  11.376  19.102  0.00  0.00    +0.000 A 
ATOM      9  C   UNL     1      -3.379  11.367  18.417  0.00  0.00    +0.000 A 
ATOM     10  C   UNL     1      -3.447  10.671  17.205  0.00  0.00    +0.000 A 
ATOM     11  C   UNL     1      -2.317  10.024  16.684  0.00  0.00    +0.000 A 
ATOM     12  C   UNL     1      -1.103  10.057  17.368  0.00  0.00    +0.000 A 
ATOM     13  C   UNL     1      -1.053  10.725  18.584  0.00  0.00    +0.000 A 
BRANCH   5  14
ATOM     14  C   UNL     1       1.189  11.868  19.095  0.00  0.00    +0.000 C 
ATOM     15  O   UNL     1       2.058  12.284  19.858  0.00  0.00    +0.000 OA
BRANCH  14  16
ATOM     16  O   UNL     1       1.121  12.304  17.813  0.00  0.00    +0.000 OA
ATOM     17  H   UNL     1       0.228  12.570  17.517  0.00  0.00    +0.000 HD
ENDBRANCH  14  16
ENDBRANCH   5  14
ENDBRANCH   3   5
BRANCH   2  18
ATOM     18  C   UNL     1       2.208   7.678  19.151  0.00  0.00    +0.000 A 
ATOM     19  C   UNL     1       1.610   6.909  20.153  0.00  0.00    +0.000 A 
ATOM     20  C   UNL     1       2.143   5.671  20.476  0.00  0.00    +0.000 A 
ATOM     21  C   UNL     1       3.250   5.189  19.779  0.00  0.00    +0.000 A 
ATOM     22  C   UNL     1       3.853   5.928  18.752  0.00  0.00    +0.000 A 
ATOM     23  C   UNL     1       3.322   7.190  18.453  0.00  0.00    +0.000 A 
BRANCH  22  24
ATOM     24  N   UNL     1       4.945   5.404  18.016  0.00  0.00    +0.000 N 
ATOM     25  C   UNL     1       4.908   5.201  16.587  0.00  0.00    +0.000 C 
ATOM     26  C   UNL     1       6.068   4.265  16.316  0.00  0.00    +0.000 C 
ATOM     27  C   UNL     1       7.071   4.615  17.397  0.00  0.00    +0.000 C 
ATOM     28  C   UNL     1       6.213   5.104  18.533  0.00  0.00    +0.000 C 
ATOM     29  O   UNL     1       6.643   5.241  19.668  0.00  0.00    +0.000 OA
ENDBRANCH  22  24
ENDBRANCH   2  18
TORSDOF 5
ENDMDL
MODEL 4
REMARK VINA RESULT:      -8.1      2.423      8.079
REMARK  Name = 
REMARK  5 active torsions:
REMARK  status: ('A' for Active; 'I' for Inactive)
REMARK    1  A    between atoms: C_2  and  C_16
REMARK    2  A    between atoms: N_3  and  C_4
REMARK    3  A    between atoms: C_4  and  C_5
REMARK    4  A    between atoms: C_5  and  O_7
REMARK    5  A    between atoms: C_20  and  N_21
REMARK                            x       y       z     vdW  Elec       q    Type
REMARK                         _______ _______ _______ _____ _____    ______ ____
ROOT
ATOM      1  O   UNL     1       2.031   6.479  20.385  0.00  0.00    +0.000 OA
ATOM      2  C   UNL     1       2.338   7.113  19.388  0.00  0.00    +0.000 C 
ATOM      3  N   UNL     1       3.168   6.659  18.389  0.00  0.00    +0.000 N 
ATOM      4  H   UNL     1       3.423   7.277  17.626  0.00  0.00    +0.000 HD
ENDROOT
BRANCH   3   5
ATOM      5  C   UNL     1       3.766   5.329  18.335  0.00  0.00    +0.000 C 
ATOM      6  C   UNL     1       4.597   4.982  19.596  0.00  0.00    +0.000 C 
ATOM      7  C   UNL     1       5.794   4.141  19.124  0.00  0.00    +0.000 C 
ATOM      8  C   UNL     1       5.944   4.570  17.699  0.00  0.00    +0.000 A 
ATOM      9  C   UNL     1       7.038   4.392  16.872  0.00  0.00    +0.000 A 
ATOM     10  C   UNL     1       6.973   4.895  15.568  0.00  0.00    +0.000 A 
ATOM     11  C   UNL     1       5.817   5.538  15.102  0.00  0.00    +0.000 A 
ATOM     12  C   UNL     1       4.709   5.693  15.934  0.00  0.00    +0.000 A 
ATOM     13  C   UNL     1       4.793   5.217  17.235  0.00  0.00    +0.000 A 
BRANCH   5  14
ATOM     14  C   UNL     1       2.588   4.326  18.201  0.00  0.00    +0.000 C 
ATOM     15  O   UNL     1       1.959   4.181  17.155  0.00  0.00    +0.000 OA
BRANCH  14  16
ATOM     16  O   UNL     1       2.268   3.614  19.309  0.00  0.00    +0.000 OA
ATOM     17  H   UNL     1       1.944   4.148  20.061  0.00  0.00    +0.000 HD
ENDBRANCH  14  16
ENDBRANCH   5  14
ENDBRANCH   3   5
BRANCH   2  18
ATOM     18  C   UNL     1       1.819   8.488  19.203  0.00  0.00    +0.000 A 
ATOM     19  C   UNL     1       2.094   9.206  18.036  0.00  0.00    +0.000 A 
ATOM     20  C   UNL     1       1.586  10.487  17.884  0.00  0.00    +0.000 A 
ATOM     21  C   UNL     1       0.779  11.035  18.879  0.00  0.00    +0.000 A 
ATOM     22  C   UNL     1       0.465  10.328  20.047  0.00  0.00    +0.000 A 
ATOM     23  C   UNL     1       1.007   9.045  20.203  0.00  0.00    +0.000 A 
BRANCH  22  24
ATOM     24  N   UNL     1      -0.398  10.877  21.027  0.00  0.00    +0.000 N 
ATOM     25  C   UNL     1      -1.575  11.646  20.699  0.00  0.00    +0.000 C 
ATOM     26  C   UNL     1      -1.922  12.361  21.988  0.00  0.00    +0.000 C 
ATOM     27  C   UNL     1      -1.439  11.412  23.066  0.00  0.00    +0.000 C 
ATOM     28  C   UNL     1      -0.295  10.684  22.412  0.00  0.00    +0.000 C 
ATOM     29  O   UNL     1       0.506  10.016  23.047  0.00  0.00    +0.000 OA
ENDBRANCH  22  24
ENDBRANCH   2  18
TORSDOF 5
ENDMDL
MODEL 5
REMARK VINA RESULT:      -8.1      2.426      7.872
REMARK  Name = 
REMARK  5 active torsions:
REMARK  status: ('A' for Active; 'I' for Inactive)
REMARK    1  A    between atoms: C_2  and  C_16
REMARK    2  A    between atoms: N_3  and  C_4
REMARK    3  A    between atoms: C_4  and  C_5
REMARK    4  A    between atoms: C_5  and  O_7
REMARK    5  A    between atoms: C_20  and  N_21
REMARK                            x       y       z     vdW  Elec       q    Type
REMARK                         _______ _______ _______ _____ _____    ______ ____
ROOT
ATOM      1  O   UNL     1       1.888   5.972  17.757  0.00  0.00    +0.000 OA
ATOM      2  C   UNL     1       2.661   6.814  18.187  0.00  0.00    +0.000 C 
ATOM      3  N   UNL     1       4.000   6.607  18.426  0.00  0.00    +0.000 N 
ATOM      4  H   UNL     1       4.556   7.343  18.845  0.00  0.00    +0.000 HD
ENDROOT
BRANCH   3   5
ATOM      5  C   UNL     1       4.719   5.367  18.150  0.00  0.00    +0.000 C 
ATOM      6  C   UNL     1       4.831   5.050  16.637  0.00  0.00    +0.000 C 
ATOM      7  C   UNL     1       4.729   3.523  16.493  0.00  0.00    +0.000 C 
ATOM      8  C   UNL     1       3.969   3.135  17.722  0.00  0.00    +0.000 A 
ATOM      9  C   UNL     1       3.312   1.945  17.970  0.00  0.00    +0.000 A 
ATOM     10  C   UNL     1       2.640   1.799  19.189  0.00  0.00    +0.000 A 
ATOM     11  C   UNL     1       2.658   2.824  20.146  0.00  0.00    +0.000 A 
ATOM     12  C   UNL     1       3.342   4.012  19.899  0.00  0.00    +0.000 A 
ATOM     13  C   UNL     1       3.982   4.159  18.675  0.00  0.00    +0.000 A 
BRANCH   5  14
ATOM     14  C   UNL     1       6.141   5.545  18.747  0.00  0.00    +0.000 C 
ATOM     15  O   UNL     1       6.510   4.960  19.764  0.00  0.00    +0.000 OA
BRANCH  14  16
ATOM     16  O   UNL     1       6.970   6.398  18.096  0.00  0.00    +0.000 OA
ATOM     17  H   UNL     1       6.659   7.324  18.060  0.00  0.00    +0.000 HD
ENDBRANCH  14  16
ENDBRANCH   5  14
ENDBRANCH   3   5
BRANCH   2  18
ATOM     18  C   UNL     1       2.164   8.172  18.510  0.00  0.00    +0.000 A 
ATOM     19  C   UNL     1       2.235   9.202  17.570  0.00  0.00    +0.000 A 
ATOM     20  C   UNL     1       1.752  10.461  17.893  0.00  0.00    +0.000 A 
ATOM     21  C   UNL     1       1.171  10.680  19.141  0.00  0.00    +0.000 A 
ATOM     22  C   UNL     1       1.062   9.658  20.094  0.00  0.00    +0.000 A 
ATOM     23  C   UNL     1       1.579   8.397  19.765  0.00  0.00    +0.000 A 
BRANCH  22  24
ATOM     24  N   UNL     1       0.423   9.881  21.339  0.00  0.00    +0.000 N 
ATOM     25  C   UNL     1       0.883   9.297  22.576  0.00  0.00    +0.000 C 
ATOM     26  C   UNL     1      -0.296   9.445  23.516  0.00  0.00    +0.000 C 
ATOM     27  C   UNL     1      -0.986  10.704  23.031  0.00  0.00    +0.000 C 
ATOM     28  C   UNL     1      -0.658  10.745  21.562  0.00  0.00    +0.000 C 
ATOM     29  O   UNL     1      -1.243  11.477  20.779  0.00  0.00    +0.000 OA
ENDBRANCH  22  24
ENDBRANCH   2  18
TORSDOF 5
ENDMDL
MODEL 6
REMARK VINA RESULT:      -8.1      1.602      1.856
REMARK  Name = 
REMARK  5 active torsions:
REMARK  status: ('A' for Active; 'I' for Inactive)
REMARK    1  A    between atoms: C_2  and  C_16
REMARK    2  A    between atoms: N_3  and  C_4
REMARK    3  A    between atoms: C_4  and  C_5
REMARK    4  A    between atoms: C_5  and  O_7
REMARK    5  A    between atoms: C_20  and  N_21
REMARK                            x       y       z     vdW  Elec       q    Type
REMARK                         _______ _______ _______ _____ _____    ______ ____
ROOT
ATOM      1  O   UNL     1       1.911   9.974  17.621  0.00  0.00    +0.000 OA
ATOM      2  C   UNL     1       1.568   9.358  18.617  0.00  0.00    +0.000 C 
ATOM      3  N   UNL     1       0.661   9.808  19.550  0.00  0.00    +0.000 N 
ATOM      4  H   UNL     1       0.482   9.259  20.383  0.00  0.00    +0.000 HD
ENDROOT
BRANCH   3   5
ATOM      5  C   UNL     1      -0.074  11.066  19.466  0.00  0.00    +0.000 C 
ATOM      6  C   UNL     1      -0.726  11.482  20.808  0.00  0.00    +0.000 C 
ATOM      7  C   UNL     1      -2.064  12.155  20.463  0.00  0.00    +0.000 C 
ATOM      8  C   UNL     1      -2.392  11.553  19.134  0.00  0.00    +0.000 A 
ATOM      9  C   UNL     1      -3.616  11.539  18.490  0.00  0.00    +0.000 A 
ATOM     10  C   UNL     1      -3.706  10.896  17.250  0.00  0.00    +0.000 A 
ATOM     11  C   UNL     1      -2.577  10.307  16.663  0.00  0.00    +0.000 A 
ATOM     12  C   UNL     1      -1.342  10.346  17.306  0.00  0.00    +0.000 A 
ATOM     13  C   UNL     1      -1.268  10.960  18.549  0.00  0.00    +0.000 A 
BRANCH   5  14
ATOM     14  C   UNL     1       0.957  12.145  19.036  0.00  0.00    +0.000 C 
ATOM     15  O   UNL     1       1.872  12.515  19.769  0.00  0.00    +0.000 OA
BRANCH  14  16
ATOM     16  O   UNL     1       0.794  12.682  17.802  0.00  0.00    +0.000 OA
ATOM     17  H   UNL     1       0.838  12.039  17.066  0.00  0.00    +0.000 HD
ENDBRANCH  14  16
ENDBRANCH   5  14
ENDBRANCH   3   5
BRANCH   2  18
ATOM     18  C   UNL     1       2.157   8.028  18.899  0.00  0.00    +0.000 A 
ATOM     19  C   UNL     1       1.836   7.336  20.069  0.00  0.00    +0.000 A 
ATOM     20  C   UNL     1       2.392   6.088  20.302  0.00  0.00    +0.000 A 
ATOM     21  C   UNL     1       3.242   5.520  19.354  0.00  0.00    +0.000 A 
ATOM     22  C   UNL     1       3.561   6.181  18.160  0.00  0.00    +0.000 A 
ATOM     23  C   UNL     1       3.014   7.454  17.948  0.00  0.00    +0.000 A 
BRANCH  22  24
ATOM     24  N   UNL     1       4.384   5.570  17.182  0.00  0.00    +0.000 N 
ATOM     25  C   UNL     1       5.466   6.260  16.520  0.00  0.00    +0.000 C 
ATOM     26  C   UNL     1       5.766   5.403  15.308  0.00  0.00    +0.000 C 
ATOM     27  C   UNL     1       5.411   4.002  15.763  0.00  0.00    +0.000 C 
ATOM     28  C   UNL     1       4.335   4.225  16.792  0.00  0.00    +0.000 C 
ATOM     29  O   UNL     1       3.623   3.321  17.203  0.00  0.00    +0.000 OA
ENDBRANCH  22  24
ENDBRANCH   2  18
TORSDOF 5
ENDMDL
MODEL 7
REMARK VINA RESULT:      -8.1      1.495      1.711
REMARK  Name = 
REMARK  5 active torsions:
REMARK  status: ('A' for Active; 'I' for Inactive)
REMARK    1  A    between atoms: C_2  and  C_16
REMARK    2  A    between atoms: N_3  and  C_4
REMARK    3  A    between atoms: C_4  and  C_5
REMARK    4  A    between atoms: C_5  and  O_7
REMARK    5  A    between atoms: C_20  and  N_21
REMARK                            x       y       z     vdW  Elec       q    Type
REMARK                         _______ _______ _______ _____ _____    ______ ____
ROOT
ATOM      1  O   UNL     1       1.936   9.860  17.509  0.00  0.00    +0.000 OA
ATOM      2  C   UNL     1       1.651   9.263  18.535  0.00  0.00    +0.000 C 
ATOM      3  N   UNL     1       0.790   9.725  19.504  0.00  0.00    +0.000 N 
ATOM      4  H   UNL     1       0.660   9.192  20.357  0.00  0.00    +0.000 HD
ENDROOT
BRANCH   3   5
ATOM      5  C   UNL     1       0.041  10.976  19.433  0.00  0.00    +0.000 C 
ATOM      6  C   UNL     1      -0.583  11.391  20.789  0.00  0.00    +0.000 C 
ATOM      7  C   UNL     1      -1.936  12.050  20.474  0.00  0.00    +0.000 C 
ATOM      8  C   UNL     1      -2.290  11.439  19.155  0.00  0.00    +0.000 A 
ATOM      9  C   UNL     1      -3.527  11.410  18.540  0.00  0.00    +0.000 A 
ATOM     10  C   UNL     1      -3.641  10.762  17.305  0.00  0.00    +0.000 A 
ATOM     11  C   UNL     1      -2.520  10.181  16.693  0.00  0.00    +0.000 A 
ATOM     12  C   UNL     1      -1.271  10.235  17.307  0.00  0.00    +0.000 A 
ATOM     13  C   UNL     1      -1.173  10.855  18.546  0.00  0.00    +0.000 A 
BRANCH   5  14
ATOM     14  C   UNL     1       1.050  12.063  18.975  0.00  0.00    +0.000 C 
ATOM     15  O   UNL     1       2.045  12.362  19.633  0.00  0.00    +0.000 OA
BRANCH  14  16
ATOM     16  O   UNL     1       0.777  12.689  17.804  0.00  0.00    +0.000 OA
ATOM     17  H   UNL     1       0.656  13.657  17.875  0.00  0.00    +0.000 HD
ENDBRANCH  14  16
ENDBRANCH   5  14
ENDBRANCH   3   5
BRANCH   2  18
ATOM     18  C   UNL     1       2.265   7.943  18.812  0.00  0.00    +0.000 A 
ATOM     19  C   UNL     1       1.934   7.228  19.965  0.00  0.00    +0.000 A 
ATOM     20  C   UNL     1       2.515   5.990  20.195  0.00  0.00    +0.000 A 
ATOM     21  C   UNL     1       3.399   5.456  19.259  0.00  0.00    +0.000 A 
ATOM     22  C   UNL     1       3.729   6.140  18.082  0.00  0.00    +0.000 A 
ATOM     23  C   UNL     1       3.157   7.403  17.874  0.00  0.00    +0.000 A 
BRANCH  22  24
ATOM     24  N   UNL     1       4.589   5.563  17.115  0.00  0.00    +0.000 N 
ATOM     25  C   UNL     1       4.319   4.297  16.475  0.00  0.00    +0.000 C 
ATOM     26  C   UNL     1       5.651   3.891  15.879  0.00  0.00    +0.000 C 
ATOM     27  C   UNL     1       6.321   5.213  15.563  0.00  0.00    +0.000 C 
ATOM     28  C   UNL     1       5.743   6.157  16.584  0.00  0.00    +0.000 C 
ATOM     29  O   UNL     1       6.226   7.256  16.809  0.00  0.00    +0.000 OA
ENDBRANCH  22  24
ENDBRANCH   2  18
TORSDOF 5
ENDMDL
MODEL 8
REMARK VINA RESULT:      -8.0      2.287      8.216
REMARK  Name = 
REMARK  5 active torsions:
REMARK  status: ('A' for Active; 'I' for Inactive)
REMARK    1  A    between atoms: C_2  and  C_16
REMARK    2  A    between atoms: N_3  and  C_4
REMARK    3  A    between atoms: C_4  and  C_5
REMARK    4  A    between atoms: C_5  and  O_7
REMARK    5  A    between atoms: C_20  and  N_21
REMARK                            x       y       z     vdW  Elec       q    Type
REMARK                         _______ _______ _______ _____ _____    ______ ____
ROOT
ATOM      1  O   UNL     1       2.762   5.811  20.250  0.00  0.00    +0.000 OA
ATOM      2  C   UNL     1       2.962   6.538  19.289  0.00  0.00    +0.000 C 
ATOM      3  N   UNL     1       3.909   6.315  18.315  0.00  0.00    +0.000 N 
ATOM      4  H   UNL     1       4.052   7.004  17.585  0.00  0.00    +0.000 HD
ENDROOT
BRANCH   3   5
ATOM      5  C   UNL     1       4.783   5.148  18.247  0.00  0.00    +0.000 C 
ATOM      6  C   UNL     1       6.003   5.244  19.197  0.00  0.00    +0.000 C 
ATOM      7  C   UNL     1       7.185   4.578  18.475  0.00  0.00    +0.000 C 
ATOM      8  C   UNL     1       6.802   4.721  17.036  0.00  0.00    +0.000 A 
ATOM      9  C   UNL     1       7.617   4.596  15.926  0.00  0.00    +0.000 A 
ATOM     10  C   UNL     1       7.052   4.792  14.661  0.00  0.00    +0.000 A 
ATOM     11  C   UNL     1       5.687   5.082  14.522  0.00  0.00    +0.000 A 
ATOM     12  C   UNL     1       4.866   5.183  15.643  0.00  0.00    +0.000 A 
ATOM     13  C   UNL     1       5.441   5.015  16.895  0.00  0.00    +0.000 A 
BRANCH   5  14
ATOM     14  C   UNL     1       3.913   3.926  18.646  0.00  0.00    +0.000 C 
ATOM     15  O   UNL     1       3.016   3.489  17.927  0.00  0.00    +0.000 OA
BRANCH  14  16
ATOM     16  O   UNL     1       4.178   3.359  19.848  0.00  0.00    +0.000 OA
ATOM     17  H   UNL     1       5.071   3.544  20.201  0.00  0.00    +0.000 HD
ENDBRANCH  14  16
ENDBRANCH   5  14
ENDBRANCH   3   5
BRANCH   2  18
ATOM     18  C   UNL     1       2.164   7.775  19.123  0.00  0.00    +0.000 A 
ATOM     19  C   UNL     1       1.977   8.342  17.860  0.00  0.00    +0.000 A 
ATOM     20  C   UNL     1       1.216   9.494  17.732  0.00  0.00    +0.000 A 
ATOM     21  C   UNL     1       0.618  10.058  18.858  0.00  0.00    +0.000 A 
ATOM     22  C   UNL     1       0.766   9.494  20.132  0.00  0.00    +0.000 A 
ATOM     23  C   UNL     1       1.561   8.346  20.254  0.00  0.00    +0.000 A 
BRANCH  22  24
ATOM     24  N   UNL     1       0.110  10.048  21.260  0.00  0.00    +0.000 N 
ATOM     25  C   UNL     1       0.295   9.551  22.602  0.00  0.00    +0.000 C 
ATOM     26  C   UNL     1      -0.874  10.125  23.375  0.00  0.00    +0.000 C 
ATOM     27  C   UNL     1      -1.162  11.435  22.669  0.00  0.00    +0.000 C 
ATOM     28  C   UNL     1      -0.715  11.181  21.254  0.00  0.00    +0.000 C 
ATOM     29  O   UNL     1      -1.019  11.918  20.328  0.00  0.00    +0.000 OA
ENDBRANCH  22  24
ENDBRANCH   2  18
TORSDOF 5
ENDMDL
MODEL 9
REMARK VINA RESULT:      -8.0      1.887      2.991
REMARK  Name = 
REMARK  5 active torsions:
REMARK  status: ('A' for Active; 'I' for Inactive)
REMARK    1  A    between atoms: C_2  and  C_16
REMARK    2  A    between atoms: N_3  and  C_4
REMARK    3  A    between atoms: C_4  and  C_5
REMARK    4  A    between atoms: C_5  and  O_7
REMARK    5  A    between atoms: C_20  and  N_21
REMARK                            x       y       z     vdW  Elec       q    Type
REMARK                         _______ _______ _______ _____ _____    ______ ____
ROOT
ATOM      1  O   UNL     1       1.984   9.808  17.400  0.00  0.00    +0.000 OA
ATOM      2  C   UNL     1       1.696   9.225  18.433  0.00  0.00    +0.000 C 
ATOM      3  N   UNL     1       0.833   9.700  19.394  0.00  0.00    +0.000 N 
ATOM      4  H   UNL     1       0.700   9.179  20.253  0.00  0.00    +0.000 HD
ENDROOT
BRANCH   3   5
ATOM      5  C   UNL     1       0.083  10.949  19.303  0.00  0.00    +0.000 C 
ATOM      6  C   UNL     1       0.943  12.142  18.814  0.00  0.00    +0.000 C 
ATOM      7  C   UNL     1       0.446  13.387  19.566  0.00  0.00    +0.000 C 
ATOM      8  C   UNL     1      -0.149  12.797  20.805  0.00  0.00    +0.000 A 
ATOM      9  C   UNL     1      -0.460  13.444  21.987  0.00  0.00    +0.000 A 
ATOM     10  C   UNL     1      -0.994  12.690  23.037  0.00  0.00    +0.000 A 
ATOM     11  C   UNL     1      -1.234  11.316  22.885  0.00  0.00    +0.000 A 
ATOM     12  C   UNL     1      -0.940  10.675  21.684  0.00  0.00    +0.000 A 
ATOM     13  C   UNL     1      -0.384  11.425  20.657  0.00  0.00    +0.000 A 
BRANCH   5  14
ATOM     14  C   UNL     1      -1.068  10.695  18.293  0.00  0.00    +0.000 C 
ATOM     15  O   UNL     1      -1.826   9.731  18.384  0.00  0.00    +0.000 OA
BRANCH  14  16
ATOM     16  O   UNL     1      -1.198  11.589  17.283  0.00  0.00    +0.000 OA
ATOM     17  H   UNL     1      -0.707  12.424  17.409  0.00  0.00    +0.000 HD
ENDBRANCH  14  16
ENDBRANCH   5  14
ENDBRANCH   3   5
BRANCH   2  18
ATOM     18  C   UNL     1       2.311   7.910  18.731  0.00  0.00    +0.000 A 
ATOM     19  C   UNL     1       1.979   7.211  19.894  0.00  0.00    +0.000 A 
ATOM     20  C   UNL     1       2.560   5.977  20.142  0.00  0.00    +0.000 A 
ATOM     21  C   UNL     1       3.444   5.429  19.215  0.00  0.00    +0.000 A 
ATOM     22  C   UNL     1       3.774   6.095  18.027  0.00  0.00    +0.000 A 
ATOM     23  C   UNL     1       3.202   7.355  17.800  0.00  0.00    +0.000 A 
BRANCH  22  24
ATOM     24  N   UNL     1       4.635   5.503  17.069  0.00  0.00    +0.000 N 
ATOM     25  C   UNL     1       4.367   4.226  16.452  0.00  0.00    +0.000 C 
ATOM     26  C   UNL     1       5.699   3.813  15.861  0.00  0.00    +0.000 C 
ATOM     27  C   UNL     1       6.365   5.132  15.522  0.00  0.00    +0.000 C 
ATOM     28  C   UNL     1       5.786   6.091  16.527  0.00  0.00    +0.000 C 
ATOM     29  O   UNL     1       6.267   7.195  16.733  0.00  0.00    +0.000 OA
ENDBRANCH  22  24
ENDBRANCH   2  18
TORSDOF 5
ENDMDL
