MODEL 1
REMARK VINA RESULT:      -8.8      0.000      0.000
REMARK  Name = 
REMARK  7 active torsions:
REMARK  status: ('A' for Active; 'I' for Inactive)
REMARK    1  A    between atoms: C_1  and  C_2
REMARK    2  A    between atoms: C_2  and  S_3
REMARK    3  A    between atoms: C_2  and  C_10
REMARK    4  A    between atoms: S_3  and  C_4
REMARK    5  A    between atoms: N_8  and  C_9
REMARK    6  A    between atoms: C_14  and  N_15
REMARK    7  A    between atoms: C_16  and  C_18
REMARK                            x       y       z     vdW  Elec       q    Type
REMARK                         _______ _______ _______ _____ _____    ______ ____
ROOT
ATOM      1  C   UNL     1       4.565   5.240  17.270  0.00  0.00    +0.000 A 
ATOM      2  C   UNL     1       3.691   4.138  17.252  0.00  0.00    +0.000 A 
ATOM      3  C   UNL     1       2.372   4.269  17.667  0.00  0.00    +0.000 A 
ATOM      4  C   UNL     1       1.918   5.490  18.147  0.00  0.00    +0.000 A 
ATOM      5  C   UNL     1       2.757   6.614  18.260  0.00  0.00    +0.000 A 
ATOM      6  C   UNL     1       4.081   6.488  17.769  0.00  0.00    +0.000 A 
ENDROOT
BRANCH   5   7
ATOM      7  N   UNL     1       2.262   7.831  18.861  0.00  0.00    +0.000 N 
ATOM      8  C   UNL     1       1.673   7.859  20.132  0.00  0.00    +0.000 C 
ATOM      9  O   UNL     1       1.639   6.906  20.913  0.00  0.00    +0.000 OA
ATOM     10  H   UNL     1       2.460   8.718  18.410  0.00  0.00    +0.000 HD
BRANCH   8  11
ATOM     11  C   UNL     1       1.026   9.108  20.702  0.00  0.00    +0.000 C 
ATOM     12  N   UNL     1       0.605   9.258  21.933  0.00  0.00    +0.000 NA
ATOM     13  C   UNL     1      -0.123  10.487  22.121  0.00  0.00    +0.000 A 
ATOM     14  C   UNL     1      -1.096  10.603  23.113  0.00  0.00    +0.000 A 
ATOM     15  C   UNL     1      -1.881  11.770  23.222  0.00  0.00    +0.000 A 
ATOM     16  C   UNL     1      -1.669  12.861  22.370  0.00  0.00    +0.000 A 
ATOM     17  C   UNL     1      -0.689  12.784  21.385  0.00  0.00    +0.000 A 
ATOM     18  C   UNL     1       0.031  11.586  21.253  0.00  0.00    +0.000 A 
ATOM     19  O   UNL     1       0.839  11.491  20.141  0.00  0.00    +0.000 OA
ATOM     20  C   UNL     1       0.699  10.165  19.642  0.00  0.00    +0.000 C 
ENDBRANCH   8  11
ENDBRANCH   5   7
BRANCH   1  22
ATOM     21  C   UNL     1       7.087   4.753  17.797  0.00  0.00    +0.000 C 
ATOM     22  C   UNL     1       5.982   4.955  16.769  0.00  0.00    +0.000 C 
BRANCH  22  23
ATOM     23  S   UNL     1       6.009   3.702  15.432  0.00  0.00    +0.000 S 
BRANCH  23  24
ATOM     24  C   UNL     1       6.943   4.480  14.215  0.00  0.00    +0.000 A 
ATOM     25  N   UNL     1       7.842   5.419  14.396  0.00  0.00    +0.000 NA
ATOM     26  N   UNL     1       8.301   5.801  13.155  0.00  0.00    +0.000 NA
ATOM     27  C   UNL     1       7.654   5.091  12.258  0.00  0.00    +0.000 A 
ATOM     28  N   UNL     1       6.793   4.240  12.882  0.00  0.00    +0.000 N 
ATOM     29  C   UNL     1       5.929   3.284  12.243  0.00  0.00    +0.000 C 
ENDBRANCH  23  24
ENDBRANCH  22  23
ENDBRANCH   1  22
TORSDOF 5
ENDMDL
MODEL 2
REMARK VINA RESULT:      -8.4      1.225      1.236
REMARK  Name = 
REMARK  7 active torsions:
REMARK  status: ('A' for Active; 'I' for Inactive)
REMARK    1  A    between atoms: C_1  and  C_2
REMARK    2  A    between atoms: C_2  and  S_3
REMARK    3  A    between atoms: C_2  and  C_10
REMARK    4  A    between atoms: S_3  and  C_4
REMARK    5  A    between atoms: N_8  and  C_9
REMARK    6  A    between atoms: C_14  and  N_15
REMARK    7  A    between atoms: C_16  and  C_18
REMARK                            x       y       z     vdW  Elec       q    Type
REMARK                         _______ _______ _______ _____ _____    ______ ____
ROOT
ATOM      1  C   UNL     1       4.920   4.670  18.258  0.00  0.00    +0.000 A 
ATOM      2  C   UNL     1       4.798   3.393  18.833  0.00  0.00    +0.000 A 
ATOM      3  C   UNL     1       3.849   3.142  19.816  0.00  0.00    +0.000 A 
ATOM      4  C   UNL     1       3.038   4.173  20.270  0.00  0.00    +0.000 A 
ATOM      5  C   UNL     1       3.155   5.490  19.792  0.00  0.00    +0.000 A 
ATOM      6  C   UNL     1       4.078   5.720  18.740  0.00  0.00    +0.000 A 
ENDROOT
BRANCH   5   7
ATOM      7  N   UNL     1       2.356   6.546  20.371  0.00  0.00    +0.000 N 
ATOM      8  C   UNL     1       2.065   7.733  19.684  0.00  0.00    +0.000 C 
ATOM      9  O   UNL     1       2.329   7.943  18.499  0.00  0.00    +0.000 OA
ATOM     10  H   UNL     1       1.880   6.378  21.250  0.00  0.00    +0.000 HD
BRANCH   8  11
ATOM     11  C   UNL     1       1.349   8.899  20.342  0.00  0.00    +0.000 C 
ATOM     12  N   UNL     1       1.046   8.992  21.612  0.00  0.00    +0.000 NA
ATOM     13  C   UNL     1       0.211  10.132  21.898  0.00  0.00    +0.000 A 
ATOM     14  C   UNL     1      -0.658  10.131  22.988  0.00  0.00    +0.000 A 
ATOM     15  C   UNL     1      -1.551  11.202  23.200  0.00  0.00    +0.000 A 
ATOM     16  C   UNL     1      -1.552  12.316  22.350  0.00  0.00    +0.000 A 
ATOM     17  C   UNL     1      -0.680  12.355  21.267  0.00  0.00    +0.000 A 
ATOM     18  C   UNL     1       0.150  11.247  21.038  0.00  0.00    +0.000 A 
ATOM     19  O   UNL     1       0.840  11.249  19.846  0.00  0.00    +0.000 OA
ATOM     20  C   UNL     1       0.796   9.919  19.341  0.00  0.00    +0.000 C 
ENDBRANCH   8  11
ENDBRANCH   5   7
BRANCH   1  22
ATOM     21  C   UNL     1       7.441   4.510  17.554  0.00  0.00    +0.000 C 
ATOM     22  C   UNL     1       5.994   4.799  17.177  0.00  0.00    +0.000 C 
BRANCH  22  23
ATOM     23  S   UNL     1       5.492   4.008  15.601  0.00  0.00    +0.000 S 
BRANCH  23  24
ATOM     24  C   UNL     1       6.680   4.588  14.501  0.00  0.00    +0.000 A 
ATOM     25  N   UNL     1       7.635   5.449  14.761  0.00  0.00    +0.000 NA
ATOM     26  N   UNL     1       8.318   5.680  13.587  0.00  0.00    +0.000 NA
ATOM     27  C   UNL     1       7.745   4.962  12.648  0.00  0.00    +0.000 A 
ATOM     28  N   UNL     1       6.712   4.252  13.181  0.00  0.00    +0.000 N 
ATOM     29  C   UNL     1       5.860   3.332  12.478  0.00  0.00    +0.000 C 
ENDBRANCH  23  24
ENDBRANCH  22  23
ENDBRANCH   1  22
TORSDOF 5
ENDMDL
MODEL 3
REMARK VINA RESULT:      -8.3      3.660      4.975
REMARK  Name = 
REMARK  7 active torsions:
REMARK  status: ('A' for Active; 'I' for Inactive)
REMARK    1  A    between atoms: C_1  and  C_2
REMARK    2  A    between atoms: C_2  and  S_3
REMARK    3  A    between atoms: C_2  and  C_10
REMARK    4  A    between atoms: S_3  and  C_4
REMARK    5  A    between atoms: N_8  and  C_9
REMARK    6  A    between atoms: C_14  and  N_15
REMARK    7  A    between atoms: C_16  and  C_18
REMARK                            x       y       z     vdW  Elec       q    Type
REMARK                         _______ _______ _______ _____ _____    ______ ____
ROOT
ATOM      1  C   UNL     1       2.210   7.344  19.674  0.00  0.00    +0.000 A 
ATOM      2  C   UNL     1       2.507   7.687  18.343  0.00  0.00    +0.000 A 
ATOM      3  C   UNL     1       2.044   8.877  17.796  0.00  0.00    +0.000 A 
ATOM      4  C   UNL     1       1.243   9.720  18.555  0.00  0.00    +0.000 A 
ATOM      5  C   UNL     1       0.848   9.404  19.867  0.00  0.00    +0.000 A 
ATOM      6  C   UNL     1       1.382   8.222  20.439  0.00  0.00    +0.000 A 
ENDROOT
BRANCH   5   7
ATOM      7  N   UNL     1      -0.070  10.266  20.576  0.00  0.00    +0.000 N 
ATOM      8  C   UNL     1       0.354  11.405  21.274  0.00  0.00    +0.000 C 
ATOM      9  O   UNL     1       1.497  11.863  21.245  0.00  0.00    +0.000 OA
ATOM     10  H   UNL     1      -1.067  10.123  20.463  0.00  0.00    +0.000 HD
BRANCH   8  11
ATOM     11  C   UNL     1      -0.587  12.229  22.135  0.00  0.00    +0.000 C 
ATOM     12  N   UNL     1      -1.689  11.796  22.693  0.00  0.00    +0.000 NA
ATOM     13  C   UNL     1      -2.455  12.857  23.296  0.00  0.00    +0.000 A 
ATOM     14  C   UNL     1      -3.839  12.756  23.437  0.00  0.00    +0.000 A 
ATOM     15  C   UNL     1      -4.596  13.840  23.928  0.00  0.00    +0.000 A 
ATOM     16  C   UNL     1      -3.973  15.027  24.332  0.00  0.00    +0.000 A 
ATOM     17  C   UNL     1      -2.591  15.150  24.225  0.00  0.00    +0.000 A 
ATOM     18  C   UNL     1      -1.868  14.082  23.670  0.00  0.00    +0.000 A 
ATOM     19  O   UNL     1      -0.541  14.333  23.399  0.00  0.00    +0.000 OA
ATOM     20  C   UNL     1      -0.254  13.724  22.144  0.00  0.00    +0.000 C 
ENDBRANCH   8  11
ENDBRANCH   5   7
BRANCH   1  22
ATOM     21  C   UNL     1       1.841   4.913  20.588  0.00  0.00    +0.000 C 
ATOM     22  C   UNL     1       2.798   6.014  20.151  0.00  0.00    +0.000 C 
BRANCH  22  23
ATOM     23  S   UNL     1       4.131   5.408  19.048  0.00  0.00    +0.000 S 
BRANCH  23  24
ATOM     24  C   UNL     1       3.424   4.005  18.349  0.00  0.00    +0.000 A 
ATOM     25  N   UNL     1       2.601   3.967  17.328  0.00  0.00    +0.000 NA
ATOM     26  N   UNL     1       2.231   2.653  17.140  0.00  0.00    +0.000 NA
ATOM     27  C   UNL     1       2.831   1.938  18.064  0.00  0.00    +0.000 A 
ATOM     28  N   UNL     1       3.599   2.748  18.844  0.00  0.00    +0.000 N 
ATOM     29  C   UNL     1       4.428   2.333  19.944  0.00  0.00    +0.000 C 
ENDBRANCH  23  24
ENDBRANCH  22  23
ENDBRANCH   1  22
TORSDOF 5
ENDMDL
MODEL 4
REMARK VINA RESULT:      -8.3      1.936      2.955
REMARK  Name = 
REMARK  7 active torsions:
REMARK  status: ('A' for Active; 'I' for Inactive)
REMARK    1  A    between atoms: C_1  and  C_2
REMARK    2  A    between atoms: C_2  and  S_3
REMARK    3  A    between atoms: C_2  and  C_10
REMARK    4  A    between atoms: S_3  and  C_4
REMARK    5  A    between atoms: N_8  and  C_9
REMARK    6  A    between atoms: C_14  and  N_15
REMARK    7  A    between atoms: C_16  and  C_18
REMARK                            x       y       z     vdW  Elec       q    Type
REMARK                         _______ _______ _______ _____ _____    ______ ____
ROOT
ATOM      1  C   UNL     1       4.705   4.488  16.505  0.00  0.00    +0.000 A 
ATOM      2  C   UNL     1       4.143   3.292  16.988  0.00  0.00    +0.000 A 
ATOM      3  C   UNL     1       3.094   3.317  17.899  0.00  0.00    +0.000 A 
ATOM      4  C   UNL     1       2.621   4.532  18.373  0.00  0.00    +0.000 A 
ATOM      5  C   UNL     1       3.184   5.762  17.989  0.00  0.00    +0.000 A 
ATOM      6  C   UNL     1       4.207   5.730  17.007  0.00  0.00    +0.000 A 
ENDROOT
BRANCH   5   7
ATOM      7  N   UNL     1       2.721   6.992  18.590  0.00  0.00    +0.000 N 
ATOM      8  C   UNL     1       2.132   7.034  19.861  0.00  0.00    +0.000 C 
ATOM      9  O   UNL     1       2.073   6.083  20.641  0.00  0.00    +0.000 OA
ATOM     10  H   UNL     1       2.943   7.874  18.140  0.00  0.00    +0.000 HD
BRANCH   8  11
ATOM     11  C   UNL     1       1.519   8.300  20.432  0.00  0.00    +0.000 C 
ATOM     12  N   UNL     1       1.210   8.501  21.689  0.00  0.00    +0.000 NA
ATOM     13  C   UNL     1       0.481   9.728  21.888  0.00  0.00    +0.000 A 
ATOM     14  C   UNL     1      -0.398   9.877  22.959  0.00  0.00    +0.000 A 
ATOM     15  C   UNL     1      -1.190  11.037  23.088  0.00  0.00    +0.000 A 
ATOM     16  C   UNL     1      -1.077  12.090  22.172  0.00  0.00    +0.000 A 
ATOM     17  C   UNL     1      -0.191  11.980  21.104  0.00  0.00    +0.000 A 
ATOM     18  C   UNL     1       0.535  10.787  20.960  0.00  0.00    +0.000 A 
ATOM     19  O   UNL     1       1.238  10.651  19.783  0.00  0.00    +0.000 OA
ATOM     20  C   UNL     1       1.077   9.302  19.360  0.00  0.00    +0.000 C 
ENDBRANCH   8  11
ENDBRANCH   5   7
BRANCH   1  22
ATOM     21  C   UNL     1       5.487   3.920  14.068  0.00  0.00    +0.000 C 
ATOM     22  C   UNL     1       5.841   4.313  15.496  0.00  0.00    +0.000 C 
BRANCH  22  23
ATOM     23  S   UNL     1       7.065   5.675  15.582  0.00  0.00    +0.000 S 
BRANCH  23  24
ATOM     24  C   UNL     1       7.563   5.621  17.227  0.00  0.00    +0.000 A 
ATOM     25  N   UNL     1       7.802   4.546  17.940  0.00  0.00    +0.000 NA
ATOM     26  N   UNL     1       8.113   4.954  19.218  0.00  0.00    +0.000 NA
ATOM     27  C   UNL     1       8.037   6.265  19.244  0.00  0.00    +0.000 A 
ATOM     28  N   UNL     1       7.700   6.729  18.009  0.00  0.00    +0.000 N 
ATOM     29  C   UNL     1       7.546   8.108  17.631  0.00  0.00    +0.000 C 
ENDBRANCH  23  24
ENDBRANCH  22  23
ENDBRANCH   1  22
TORSDOF 5
ENDMDL
MODEL 5
REMARK VINA RESULT:      -8.2      5.727      7.841
REMARK  Name = 
REMARK  7 active torsions:
REMARK  status: ('A' for Active; 'I' for Inactive)
REMARK    1  A    between atoms: C_1  and  C_2
REMARK    2  A    between atoms: C_2  and  S_3
REMARK    3  A    between atoms: C_2  and  C_10
REMARK    4  A    between atoms: S_3  and  C_4
REMARK    5  A    between atoms: N_8  and  C_9
REMARK    6  A    between atoms: C_14  and  N_15
REMARK    7  A    between atoms: C_16  and  C_18
REMARK                            x       y       z     vdW  Elec       q    Type
REMARK                         _______ _______ _______ _____ _____    ______ ____
ROOT
ATOM      1  C   UNL     1       4.573   5.321  17.089  0.00  0.00    +0.000 A 
ATOM      2  C   UNL     1       5.206   4.460  16.175  0.00  0.00    +0.000 A 
ATOM      3  C   UNL     1       6.465   4.760  15.669  0.00  0.00    +0.000 A 
ATOM      4  C   UNL     1       7.090   5.944  16.034  0.00  0.00    +0.000 A 
ATOM      5  C   UNL     1       6.484   6.885  16.886  0.00  0.00    +0.000 A 
ATOM      6  C   UNL     1       5.231   6.537  17.451  0.00  0.00    +0.000 A 
ENDROOT
BRANCH   5   7
ATOM      7  N   UNL     1       7.135   8.147  17.153  0.00  0.00    +0.000 N 
ATOM      8  C   UNL     1       8.078   8.307  18.178  0.00  0.00    +0.000 C 
ATOM      9  O   UNL     1       8.548   7.388  18.851  0.00  0.00    +0.000 OA
ATOM     10  H   UNL     1       7.007   8.914  16.503  0.00  0.00    +0.000 HD
BRANCH   8  11
ATOM     11  C   UNL     1       8.655   9.661  18.550  0.00  0.00    +0.000 C 
ATOM     12  N   UNL     1       9.435   9.905  19.573  0.00  0.00    +0.000 NA
ATOM     13  C   UNL     1       9.669  11.314  19.763  0.00  0.00    +0.000 A 
ATOM     14  C   UNL     1       9.967  11.830  21.024  0.00  0.00    +0.000 A 
ATOM     15  C   UNL     1      10.088  13.221  21.225  0.00  0.00    +0.000 A 
ATOM     16  C   UNL     1       9.961  14.115  20.155  0.00  0.00    +0.000 A 
ATOM     17  C   UNL     1       9.685  13.629  18.880  0.00  0.00    +0.000 A 
ATOM     18  C   UNL     1       9.503  12.246  18.720  0.00  0.00    +0.000 A 
ATOM     19  O   UNL     1       9.034  11.842  17.489  0.00  0.00    +0.000 OA
ATOM     20  C   UNL     1       8.075  10.817  17.729  0.00  0.00    +0.000 C 
ENDBRANCH   8  11
ENDBRANCH   5   7
BRANCH   1  22
ATOM     21  C   UNL     1       2.672   3.515  17.090  0.00  0.00    +0.000 C 
ATOM     22  C   UNL     1       3.199   4.859  17.576  0.00  0.00    +0.000 C 
BRANCH  22  23
ATOM     23  S   UNL     1       2.982   5.103  19.380  0.00  0.00    +0.000 S 
BRANCH  23  24
ATOM     24  C   UNL     1       3.662   3.665  20.033  0.00  0.00    +0.000 A 
ATOM     25  N   UNL     1       4.833   3.149  19.744  0.00  0.00    +0.000 NA
ATOM     26  N   UNL     1       4.952   1.968  20.442  0.00  0.00    +0.000 NA
ATOM     27  C   UNL     1       3.840   1.796  21.121  0.00  0.00    +0.000 A 
ATOM     28  N   UNL     1       3.001   2.845  20.898  0.00  0.00    +0.000 N 
ATOM     29  C   UNL     1       1.700   3.033  21.483  0.00  0.00    +0.000 C 
ENDBRANCH  23  24
ENDBRANCH  22  23
ENDBRANCH   1  22
TORSDOF 5
ENDMDL
MODEL 6
REMARK VINA RESULT:      -8.2      0.995      1.419
REMARK  Name = 
REMARK  7 active torsions:
REMARK  status: ('A' for Active; 'I' for Inactive)
REMARK    1  A    between atoms: C_1  and  C_2
REMARK    2  A    between atoms: C_2  and  S_3
REMARK    3  A    between atoms: C_2  and  C_10
REMARK    4  A    between atoms: S_3  and  C_4
REMARK    5  A    between atoms: N_8  and  C_9
REMARK    6  A    between atoms: C_14  and  N_15
REMARK    7  A    between atoms: C_16  and  C_18
REMARK                            x       y       z     vdW  Elec       q    Type
REMARK                         _______ _______ _______ _____ _____    ______ ____
ROOT
ATOM      1  C   UNL     1       4.564   5.766  17.119  0.00  0.00    +0.000 A 
ATOM      2  C   UNL     1       3.927   4.520  17.261  0.00  0.00    +0.000 A 
ATOM      3  C   UNL     1       2.656   4.429  17.815  0.00  0.00    +0.000 A 
ATOM      4  C   UNL     1       2.021   5.575  18.273  0.00  0.00    +0.000 A 
ATOM      5  C   UNL     1       2.628   6.843  18.229  0.00  0.00    +0.000 A 
ATOM      6  C   UNL     1       3.895   6.934  17.600  0.00  0.00    +0.000 A 
ENDROOT
BRANCH   5   7
ATOM      7  N   UNL     1       1.965   7.986  18.813  0.00  0.00    +0.000 N 
ATOM      8  C   UNL     1       1.538   8.008  20.148  0.00  0.00    +0.000 C 
ATOM      9  O   UNL     1       1.796   7.141  20.984  0.00  0.00    +0.000 OA
ATOM     10  H   UNL     1       1.920   8.851  18.286  0.00  0.00    +0.000 HD
BRANCH   8  11
ATOM     11  C   UNL     1       0.717   9.150  20.721  0.00  0.00    +0.000 C 
ATOM     12  N   UNL     1       0.151  10.108  20.029  0.00  0.00    +0.000 NA
ATOM     13  C   UNL     1      -0.404  11.139  20.868  0.00  0.00    +0.000 A 
ATOM     14  C   UNL     1      -0.538  12.448  20.406  0.00  0.00    +0.000 A 
ATOM     15  C   UNL     1      -0.980  13.475  21.265  0.00  0.00    +0.000 A 
ATOM     16  C   UNL     1      -1.343  13.198  22.589  0.00  0.00    +0.000 A 
ATOM     17  C   UNL     1      -1.242  11.898  23.072  0.00  0.00    +0.000 A 
ATOM     18  C   UNL     1      -0.735  10.906  22.218  0.00  0.00    +0.000 A 
ATOM     19  O   UNL     1      -0.465   9.689  22.804  0.00  0.00    +0.000 OA
ATOM     20  C   UNL     1       0.763   9.228  22.250  0.00  0.00    +0.000 C 
ENDBRANCH   8  11
ENDBRANCH   5   7
BRANCH   1  22
ATOM     21  C   UNL     1       7.145   6.193  17.298  0.00  0.00    +0.000 C 
ATOM     22  C   UNL     1       5.952   5.719  16.479  0.00  0.00    +0.000 C 
BRANCH  22  23
ATOM     23  S   UNL     1       6.264   4.135  15.609  0.00  0.00    +0.000 S 
BRANCH  23  24
ATOM     24  C   UNL     1       7.048   4.653  14.169  0.00  0.00    +0.000 A 
ATOM     25  N   UNL     1       8.012   5.538  14.074  0.00  0.00    +0.000 NA
ATOM     26  N   UNL     1       8.302   5.697  12.737  0.00  0.00    +0.000 NA
ATOM     27  C   UNL     1       7.493   4.913  12.061  0.00  0.00    +0.000 A 
ATOM     28  N   UNL     1       6.689   4.231  12.923  0.00  0.00    +0.000 N 
ATOM     29  C   UNL     1       5.691   3.259  12.568  0.00  0.00    +0.000 C 
ENDBRANCH  23  24
ENDBRANCH  22  23
ENDBRANCH   1  22
TORSDOF 5
ENDMDL
MODEL 7
REMARK VINA RESULT:      -8.2      3.821      5.003
REMARK  Name = 
REMARK  7 active torsions:
REMARK  status: ('A' for Active; 'I' for Inactive)
REMARK    1  A    between atoms: C_1  and  C_2
REMARK    2  A    between atoms: C_2  and  S_3
REMARK    3  A    between atoms: C_2  and  C_10
REMARK    4  A    between atoms: S_3  and  C_4
REMARK    5  A    between atoms: N_8  and  C_9
REMARK    6  A    between atoms: C_14  and  N_15
REMARK    7  A    between atoms: C_16  and  C_18
REMARK                            x       y       z     vdW  Elec       q    Type
REMARK                         _______ _______ _______ _____ _____    ______ ____
ROOT
ATOM      1  C   UNL     1       2.211   7.520  19.375  0.00  0.00    +0.000 A 
ATOM      2  C   UNL     1       2.503   7.937  18.064  0.00  0.00    +0.000 A 
ATOM      3  C   UNL     1       2.045   9.159  17.587  0.00  0.00    +0.000 A 
ATOM      4  C   UNL     1       1.253   9.962  18.397  0.00  0.00    +0.000 A 
ATOM      5  C   UNL     1       0.863   9.575  19.692  0.00  0.00    +0.000 A 
ATOM      6  C   UNL     1       1.393   8.359  20.193  0.00  0.00    +0.000 A 
ENDROOT
BRANCH   5   7
ATOM      7  N   UNL     1      -0.045  10.401  20.454  0.00  0.00    +0.000 N 
ATOM      8  C   UNL     1       0.391  11.489  21.222  0.00  0.00    +0.000 C 
ATOM      9  O   UNL     1       1.539  11.935  21.222  0.00  0.00    +0.000 OA
ATOM     10  H   UNL     1      -1.044  10.276  20.332  0.00  0.00    +0.000 HD
BRANCH   8  11
ATOM     11  C   UNL     1      -0.541  12.267  22.133  0.00  0.00    +0.000 C 
ATOM     12  N   UNL     1      -1.601  11.788  22.733  0.00  0.00    +0.000 NA
ATOM     13  C   UNL     1      -2.378  12.813  23.383  0.00  0.00    +0.000 A 
ATOM     14  C   UNL     1      -3.749  12.658  23.582  0.00  0.00    +0.000 A 
ATOM     15  C   UNL     1      -4.524  13.708  24.119  0.00  0.00    +0.000 A 
ATOM     16  C   UNL     1      -3.928  14.913  24.511  0.00  0.00    +0.000 A 
ATOM     17  C   UNL     1      -2.557  15.088  24.345  0.00  0.00    +0.000 A 
ATOM     18  C   UNL     1      -1.820  14.055  23.746  0.00  0.00    +0.000 A 
ATOM     19  O   UNL     1      -0.517  14.358  23.421  0.00  0.00    +0.000 OA
ATOM     20  C   UNL     1      -0.263  13.774  22.147  0.00  0.00    +0.000 C 
ENDBRANCH   8  11
ENDBRANCH   5   7
BRANCH   1  22
ATOM     21  C   UNL     1       1.928   5.215  20.593  0.00  0.00    +0.000 C 
ATOM     22  C   UNL     1       2.792   6.162  19.771  0.00  0.00    +0.000 C 
BRANCH  22  23
ATOM     23  S   UNL     1       3.635   5.331  18.371  0.00  0.00    +0.000 S 
BRANCH  23  24
ATOM     24  C   UNL     1       3.994   3.781  19.023  0.00  0.00    +0.000 A 
ATOM     25  N   UNL     1       4.954   3.489  19.869  0.00  0.00    +0.000 NA
ATOM     26  N   UNL     1       4.925   2.128  20.080  0.00  0.00    +0.000 NA
ATOM     27  C   UNL     1       3.957   1.635  19.341  0.00  0.00    +0.000 A 
ATOM     28  N   UNL     1       3.339   2.642  18.663  0.00  0.00    +0.000 N 
ATOM     29  C   UNL     1       2.217   2.505  17.774  0.00  0.00    +0.000 C 
ENDBRANCH  23  24
ENDBRANCH  22  23
ENDBRANCH   1  22
TORSDOF 5
ENDMDL
MODEL 8
REMARK VINA RESULT:      -8.2      5.693      8.100
REMARK  Name = 
REMARK  7 active torsions:
REMARK  status: ('A' for Active; 'I' for Inactive)
REMARK    1  A    between atoms: C_1  and  C_2
REMARK    2  A    between atoms: C_2  and  S_3
REMARK    3  A    between atoms: C_2  and  C_10
REMARK    4  A    between atoms: S_3  and  C_4
REMARK    5  A    between atoms: N_8  and  C_9
REMARK    6  A    between atoms: C_14  and  N_15
REMARK    7  A    between atoms: C_16  and  C_18
REMARK                            x       y       z     vdW  Elec       q    Type
REMARK                         _______ _______ _______ _____ _____    ______ ____
ROOT
ATOM      1  C   UNL     1       4.818   5.215  17.483  0.00  0.00    +0.000 A 
ATOM      2  C   UNL     1       5.332   4.390  16.467  0.00  0.00    +0.000 A 
ATOM      3  C   UNL     1       6.487   4.744  15.780  0.00  0.00    +0.000 A 
ATOM      4  C   UNL     1       7.120   5.945  16.068  0.00  0.00    +0.000 A 
ATOM      5  C   UNL     1       6.620   6.852  17.020  0.00  0.00    +0.000 A 
ATOM      6  C   UNL     1       5.481   6.450  17.764  0.00  0.00    +0.000 A 
ENDROOT
BRANCH   5   7
ATOM      7  N   UNL     1       7.259   8.133  17.208  0.00  0.00    +0.000 N 
ATOM      8  C   UNL     1       8.181   8.372  18.237  0.00  0.00    +0.000 C 
ATOM      9  O   UNL     1       8.640   7.507  18.984  0.00  0.00    +0.000 OA
ATOM     10  H   UNL     1       7.142   8.851  16.501  0.00  0.00    +0.000 HD
BRANCH   8  11
ATOM     11  C   UNL     1       8.744   9.752  18.521  0.00  0.00    +0.000 C 
ATOM     12  N   UNL     1       9.654  10.038  19.419  0.00  0.00    +0.000 NA
ATOM     13  C   UNL     1       9.849  11.457  19.574  0.00  0.00    +0.000 A 
ATOM     14  C   UNL     1      10.305  11.993  20.778  0.00  0.00    +0.000 A 
ATOM     15  C   UNL     1      10.391  13.389  20.960  0.00  0.00    +0.000 A 
ATOM     16  C   UNL     1      10.069  14.270  19.920  0.00  0.00    +0.000 A 
ATOM     17  C   UNL     1       9.633  13.764  18.700  0.00  0.00    +0.000 A 
ATOM     18  C   UNL     1       9.491  12.374  18.567  0.00  0.00    +0.000 A 
ATOM     19  O   UNL     1       8.866  11.942  17.417  0.00  0.00    +0.000 OA
ATOM     20  C   UNL     1       8.000  10.877  17.794  0.00  0.00    +0.000 C 
ENDBRANCH   8  11
ENDBRANCH   5   7
BRANCH   1  22
ATOM     21  C   UNL     1       2.201   5.165  17.644  0.00  0.00    +0.000 C 
ATOM     22  C   UNL     1       3.552   4.696  18.166  0.00  0.00    +0.000 C 
BRANCH  22  23
ATOM     23  S   UNL     1       3.615   2.888  18.465  0.00  0.00    +0.000 S 
BRANCH  23  24
ATOM     24  C   UNL     1       2.871   2.742  20.009  0.00  0.00    +0.000 A 
ATOM     25  N   UNL     1       3.476   2.728  21.173  0.00  0.00    +0.000 NA
ATOM     26  N   UNL     1       2.515   2.533  22.140  0.00  0.00    +0.000 NA
ATOM     27  C   UNL     1       1.358   2.418  21.529  0.00  0.00    +0.000 A 
ATOM     28  N   UNL     1       1.534   2.551  20.186  0.00  0.00    +0.000 N 
ATOM     29  C   UNL     1       0.502   2.512  19.184  0.00  0.00    +0.000 C 
ENDBRANCH  23  24
ENDBRANCH  22  23
ENDBRANCH   1  22
TORSDOF 5
ENDMDL
MODEL 9
REMARK VINA RESULT:      -8.2      3.624      4.981
REMARK  Name = 
REMARK  7 active torsions:
REMARK  status: ('A' for Active; 'I' for Inactive)
REMARK    1  A    between atoms: C_1  and  C_2
REMARK    2  A    between atoms: C_2  and  S_3
REMARK    3  A    between atoms: C_2  and  C_10
REMARK    4  A    between atoms: S_3  and  C_4
REMARK    5  A    between atoms: N_8  and  C_9
REMARK    6  A    between atoms: C_14  and  N_15
REMARK    7  A    between atoms: C_16  and  C_18
REMARK                            x       y       z     vdW  Elec       q    Type
REMARK                         _______ _______ _______ _____ _____    ______ ____
ROOT
ATOM      1  C   UNL     1       2.282   7.264  19.628  0.00  0.00    +0.000 A 
ATOM      2  C   UNL     1       2.570   7.587  18.290  0.00  0.00    +0.000 A 
ATOM      3  C   UNL     1       2.104   8.768  17.727  0.00  0.00    +0.000 A 
ATOM      4  C   UNL     1       1.308   9.623  18.478  0.00  0.00    +0.000 A 
ATOM      5  C   UNL     1       0.921   9.327  19.798  0.00  0.00    +0.000 A 
ATOM      6  C   UNL     1       1.459   8.155  20.385  0.00  0.00    +0.000 A 
ENDROOT
BRANCH   5   7
ATOM      7  N   UNL     1       0.008  10.201  20.499  0.00  0.00    +0.000 N 
ATOM      8  C   UNL     1       0.438  11.342  21.190  0.00  0.00    +0.000 C 
ATOM      9  O   UNL     1       1.585  11.792  21.159  0.00  0.00    +0.000 OA
ATOM     10  H   UNL     1      -0.990  10.063  20.386  0.00  0.00    +0.000 HD
BRANCH   8  11
ATOM     11  C   UNL     1      -0.498  12.178  22.043  0.00  0.00    +0.000 C 
ATOM     12  N   UNL     1      -0.412  13.471  22.232  0.00  0.00    +0.000 NA
ATOM     13  C   UNL     1      -1.334  13.945  23.233  0.00  0.00    +0.000 A 
ATOM     14  C   UNL     1      -1.062  15.092  23.977  0.00  0.00    +0.000 A 
ATOM     15  C   UNL     1      -1.914  15.490  25.028  0.00  0.00    +0.000 A 
ATOM     16  C   UNL     1      -3.081  14.772  25.319  0.00  0.00    +0.000 A 
ATOM     17  C   UNL     1      -3.390  13.635  24.579  0.00  0.00    +0.000 A 
ATOM     18  C   UNL     1      -2.491  13.222  23.583  0.00  0.00    +0.000 A 
ATOM     19  O   UNL     1      -2.741  11.987  23.025  0.00  0.00    +0.000 OA
ATOM     20  C   UNL     1      -1.481  11.342  22.870  0.00  0.00    +0.000 C 
ENDBRANCH   8  11
ENDBRANCH   5   7
BRANCH   1  22
ATOM     21  C   UNL     1       1.919   4.813  20.486  0.00  0.00    +0.000 C 
ATOM     22  C   UNL     1       2.873   5.943  20.121  0.00  0.00    +0.000 C 
BRANCH  22  23
ATOM     23  S   UNL     1       4.285   5.385  19.093  0.00  0.00    +0.000 S 
BRANCH  23  24
ATOM     24  C   UNL     1       4.115   3.674  19.129  0.00  0.00    +0.000 A 
ATOM     25  N   UNL     1       4.707   2.844  19.955  0.00  0.00    +0.000 NA
ATOM     26  N   UNL     1       4.341   1.566  19.595  0.00  0.00    +0.000 NA
ATOM     27  C   UNL     1       3.550   1.661  18.550  0.00  0.00    +0.000 A 
ATOM     28  N   UNL     1       3.375   2.972  18.226  0.00  0.00    +0.000 N 
ATOM     29  C   UNL     1       2.556   3.482  17.159  0.00  0.00    +0.000 C 
ENDBRANCH  23  24
ENDBRANCH  22  23
ENDBRANCH   1  22
TORSDOF 5
ENDMDL
