MODEL 1
REMARK VINA RESULT:      -8.8      0.000      0.000
REMARK  Name = 
REMARK  4 active torsions:
REMARK  status: ('A' for Active; 'I' for Inactive)
REMARK    1  A    between atoms: C_2  and  C_3
REMARK    2  A    between atoms: C_3  and  C_4
REMARK    3  A    between atoms: C_19  and  C_20
REMARK    4  A    between atoms: C_20  and  C_21
REMARK                            x       y       z     vdW  Elec       q    Type
REMARK                         _______ _______ _______ _____ _____    ______ ____
ROOT
ATOM      1  O   UNL     1       0.879   4.839  20.515  0.00  0.00    +0.000 OA
ATOM      2  C   UNL     1       1.906   5.049  19.866  0.00  0.00    +0.000 C 
ATOM      3  N   UNL     1       2.330   4.205  18.849  0.00  0.00    +0.000 N 
ATOM      4  C   UNL     1       1.519   3.049  18.492  0.00  0.00    +0.000 C 
ATOM      5  C   UNL     1       2.514   1.907  18.443  0.00  0.00    +0.000 C 
ATOM      6  C   UNL     1       3.748   2.571  17.847  0.00  0.00    +0.000 C 
ATOM      7  C   UNL     1       3.726   4.007  18.407  0.00  0.00    +0.000 C 
ENDROOT
BRANCH   2   8
ATOM      8  C   UNL     1       2.707   6.300  20.145  0.00  0.00    +0.000 C 
BRANCH   8   9
ATOM      9  C   UNL     1       2.107   7.570  19.587  0.00  0.00    +0.000 A 
ATOM     10  N   UNL     1       2.293   7.813  18.321  0.00  0.00    +0.000 NA
ATOM     11  N   UNL     1       1.810   8.970  17.797  0.00  0.00    +0.000 N 
ATOM     12  C   UNL     1       1.129   9.944  18.485  0.00  0.00    +0.000 A 
ATOM     13  O   UNL     1       0.743  10.976  17.949  0.00  0.00    +0.000 OA
ATOM     14  C   UNL     1       0.879   9.669  19.909  0.00  0.00    +0.000 A 
ATOM     15  C   UNL     1       0.162  10.589  20.682  0.00  0.00    +0.000 A 
ATOM     16  C   UNL     1      -0.105  10.305  22.021  0.00  0.00    +0.000 A 
ATOM     17  C   UNL     1       0.337   9.106  22.580  0.00  0.00    +0.000 A 
ATOM     18  C   UNL     1       1.065   8.196  21.812  0.00  0.00    +0.000 A 
ATOM     19  C   UNL     1       1.345   8.482  20.469  0.00  0.00    +0.000 A 
ATOM     20  H   UNL     1       1.992   9.145  16.813  0.00  0.00    +0.000 HD
ENDBRANCH   8   9
ENDBRANCH   2   8
BRANCH   7  21
ATOM     21  C   UNL     1       4.211   5.032  17.356  0.00  0.00    +0.000 C 
BRANCH  21  22
ATOM     22  C   UNL     1       5.521   5.715  17.678  0.00  0.00    +0.000 A 
ATOM     23  C   UNL     1       5.883   6.903  17.025  0.00  0.00    +0.000 A 
ATOM     24  C   UNL     1       7.088   7.546  17.326  0.00  0.00    +0.000 A 
ATOM     25  C   UNL     1       7.935   7.021  18.298  0.00  0.00    +0.000 A 
ATOM     26  C   UNL     1       7.566   5.863  18.969  0.00  0.00    +0.000 A 
ATOM     27  F   UNL     1       8.365   5.368  19.923  0.00  0.00    +0.000 F 
ATOM     28  C   UNL     1       6.374   5.211  18.669  0.00  0.00    +0.000 A 
ENDBRANCH  21  22
ENDBRANCH   7  21
TORSDOF 4
ENDMDL
MODEL 2
REMARK VINA RESULT:      -8.7      0.863      1.264
REMARK  Name = 
REMARK  4 active torsions:
REMARK  status: ('A' for Active; 'I' for Inactive)
REMARK    1  A    between atoms: C_2  and  C_3
REMARK    2  A    between atoms: C_3  and  C_4
REMARK    3  A    between atoms: C_19  and  C_20
REMARK    4  A    between atoms: C_20  and  C_21
REMARK                            x       y       z     vdW  Elec       q    Type
REMARK                         _______ _______ _______ _____ _____    ______ ____
ROOT
ATOM      1  O   UNL     1       0.759   4.777  20.368  0.00  0.00    +0.000 OA
ATOM      2  C   UNL     1       1.825   5.027  19.803  0.00  0.00    +0.000 C 
ATOM      3  N   UNL     1       2.308   4.261  18.752  0.00  0.00    +0.000 N 
ATOM      4  C   UNL     1       1.518   3.143  18.256  0.00  0.00    +0.000 C 
ATOM      5  C   UNL     1       2.509   2.000  18.182  0.00  0.00    +0.000 C 
ATOM      6  C   UNL     1       3.781   2.697  17.716  0.00  0.00    +0.000 C 
ATOM      7  C   UNL     1       3.729   4.086  18.383  0.00  0.00    +0.000 C 
ENDROOT
BRANCH   2   8
ATOM      8  C   UNL     1       2.611   6.246  20.227  0.00  0.00    +0.000 C 
BRANCH   8   9
ATOM      9  C   UNL     1       2.099   7.554  19.667  0.00  0.00    +0.000 A 
ATOM     10  N   UNL     1       2.380   7.822  18.424  0.00  0.00    +0.000 NA
ATOM     11  N   UNL     1       1.979   9.010  17.901  0.00  0.00    +0.000 N 
ATOM     12  C   UNL     1       1.290   9.992  18.570  0.00  0.00    +0.000 A 
ATOM     13  O   UNL     1       0.981  11.052  18.039  0.00  0.00    +0.000 OA
ATOM     14  C   UNL     1       0.933   9.690  19.966  0.00  0.00    +0.000 A 
ATOM     15  C   UNL     1       0.201  10.618  20.715  0.00  0.00    +0.000 A 
ATOM     16  C   UNL     1      -0.167  10.310  22.024  0.00  0.00    +0.000 A 
ATOM     17  C   UNL     1       0.189   9.081  22.577  0.00  0.00    +0.000 A 
ATOM     18  C   UNL     1       0.933   8.163  21.834  0.00  0.00    +0.000 A 
ATOM     19  C   UNL     1       1.315   8.472  20.522  0.00  0.00    +0.000 A 
ATOM     20  H   UNL     1       2.234   9.202  16.938  0.00  0.00    +0.000 HD
ENDBRANCH   8   9
ENDBRANCH   2   8
BRANCH   7  21
ATOM     21  C   UNL     1       4.282   5.184  17.448  0.00  0.00    +0.000 C 
BRANCH  21  22
ATOM     22  C   UNL     1       5.604   5.788  17.871  0.00  0.00    +0.000 A 
ATOM     23  C   UNL     1       6.380   5.174  18.865  0.00  0.00    +0.000 A 
ATOM     24  C   UNL     1       7.607   5.720  19.252  0.00  0.00    +0.000 A 
ATOM     25  C   UNL     1       8.083   6.875  18.635  0.00  0.00    +0.000 A 
ATOM     26  C   UNL     1       7.333   7.467  17.630  0.00  0.00    +0.000 A 
ATOM     27  F   UNL     1       7.799   8.562  17.015  0.00  0.00    +0.000 F 
ATOM     28  C   UNL     1       6.105   6.937  17.244  0.00  0.00    +0.000 A 
ENDBRANCH  21  22
ENDBRANCH   7  21
TORSDOF 4
ENDMDL
MODEL 3
REMARK VINA RESULT:      -8.3      3.362      6.695
REMARK  Name = 
REMARK  4 active torsions:
REMARK  status: ('A' for Active; 'I' for Inactive)
REMARK    1  A    between atoms: C_2  and  C_3
REMARK    2  A    between atoms: C_3  and  C_4
REMARK    3  A    between atoms: C_19  and  C_20
REMARK    4  A    between atoms: C_20  and  C_21
REMARK                            x       y       z     vdW  Elec       q    Type
REMARK                         _______ _______ _______ _____ _____    ______ ____
ROOT
ATOM      1  O   UNL     1       3.348   1.992  17.750  0.00  0.00    +0.000 OA
ATOM      2  C   UNL     1       3.164   3.165  18.080  0.00  0.00    +0.000 C 
ATOM      3  N   UNL     1       2.938   3.540  19.397  0.00  0.00    +0.000 N 
ATOM      4  C   UNL     1       2.961   2.530  20.446  0.00  0.00    +0.000 C 
ATOM      5  C   UNL     1       1.701   2.801  21.241  0.00  0.00    +0.000 C 
ATOM      6  C   UNL     1       1.622   4.322  21.226  0.00  0.00    +0.000 C 
ATOM      7  C   UNL     1       2.179   4.726  19.846  0.00  0.00    +0.000 C 
ENDROOT
BRANCH   2   8
ATOM      8  C   UNL     1       3.243   4.245  17.026  0.00  0.00    +0.000 C 
BRANCH   8   9
ATOM      9  C   UNL     1       4.601   4.895  16.890  0.00  0.00    +0.000 A 
ATOM     10  N   UNL     1       5.022   5.614  17.891  0.00  0.00    +0.000 NA
ATOM     11  N   UNL     1       6.216   6.253  17.785  0.00  0.00    +0.000 N 
ATOM     12  C   UNL     1       7.050   6.225  16.694  0.00  0.00    +0.000 A 
ATOM     13  O   UNL     1       8.104   6.849  16.659  0.00  0.00    +0.000 OA
ATOM     14  C   UNL     1       6.606   5.389  15.567  0.00  0.00    +0.000 A 
ATOM     15  C   UNL     1       7.408   5.272  14.426  0.00  0.00    +0.000 A 
ATOM     16  C   UNL     1       7.000   4.447  13.378  0.00  0.00    +0.000 A 
ATOM     17  C   UNL     1       5.802   3.741  13.473  0.00  0.00    +0.000 A 
ATOM     18  C   UNL     1       4.996   3.870  14.605  0.00  0.00    +0.000 A 
ATOM     19  C   UNL     1       5.395   4.706  15.657  0.00  0.00    +0.000 A 
ATOM     20  H   UNL     1       6.507   6.827  18.570  0.00  0.00    +0.000 HD
ENDBRANCH   8   9
ENDBRANCH   2   8
BRANCH   7  21
ATOM     21  C   UNL     1       3.016   6.022  19.931  0.00  0.00    +0.000 C 
BRANCH  21  22
ATOM     22  C   UNL     1       2.285   7.290  19.544  0.00  0.00    +0.000 A 
ATOM     23  C   UNL     1       2.292   7.737  18.214  0.00  0.00    +0.000 A 
ATOM     24  C   UNL     1       1.609   8.901  17.849  0.00  0.00    +0.000 A 
ATOM     25  C   UNL     1       0.893   9.620  18.803  0.00  0.00    +0.000 A 
ATOM     26  C   UNL     1       0.859   9.163  20.113  0.00  0.00    +0.000 A 
ATOM     27  F   UNL     1       0.150   9.836  21.030  0.00  0.00    +0.000 F 
ATOM     28  C   UNL     1       1.544   8.011  20.489  0.00  0.00    +0.000 A 
ENDBRANCH  21  22
ENDBRANCH   7  21
TORSDOF 4
ENDMDL
MODEL 4
REMARK VINA RESULT:      -8.2      3.267      6.722
REMARK  Name = 
REMARK  4 active torsions:
REMARK  status: ('A' for Active; 'I' for Inactive)
REMARK    1  A    between atoms: C_2  and  C_3
REMARK    2  A    between atoms: C_3  and  C_4
REMARK    3  A    between atoms: C_19  and  C_20
REMARK    4  A    between atoms: C_20  and  C_21
REMARK                            x       y       z     vdW  Elec       q    Type
REMARK                         _______ _______ _______ _____ _____    ______ ____
ROOT
ATOM      1  O   UNL     1       3.405   1.866  17.774  0.00  0.00    +0.000 OA
ATOM      2  C   UNL     1       3.201   3.033  18.110  0.00  0.00    +0.000 C 
ATOM      3  N   UNL     1       2.977   3.400  19.430  0.00  0.00    +0.000 N 
ATOM      4  C   UNL     1       3.024   2.385  20.474  0.00  0.00    +0.000 C 
ATOM      5  C   UNL     1       1.764   2.631  21.278  0.00  0.00    +0.000 C 
ATOM      6  C   UNL     1       1.658   4.150  21.270  0.00  0.00    +0.000 C 
ATOM      7  C   UNL     1       2.199   4.570  19.889  0.00  0.00    +0.000 C 
ENDROOT
BRANCH   2   8
ATOM      8  C   UNL     1       3.255   4.119  17.061  0.00  0.00    +0.000 C 
BRANCH   8   9
ATOM      9  C   UNL     1       4.596   4.803  16.928  0.00  0.00    +0.000 A 
ATOM     10  N   UNL     1       5.005   5.518  17.937  0.00  0.00    +0.000 NA
ATOM     11  N   UNL     1       6.183   6.187  17.834  0.00  0.00    +0.000 N 
ATOM     12  C   UNL     1       7.013   6.192  16.740  0.00  0.00    +0.000 A 
ATOM     13  O   UNL     1       8.052   6.841  16.709  0.00  0.00    +0.000 OA
ATOM     14  C   UNL     1       6.583   5.361  15.603  0.00  0.00    +0.000 A 
ATOM     15  C   UNL     1       7.383   5.278  14.458  0.00  0.00    +0.000 A 
ATOM     16  C   UNL     1       6.990   4.458  13.400  0.00  0.00    +0.000 A 
ATOM     17  C   UNL     1       5.809   3.723  13.491  0.00  0.00    +0.000 A 
ATOM     18  C   UNL     1       5.005   3.818  14.627  0.00  0.00    +0.000 A 
ATOM     19  C   UNL     1       5.390   4.649  15.689  0.00  0.00    +0.000 A 
ATOM     20  H   UNL     1       6.464   6.756  18.626  0.00  0.00    +0.000 HD
ENDBRANCH   8   9
ENDBRANCH   2   8
BRANCH   7  21
ATOM     21  C   UNL     1       3.013   5.880  19.974  0.00  0.00    +0.000 C 
BRANCH  21  22
ATOM     22  C   UNL     1       2.207   7.152  19.831  0.00  0.00    +0.000 A 
ATOM     23  C   UNL     1       1.454   7.642  20.909  0.00  0.00    +0.000 A 
ATOM     24  C   UNL     1       0.716   8.823  20.787  0.00  0.00    +0.000 A 
ATOM     25  C   UNL     1       0.738   9.540  19.594  0.00  0.00    +0.000 A 
ATOM     26  C   UNL     1       1.507   9.076  18.536  0.00  0.00    +0.000 A 
ATOM     27  F   UNL     1       1.554   9.777  17.395  0.00  0.00    +0.000 F 
ATOM     28  C   UNL     1       2.237   7.896  18.644  0.00  0.00    +0.000 A 
ENDBRANCH  21  22
ENDBRANCH   7  21
TORSDOF 4
ENDMDL
MODEL 5
REMARK VINA RESULT:      -8.1      1.240      1.382
REMARK  Name = 
REMARK  4 active torsions:
REMARK  status: ('A' for Active; 'I' for Inactive)
REMARK    1  A    between atoms: C_2  and  C_3
REMARK    2  A    between atoms: C_3  and  C_4
REMARK    3  A    between atoms: C_19  and  C_20
REMARK    4  A    between atoms: C_20  and  C_21
REMARK                            x       y       z     vdW  Elec       q    Type
REMARK                         _______ _______ _______ _____ _____    ______ ____
ROOT
ATOM      1  O   UNL     1       0.989   5.021  20.904  0.00  0.00    +0.000 OA
ATOM      2  C   UNL     1       1.837   5.074  20.011  0.00  0.00    +0.000 C 
ATOM      3  N   UNL     1       1.942   4.104  19.025  0.00  0.00    +0.000 N 
ATOM      4  C   UNL     1       0.996   2.997  19.003  0.00  0.00    +0.000 C 
ATOM      5  C   UNL     1       1.872   1.771  18.850  0.00  0.00    +0.000 C 
ATOM      6  C   UNL     1       2.963   2.261  17.907  0.00  0.00    +0.000 C 
ATOM      7  C   UNL     1       3.171   3.740  18.290  0.00  0.00    +0.000 C 
ENDROOT
BRANCH   2   8
ATOM      8  C   UNL     1       2.761   6.269  19.948  0.00  0.00    +0.000 C 
BRANCH   8   9
ATOM      9  C   UNL     1       2.120   7.535  19.426  0.00  0.00    +0.000 A 
ATOM     10  N   UNL     1       2.206   7.764  18.147  0.00  0.00    +0.000 NA
ATOM     11  N   UNL     1       1.686   8.917  17.650  0.00  0.00    +0.000 N 
ATOM     12  C   UNL     1       1.063   9.899  18.379  0.00  0.00    +0.000 A 
ATOM     13  O   UNL     1       0.638  10.927  17.865  0.00  0.00    +0.000 OA
ATOM     14  C   UNL     1       0.925   9.640  19.822  0.00  0.00    +0.000 A 
ATOM     15  C   UNL     1       0.273  10.570  20.639  0.00  0.00    +0.000 A 
ATOM     16  C   UNL     1       0.112  10.301  21.998  0.00  0.00    +0.000 A 
ATOM     17  C   UNL     1       0.595   9.107  22.533  0.00  0.00    +0.000 A 
ATOM     18  C   UNL     1       1.258   8.187  21.720  0.00  0.00    +0.000 A 
ATOM     19  C   UNL     1       1.432   8.458  20.356  0.00  0.00    +0.000 A 
ATOM     20  H   UNL     1       1.790   9.081  16.653  0.00  0.00    +0.000 HD
ENDBRANCH   8   9
ENDBRANCH   2   8
BRANCH   7  21
ATOM     21  C   UNL     1       3.449   4.613  17.045  0.00  0.00    +0.000 C 
BRANCH  21  22
ATOM     22  C   UNL     1       4.892   4.649  16.590  0.00  0.00    +0.000 A 
ATOM     23  C   UNL     1       5.208   4.916  15.250  0.00  0.00    +0.000 A 
ATOM     24  C   UNL     1       6.540   4.962  14.825  0.00  0.00    +0.000 A 
ATOM     25  C   UNL     1       7.571   4.763  15.740  0.00  0.00    +0.000 A 
ATOM     26  C   UNL     1       7.263   4.531  17.073  0.00  0.00    +0.000 A 
ATOM     27  F   UNL     1       8.252   4.366  17.962  0.00  0.00    +0.000 F 
ATOM     28  C   UNL     1       5.940   4.473  17.503  0.00  0.00    +0.000 A 
ENDBRANCH  21  22
ENDBRANCH   7  21
TORSDOF 4
ENDMDL
MODEL 6
REMARK VINA RESULT:      -8.0      1.454      2.172
REMARK  Name = 
REMARK  4 active torsions:
REMARK  status: ('A' for Active; 'I' for Inactive)
REMARK    1  A    between atoms: C_2  and  C_3
REMARK    2  A    between atoms: C_3  and  C_4
REMARK    3  A    between atoms: C_19  and  C_20
REMARK    4  A    between atoms: C_20  and  C_21
REMARK                            x       y       z     vdW  Elec       q    Type
REMARK                         _______ _______ _______ _____ _____    ______ ____
ROOT
ATOM      1  O   UNL     1       0.730   4.442  20.473  0.00  0.00    +0.000 OA
ATOM      2  C   UNL     1       1.762   4.793  19.899  0.00  0.00    +0.000 C 
ATOM      3  N   UNL     1       2.230   4.163  18.754  0.00  0.00    +0.000 N 
ATOM      4  C   UNL     1       1.460   3.072  18.171  0.00  0.00    +0.000 C 
ATOM      5  C   UNL     1       2.489   1.985  17.937  0.00  0.00    +0.000 C 
ATOM      6  C   UNL     1       3.714   2.778  17.503  0.00  0.00    +0.000 C 
ATOM      7  C   UNL     1       3.639   4.085  18.317  0.00  0.00    +0.000 C 
ENDROOT
BRANCH   2   8
ATOM      8  C   UNL     1       2.521   5.991  20.422  0.00  0.00    +0.000 C 
BRANCH   8   9
ATOM      9  C   UNL     1       1.689   7.243  20.586  0.00  0.00    +0.000 A 
ATOM     10  N   UNL     1       0.968   7.344  21.666  0.00  0.00    +0.000 NA
ATOM     11  N   UNL     1       0.170   8.431  21.823  0.00  0.00    +0.000 N 
ATOM     12  C   UNL     1       0.035   9.467  20.931  0.00  0.00    +0.000 A 
ATOM     13  O   UNL     1      -0.725  10.408  21.129  0.00  0.00    +0.000 OA
ATOM     14  C   UNL     1       0.870   9.386  19.722  0.00  0.00    +0.000 A 
ATOM     15  C   UNL     1       0.825  10.414  18.773  0.00  0.00    +0.000 A 
ATOM     16  C   UNL     1       1.647  10.350  17.648  0.00  0.00    +0.000 A 
ATOM     17  C   UNL     1       2.511   9.270  17.477  0.00  0.00    +0.000 A 
ATOM     18  C   UNL     1       2.544   8.238  18.417  0.00  0.00    +0.000 A 
ATOM     19  C   UNL     1       1.712   8.292  19.544  0.00  0.00    +0.000 A 
ATOM     20  H   UNL     1      -0.400   8.472  22.663  0.00  0.00    +0.000 HD
ENDBRANCH   8   9
ENDBRANCH   2   8
BRANCH   7  21
ATOM     21  C   UNL     1       4.114   5.298  17.485  0.00  0.00    +0.000 C 
BRANCH  21  22
ATOM     22  C   UNL     1       5.485   5.828  17.840  0.00  0.00    +0.000 A 
ATOM     23  C   UNL     1       6.046   6.892  17.117  0.00  0.00    +0.000 A 
ATOM     24  C   UNL     1       7.309   7.394  17.448  0.00  0.00    +0.000 A 
ATOM     25  C   UNL     1       8.016   6.853  18.519  0.00  0.00    +0.000 A 
ATOM     26  C   UNL     1       7.451   5.822  19.256  0.00  0.00    +0.000 A 
ATOM     27  F   UNL     1       8.116   5.316  20.304  0.00  0.00    +0.000 F 
ATOM     28  C   UNL     1       6.200   5.309  18.928  0.00  0.00    +0.000 A 
ENDBRANCH  21  22
ENDBRANCH   7  21
TORSDOF 4
ENDMDL
MODEL 7
REMARK VINA RESULT:      -7.9      3.198      6.279
REMARK  Name = 
REMARK  4 active torsions:
REMARK  status: ('A' for Active; 'I' for Inactive)
REMARK    1  A    between atoms: C_2  and  C_3
REMARK    2  A    between atoms: C_3  and  C_4
REMARK    3  A    between atoms: C_19  and  C_20
REMARK    4  A    between atoms: C_20  and  C_21
REMARK                            x       y       z     vdW  Elec       q    Type
REMARK                         _______ _______ _______ _____ _____    ______ ____
ROOT
ATOM      1  O   UNL     1       6.279   3.347  15.626  0.00  0.00    +0.000 OA
ATOM      2  C   UNL     1       5.503   4.153  16.142  0.00  0.00    +0.000 C 
ATOM      3  N   UNL     1       5.813   5.497  16.289  0.00  0.00    +0.000 N 
ATOM      4  C   UNL     1       7.081   6.001  15.779  0.00  0.00    +0.000 C 
ATOM      5  C   UNL     1       7.640   6.812  16.930  0.00  0.00    +0.000 C 
ATOM      6  C   UNL     1       6.392   7.460  17.513  0.00  0.00    +0.000 C 
ATOM      7  C   UNL     1       5.283   6.405  17.328  0.00  0.00    +0.000 C 
ENDROOT
BRANCH   2   8
ATOM      8  C   UNL     1       4.137   3.677  16.581  0.00  0.00    +0.000 C 
BRANCH   8   9
ATOM      9  C   UNL     1       4.060   3.219  18.020  0.00  0.00    +0.000 A 
ATOM     10  N   UNL     1       5.181   2.913  18.609  0.00  0.00    +0.000 NA
ATOM     11  N   UNL     1       5.146   2.451  19.886  0.00  0.00    +0.000 N 
ATOM     12  C   UNL     1       4.016   2.260  20.643  0.00  0.00    +0.000 A 
ATOM     13  O   UNL     1       4.059   1.815  21.784  0.00  0.00    +0.000 OA
ATOM     14  C   UNL     1       2.744   2.634  20.004  0.00  0.00    +0.000 A 
ATOM     15  C   UNL     1       1.543   2.507  20.712  0.00  0.00    +0.000 A 
ATOM     16  C   UNL     1       0.345   2.899  20.115  0.00  0.00    +0.000 A 
ATOM     17  C   UNL     1       0.350   3.421  18.822  0.00  0.00    +0.000 A 
ATOM     18  C   UNL     1       1.546   3.533  18.111  0.00  0.00    +0.000 A 
ATOM     19  C   UNL     1       2.751   3.130  18.703  0.00  0.00    +0.000 A 
ATOM     20  H   UNL     1       6.032   2.196  20.312  0.00  0.00    +0.000 HD
ENDBRANCH   8   9
ENDBRANCH   2   8
BRANCH   7  21
ATOM     21  C   UNL     1       3.931   7.061  16.970  0.00  0.00    +0.000 C 
BRANCH  21  22
ATOM     22  C   UNL     1       3.037   7.382  18.147  0.00  0.00    +0.000 A 
ATOM     23  C   UNL     1       2.322   8.589  18.189  0.00  0.00    +0.000 A 
ATOM     24  C   UNL     1       1.485   8.887  19.269  0.00  0.00    +0.000 A 
ATOM     25  C   UNL     1       1.336   7.973  20.309  0.00  0.00    +0.000 A 
ATOM     26  C   UNL     1       2.017   6.765  20.256  0.00  0.00    +0.000 A 
ATOM     27  F   UNL     1       1.856   5.871  21.242  0.00  0.00    +0.000 F 
ATOM     28  C   UNL     1       2.860   6.464  19.191  0.00  0.00    +0.000 A 
ENDBRANCH  21  22
ENDBRANCH   7  21
TORSDOF 4
ENDMDL
MODEL 8
REMARK VINA RESULT:      -7.9      3.349      6.461
REMARK  Name = 
REMARK  4 active torsions:
REMARK  status: ('A' for Active; 'I' for Inactive)
REMARK    1  A    between atoms: C_2  and  C_3
REMARK    2  A    between atoms: C_3  and  C_4
REMARK    3  A    between atoms: C_19  and  C_20
REMARK    4  A    between atoms: C_20  and  C_21
REMARK                            x       y       z     vdW  Elec       q    Type
REMARK                         _______ _______ _______ _____ _____    ______ ____
ROOT
ATOM      1  O   UNL     1       6.355   3.544  15.616  0.00  0.00    +0.000 OA
ATOM      2  C   UNL     1       5.525   4.272  16.163  0.00  0.00    +0.000 C 
ATOM      3  N   UNL     1       5.754   5.622  16.390  0.00  0.00    +0.000 N 
ATOM      4  C   UNL     1       6.997   6.227  15.930  0.00  0.00    +0.000 C 
ATOM      5  C   UNL     1       7.491   7.003  17.133  0.00  0.00    +0.000 C 
ATOM      6  C   UNL     1       6.199   7.543  17.732  0.00  0.00    +0.000 C 
ATOM      7  C   UNL     1       5.158   6.437  17.470  0.00  0.00    +0.000 C 
ENDROOT
BRANCH   2   8
ATOM      8  C   UNL     1       4.184   3.693  16.552  0.00  0.00    +0.000 C 
BRANCH   8   9
ATOM      9  C   UNL     1       4.085   3.243  17.992  0.00  0.00    +0.000 A 
ATOM     10  N   UNL     1       5.198   2.961  18.607  0.00  0.00    +0.000 NA
ATOM     11  N   UNL     1       5.144   2.505  19.886  0.00  0.00    +0.000 N 
ATOM     12  C   UNL     1       4.001   2.299  20.620  0.00  0.00    +0.000 A 
ATOM     13  O   UNL     1       4.028   1.861  21.764  0.00  0.00    +0.000 OA
ATOM     14  C   UNL     1       2.737   2.647  19.951  0.00  0.00    +0.000 A 
ATOM     15  C   UNL     1       1.524   2.502  20.634  0.00  0.00    +0.000 A 
ATOM     16  C   UNL     1       0.332   2.870  20.009  0.00  0.00    +0.000 A 
ATOM     17  C   UNL     1       0.356   3.383  18.713  0.00  0.00    +0.000 A 
ATOM     18  C   UNL     1       1.564   3.513  18.028  0.00  0.00    +0.000 A 
ATOM     19  C   UNL     1       2.764   3.134  18.647  0.00  0.00    +0.000 A 
ATOM     20  H   UNL     1       6.025   2.269  20.332  0.00  0.00    +0.000 HD
ENDBRANCH   8   9
ENDBRANCH   2   8
BRANCH   7  21
ATOM     21  C   UNL     1       3.774   7.032  17.126  0.00  0.00    +0.000 C 
BRANCH  21  22
ATOM     22  C   UNL     1       2.899   7.362  18.316  0.00  0.00    +0.000 A 
ATOM     23  C   UNL     1       2.833   6.490  19.413  0.00  0.00    +0.000 A 
ATOM     24  C   UNL     1       2.036   6.795  20.521  0.00  0.00    +0.000 A 
ATOM     25  C   UNL     1       1.312   7.985  20.554  0.00  0.00    +0.000 A 
ATOM     26  C   UNL     1       1.400   8.864  19.484  0.00  0.00    +0.000 A 
ATOM     27  F   UNL     1       0.727  10.022  19.522  0.00  0.00    +0.000 F 
ATOM     28  C   UNL     1       2.183   8.565  18.373  0.00  0.00    +0.000 A 
ENDBRANCH  21  22
ENDBRANCH   7  21
TORSDOF 4
ENDMDL
MODEL 9
REMARK VINA RESULT:      -7.9      1.664      2.495
REMARK  Name = 
REMARK  4 active torsions:
REMARK  status: ('A' for Active; 'I' for Inactive)
REMARK    1  A    between atoms: C_2  and  C_3
REMARK    2  A    between atoms: C_3  and  C_4
REMARK    3  A    between atoms: C_19  and  C_20
REMARK    4  A    between atoms: C_20  and  C_21
REMARK                            x       y       z     vdW  Elec       q    Type
REMARK                         _______ _______ _______ _____ _____    ______ ____
ROOT
ATOM      1  O   UNL     1       0.707   4.499  20.467  0.00  0.00    +0.000 OA
ATOM      2  C   UNL     1       1.763   4.830  19.925  0.00  0.00    +0.000 C 
ATOM      3  N   UNL     1       2.252   4.189  18.795  0.00  0.00    +0.000 N 
ATOM      4  C   UNL     1       1.480   3.113  18.189  0.00  0.00    +0.000 C 
ATOM      5  C   UNL     1       2.494   2.006  17.987  0.00  0.00    +0.000 C 
ATOM      6  C   UNL     1       3.747   2.776  17.589  0.00  0.00    +0.000 C 
ATOM      7  C   UNL     1       3.672   4.085  18.400  0.00  0.00    +0.000 C 
ENDROOT
BRANCH   2   8
ATOM      8  C   UNL     1       2.528   6.014  20.469  0.00  0.00    +0.000 C 
BRANCH   8   9
ATOM      9  C   UNL     1       1.709   7.275  20.627  0.00  0.00    +0.000 A 
ATOM     10  N   UNL     1       1.000   7.395  21.713  0.00  0.00    +0.000 NA
ATOM     11  N   UNL     1       0.214   8.492  21.867  0.00  0.00    +0.000 N 
ATOM     12  C   UNL     1       0.081   9.520  20.965  0.00  0.00    +0.000 A 
ATOM     13  O   UNL     1      -0.669  10.469  21.160  0.00  0.00    +0.000 OA
ATOM     14  C   UNL     1       0.902   9.417  19.748  0.00  0.00    +0.000 A 
ATOM     15  C   UNL     1       0.857  10.435  18.788  0.00  0.00    +0.000 A 
ATOM     16  C   UNL     1       1.667  10.351  17.655  0.00  0.00    +0.000 A 
ATOM     17  C   UNL     1       2.519   9.260  17.488  0.00  0.00    +0.000 A 
ATOM     18  C   UNL     1       2.552   8.239  18.438  0.00  0.00    +0.000 A 
ATOM     19  C   UNL     1       1.732   8.313  19.573  0.00  0.00    +0.000 A 
ATOM     20  H   UNL     1      -0.346   8.547  22.711  0.00  0.00    +0.000 HD
ENDBRANCH   8   9
ENDBRANCH   2   8
BRANCH   7  21
ATOM     21  C   UNL     1       4.194   5.288  17.581  0.00  0.00    +0.000 C 
BRANCH  21  22
ATOM     22  C   UNL     1       5.556   5.805  17.990  0.00  0.00    +0.000 A 
ATOM     23  C   UNL     1       6.256   5.205  19.048  0.00  0.00    +0.000 A 
ATOM     24  C   UNL     1       7.520   5.671  19.423  0.00  0.00    +0.000 A 
ATOM     25  C   UNL     1       8.108   6.727  18.731  0.00  0.00    +0.000 A 
ATOM     26  C   UNL     1       7.433   7.302  17.664  0.00  0.00    +0.000 A 
ATOM     27  F   UNL     1       8.006   8.300  16.979  0.00  0.00    +0.000 F 
ATOM     28  C   UNL     1       6.170   6.852  17.290  0.00  0.00    +0.000 A 
ENDBRANCH  21  22
ENDBRANCH   7  21
TORSDOF 4
ENDMDL
