MODEL 1
REMARK VINA RESULT:      -8.7      0.000      0.000
REMARK  Name = 
REMARK  2 active torsions:
REMARK  status: ('A' for Active; 'I' for Inactive)
REMARK    1  A    between atoms: C_4  and  C_5
REMARK    2  A    between atoms: C_9  and  O_10
REMARK                            x       y       z     vdW  Elec       q    Type
REMARK                         _______ _______ _______ _____ _____    ______ ____
ROOT
ATOM      1  N   UNL     1       1.743   2.085  18.738  0.00  0.00    +0.000 N 
ATOM      2  C   UNL     1       2.525   3.174  18.527  0.00  0.00    +0.000 C 
ATOM      3  N   UNL     1       2.053   4.188  17.890  0.00  0.00    +0.000 NA
ATOM      4  C   UNL     1       2.991   5.333  17.711  0.00  0.00    +0.000 C 
ATOM      5  N   UNL     1       4.364   5.111  18.172  0.00  0.00    +0.000 N 
ATOM      6  C   UNL     1       4.718   3.982  18.853  0.00  0.00    +0.000 A 
ATOM      7  N   UNL     1       5.977   3.999  19.215  0.00  0.00    +0.000 NA
ATOM      8  C   UNL     1       6.463   5.193  18.730  0.00  0.00    +0.000 A 
ATOM      9  C   UNL     1       7.748   5.743  18.843  0.00  0.00    +0.000 A 
ATOM     10  C   UNL     1       8.006   6.989  18.256  0.00  0.00    +0.000 A 
ATOM     11  C   UNL     1       7.008   7.669  17.558  0.00  0.00    +0.000 A 
ATOM     12  C   UNL     1       5.721   7.137  17.428  0.00  0.00    +0.000 A 
ATOM     13  C   UNL     1       5.476   5.902  18.039  0.00  0.00    +0.000 A 
ATOM     14  N   UNL     1       3.776   3.048  19.040  0.00  0.00    +0.000 N 
ATOM     15  H   UNL     1       0.776   2.282  18.495  0.00  0.00    +0.000 HD
ATOM     16  H   UNL     1       1.815   1.669  19.656  0.00  0.00    +0.000 HD
ATOM     17  H   UNL     1       4.063   2.158  19.417  0.00  0.00    +0.000 HD
ENDROOT
BRANCH   4  18
ATOM     18  C   UNL     1       2.429   6.591  18.359  0.00  0.00    +0.000 A 
ATOM     19  C   UNL     1       2.152   6.633  19.737  0.00  0.00    +0.000 A 
ATOM     20  C   UNL     1       1.713   7.813  20.340  0.00  0.00    +0.000 A 
ATOM     21  C   UNL     1       1.542   8.967  19.578  0.00  0.00    +0.000 A 
ATOM     22  C   UNL     1       1.797   8.926  18.212  0.00  0.00    +0.000 A 
ATOM     23  C   UNL     1       2.225   7.753  17.599  0.00  0.00    +0.000 A 
BRANCH  22  24
ATOM     24  O   UNL     1       1.652  10.032  17.428  0.00  0.00    +0.000 OA
ATOM     25  H   UNL     1       1.267   9.759  16.579  0.00  0.00    +0.000 HD
ENDBRANCH  22  24
ENDBRANCH   4  18
TORSDOF 2
ENDMDL
MODEL 2
REMARK VINA RESULT:      -8.7      1.063      1.493
REMARK  Name = 
REMARK  2 active torsions:
REMARK  status: ('A' for Active; 'I' for Inactive)
REMARK    1  A    between atoms: C_4  and  C_5
REMARK    2  A    between atoms: C_9  and  O_10
REMARK                            x       y       z     vdW  Elec       q    Type
REMARK                         _______ _______ _______ _____ _____    ______ ____
ROOT
ATOM      1  N   UNL     1       1.429   2.379  19.258  0.00  0.00    +0.000 N 
ATOM      2  C   UNL     1       2.267   3.392  18.925  0.00  0.00    +0.000 C 
ATOM      3  N   UNL     1       1.831   4.383  18.228  0.00  0.00    +0.000 NA
ATOM      4  C   UNL     1       2.830   5.444  17.917  0.00  0.00    +0.000 C 
ATOM      5  N   UNL     1       4.206   5.169  18.337  0.00  0.00    +0.000 N 
ATOM      6  C   UNL     1       4.520   4.077  19.092  0.00  0.00    +0.000 A 
ATOM      7  N   UNL     1       5.793   4.039  19.400  0.00  0.00    +0.000 NA
ATOM      8  C   UNL     1       6.330   5.155  18.798  0.00  0.00    +0.000 A 
ATOM      9  C   UNL     1       7.651   5.626  18.812  0.00  0.00    +0.000 A 
ATOM     10  C   UNL     1       7.959   6.801  18.114  0.00  0.00    +0.000 A 
ATOM     11  C   UNL     1       6.974   7.488  17.405  0.00  0.00    +0.000 A 
ATOM     12  C   UNL     1       5.652   7.035  17.373  0.00  0.00    +0.000 A 
ATOM     13  C   UNL     1       5.359   5.871  18.093  0.00  0.00    +0.000 A 
ATOM     14  N   UNL     1       3.531   3.225  19.395  0.00  0.00    +0.000 N 
ATOM     15  H   UNL     1       0.466   2.619  19.039  0.00  0.00    +0.000 HD
ATOM     16  H   UNL     1       1.517   2.032  20.203  0.00  0.00    +0.000 HD
ATOM     17  H   UNL     1       3.779   2.351  19.831  0.00  0.00    +0.000 HD
ENDROOT
BRANCH   4  18
ATOM     18  C   UNL     1       2.379   6.785  18.482  0.00  0.00    +0.000 A 
ATOM     19  C   UNL     1       2.102   7.871  17.633  0.00  0.00    +0.000 A 
ATOM     20  C   UNL     1       1.613   9.072  18.150  0.00  0.00    +0.000 A 
ATOM     21  C   UNL     1       1.394   9.207  19.520  0.00  0.00    +0.000 A 
ATOM     22  C   UNL     1       1.683   8.142  20.364  0.00  0.00    +0.000 A 
ATOM     23  C   UNL     1       2.181   6.945  19.862  0.00  0.00    +0.000 A 
BRANCH  22  24
ATOM     24  O   UNL     1       1.477   8.226  21.710  0.00  0.00    +0.000 OA
ATOM     25  H   UNL     1       2.090   8.885  22.075  0.00  0.00    +0.000 HD
ENDBRANCH  22  24
ENDBRANCH   4  18
TORSDOF 2
ENDMDL
MODEL 3
REMARK VINA RESULT:      -7.8      2.758      5.615
REMARK  Name = 
REMARK  2 active torsions:
REMARK  status: ('A' for Active; 'I' for Inactive)
REMARK    1  A    between atoms: C_4  and  C_5
REMARK    2  A    between atoms: C_9  and  O_10
REMARK                            x       y       z     vdW  Elec       q    Type
REMARK                         _______ _______ _______ _____ _____    ______ ____
ROOT
ATOM      1  N   UNL     1       2.625   9.479  17.844  0.00  0.00    +0.000 N 
ATOM      2  C   UNL     1       2.766   8.155  18.100  0.00  0.00    +0.000 C 
ATOM      3  N   UNL     1       3.381   7.400  17.256  0.00  0.00    +0.000 NA
ATOM      4  C   UNL     1       3.482   5.961  17.630  0.00  0.00    +0.000 C 
ATOM      5  N   UNL     1       2.766   5.565  18.846  0.00  0.00    +0.000 N 
ATOM      6  C   UNL     1       2.169   6.485  19.657  0.00  0.00    +0.000 A 
ATOM      7  N   UNL     1       1.625   5.932  20.713  0.00  0.00    +0.000 NA
ATOM      8  C   UNL     1       1.871   4.585  20.566  0.00  0.00    +0.000 A 
ATOM      9  C   UNL     1       1.531   3.520  21.413  0.00  0.00    +0.000 A 
ATOM     10  C   UNL     1       1.893   2.219  21.043  0.00  0.00    +0.000 A 
ATOM     11  C   UNL     1       2.568   1.978  19.847  0.00  0.00    +0.000 A 
ATOM     12  C   UNL     1       2.912   3.024  18.984  0.00  0.00    +0.000 A 
ATOM     13  C   UNL     1       2.561   4.319  19.381  0.00  0.00    +0.000 A 
ATOM     14  N   UNL     1       2.210   7.769  19.277  0.00  0.00    +0.000 N 
ATOM     15  H   UNL     1       3.196   9.757  17.050  0.00  0.00    +0.000 HD
ATOM     16  H   UNL     1       2.770  10.094  18.634  0.00  0.00    +0.000 HD
ATOM     17  H   UNL     1       1.655   8.432  19.796  0.00  0.00    +0.000 HD
ENDROOT
BRANCH   4  18
ATOM     18  C   UNL     1       4.942   5.537  17.732  0.00  0.00    +0.000 A 
ATOM     19  C   UNL     1       5.630   5.039  16.612  0.00  0.00    +0.000 A 
ATOM     20  C   UNL     1       6.989   4.727  16.692  0.00  0.00    +0.000 A 
ATOM     21  C   UNL     1       7.679   4.906  17.889  0.00  0.00    +0.000 A 
ATOM     22  C   UNL     1       6.998   5.381  19.004  0.00  0.00    +0.000 A 
ATOM     23  C   UNL     1       5.643   5.685  18.939  0.00  0.00    +0.000 A 
BRANCH  22  24
ATOM     24  O   UNL     1       7.634   5.580  20.194  0.00  0.00    +0.000 OA
ATOM     25  H   UNL     1       8.592   5.570  20.036  0.00  0.00    +0.000 HD
ENDBRANCH  22  24
ENDBRANCH   4  18
TORSDOF 2
ENDMDL
MODEL 4
REMARK VINA RESULT:      -7.7      2.967      4.535
REMARK  Name = 
REMARK  2 active torsions:
REMARK  status: ('A' for Active; 'I' for Inactive)
REMARK    1  A    between atoms: C_4  and  C_5
REMARK    2  A    between atoms: C_9  and  O_10
REMARK                            x       y       z     vdW  Elec       q    Type
REMARK                         _______ _______ _______ _____ _____    ______ ____
ROOT
ATOM      1  N   UNL     1       0.952   9.450  18.708  0.00  0.00    +0.000 N 
ATOM      2  C   UNL     1       1.849   8.432  18.712  0.00  0.00    +0.000 C 
ATOM      3  N   UNL     1       1.908   7.634  19.720  0.00  0.00    +0.000 NA
ATOM      4  C   UNL     1       2.926   6.549  19.627  0.00  0.00    +0.000 C 
ATOM      5  N   UNL     1       3.811   6.602  18.459  0.00  0.00    +0.000 N 
ATOM      6  C   UNL     1       3.616   7.503  17.453  0.00  0.00    +0.000 A 
ATOM      7  N   UNL     1       4.484   7.355  16.484  0.00  0.00    +0.000 NA
ATOM      8  C   UNL     1       5.290   6.316  16.894  0.00  0.00    +0.000 A 
ATOM      9  C   UNL     1       6.376   5.718  16.237  0.00  0.00    +0.000 A 
ATOM     10  C   UNL     1       7.049   4.662  16.865  0.00  0.00    +0.000 A 
ATOM     11  C   UNL     1       6.659   4.218  18.128  0.00  0.00    +0.000 A 
ATOM     12  C   UNL     1       5.583   4.803  18.803  0.00  0.00    +0.000 A 
ATOM     13  C   UNL     1       4.909   5.842  18.151  0.00  0.00    +0.000 A 
ATOM     14  N   UNL     1       2.615   8.382  17.591  0.00  0.00    +0.000 N 
ATOM     15  H   UNL     1       0.291   9.353  19.474  0.00  0.00    +0.000 HD
ATOM     16  H   UNL     1       0.478   9.610  17.829  0.00  0.00    +0.000 HD
ATOM     17  H   UNL     1       2.553   9.134  16.922  0.00  0.00    +0.000 HD
ENDROOT
BRANCH   4  18
ATOM     18  C   UNL     1       2.259   5.182  19.703  0.00  0.00    +0.000 A 
ATOM     19  C   UNL     1       1.762   4.555  18.547  0.00  0.00    +0.000 A 
ATOM     20  C   UNL     1       1.224   3.267  18.611  0.00  0.00    +0.000 A 
ATOM     21  C   UNL     1       1.173   2.589  19.827  0.00  0.00    +0.000 A 
ATOM     22  C   UNL     1       1.647   3.213  20.975  0.00  0.00    +0.000 A 
ATOM     23  C   UNL     1       2.175   4.499  20.926  0.00  0.00    +0.000 A 
BRANCH  22  24
ATOM     24  O   UNL     1       1.625   2.585  22.186  0.00  0.00    +0.000 OA
ATOM     25  H   UNL     1       0.902   1.936  22.183  0.00  0.00    +0.000 HD
ENDBRANCH  22  24
ENDBRANCH   4  18
TORSDOF 2
ENDMDL
MODEL 5
REMARK VINA RESULT:      -7.6      2.823      5.401
REMARK  Name = 
REMARK  2 active torsions:
REMARK  status: ('A' for Active; 'I' for Inactive)
REMARK    1  A    between atoms: C_4  and  C_5
REMARK    2  A    between atoms: C_9  and  O_10
REMARK                            x       y       z     vdW  Elec       q    Type
REMARK                         _______ _______ _______ _____ _____    ______ ____
ROOT
ATOM      1  N   UNL     1       2.140   9.753  17.977  0.00  0.00    +0.000 N 
ATOM      2  C   UNL     1       2.429   8.448  18.208  0.00  0.00    +0.000 C 
ATOM      3  N   UNL     1       3.063   7.764  17.320  0.00  0.00    +0.000 NA
ATOM      4  C   UNL     1       3.332   6.341  17.670  0.00  0.00    +0.000 C 
ATOM      5  N   UNL     1       2.735   5.867  18.922  0.00  0.00    +0.000 N 
ATOM      6  C   UNL     1       2.100   6.718  19.779  0.00  0.00    +0.000 A 
ATOM      7  N   UNL     1       1.680   6.107  20.859  0.00  0.00    +0.000 NA
ATOM      8  C   UNL     1       2.050   4.792  20.682  0.00  0.00    +0.000 A 
ATOM      9  C   UNL     1       1.872   3.694  21.536  0.00  0.00    +0.000 A 
ATOM     10  C   UNL     1       2.340   2.437  21.129  0.00  0.00    +0.000 A 
ATOM     11  C   UNL     1       2.961   2.273  19.891  0.00  0.00    +0.000 A 
ATOM     12  C   UNL     1       3.144   3.353  19.022  0.00  0.00    +0.000 A 
ATOM     13  C   UNL     1       2.690   4.604  19.454  0.00  0.00    +0.000 A 
ATOM     14  N   UNL     1       1.987   8.001  19.412  0.00  0.00    +0.000 N 
ATOM     15  H   UNL     1       2.630  10.091  17.153  0.00  0.00    +0.000 HD
ATOM     16  H   UNL     1       2.270  10.374  18.764  0.00  0.00    +0.000 HD
ATOM     17  H   UNL     1       1.401   8.602  19.971  0.00  0.00    +0.000 HD
ENDROOT
BRANCH   4  18
ATOM     18  C   UNL     1       4.830   6.066  17.679  0.00  0.00    +0.000 A 
ATOM     19  C   UNL     1       5.523   5.878  18.888  0.00  0.00    +0.000 A 
ATOM     20  C   UNL     1       6.879   5.547  18.887  0.00  0.00    +0.000 A 
ATOM     21  C   UNL     1       7.564   5.401  17.682  0.00  0.00    +0.000 A 
ATOM     22  C   UNL     1       6.887   5.603  16.485  0.00  0.00    +0.000 A 
ATOM     23  C   UNL     1       5.539   5.943  16.474  0.00  0.00    +0.000 A 
BRANCH  22  24
ATOM     24  O   UNL     1       7.513   5.463  15.281  0.00  0.00    +0.000 OA
ATOM     25  H   UNL     1       8.229   4.814  15.381  0.00  0.00    +0.000 HD
ENDBRANCH  22  24
ENDBRANCH   4  18
TORSDOF 2
ENDMDL
MODEL 6
REMARK VINA RESULT:      -7.3      2.707      5.345
REMARK  Name = 
REMARK  2 active torsions:
REMARK  status: ('A' for Active; 'I' for Inactive)
REMARK    1  A    between atoms: C_4  and  C_5
REMARK    2  A    between atoms: C_9  and  O_10
REMARK                            x       y       z     vdW  Elec       q    Type
REMARK                         _______ _______ _______ _____ _____    ______ ____
ROOT
ATOM      1  N   UNL     1       1.561   9.075  20.752  0.00  0.00    +0.000 N 
ATOM      2  C   UNL     1       1.859   7.909  20.125  0.00  0.00    +0.000 C 
ATOM      3  N   UNL     1       2.423   7.930  18.968  0.00  0.00    +0.000 NA
ATOM      4  C   UNL     1       2.710   6.597  18.364  0.00  0.00    +0.000 C 
ATOM      5  N   UNL     1       2.204   5.438  19.106  0.00  0.00    +0.000 N 
ATOM      6  C   UNL     1       1.637   5.569  20.340  0.00  0.00    +0.000 A 
ATOM      7  N   UNL     1       1.294   4.413  20.850  0.00  0.00    +0.000 NA
ATOM      8  C   UNL     1       1.644   3.491  19.889  0.00  0.00    +0.000 A 
ATOM      9  C   UNL     1       1.523   2.093  19.909  0.00  0.00    +0.000 A 
ATOM     10  C   UNL     1       1.953   1.360  18.796  0.00  0.00    +0.000 A 
ATOM     11  C   UNL     1       2.481   2.005  17.678  0.00  0.00    +0.000 A 
ATOM     12  C   UNL     1       2.606   3.397  17.633  0.00  0.00    +0.000 A 
ATOM     13  C   UNL     1       2.191   4.111  18.763  0.00  0.00    +0.000 A 
ATOM     14  N   UNL     1       1.504   6.807  20.835  0.00  0.00    +0.000 N 
ATOM     15  H   UNL     1       1.991   9.863  20.275  0.00  0.00    +0.000 HD
ATOM     16  H   UNL     1       1.751   9.097  21.745  0.00  0.00    +0.000 HD
ATOM     17  H   UNL     1       0.964   6.922  21.678  0.00  0.00    +0.000 HD
ENDROOT
BRANCH   4  18
ATOM     18  C   UNL     1       4.203   6.433  18.113  0.00  0.00    +0.000 A 
ATOM     19  C   UNL     1       4.791   6.900  16.925  0.00  0.00    +0.000 A 
ATOM     20  C   UNL     1       6.172   6.820  16.734  0.00  0.00    +0.000 A 
ATOM     21  C   UNL     1       6.985   6.272  17.725  0.00  0.00    +0.000 A 
ATOM     22  C   UNL     1       6.405   5.793  18.894  0.00  0.00    +0.000 A 
ATOM     23  C   UNL     1       5.030   5.859  19.090  0.00  0.00    +0.000 A 
BRANCH  22  24
ATOM     24  O   UNL     1       7.161   5.257  19.895  0.00  0.00    +0.000 OA
ATOM     25  H   UNL     1       6.908   5.680  20.732  0.00  0.00    +0.000 HD
ENDBRANCH  22  24
ENDBRANCH   4  18
TORSDOF 2
ENDMDL
MODEL 7
REMARK VINA RESULT:      -7.3      2.776      4.250
REMARK  Name = 
REMARK  2 active torsions:
REMARK  status: ('A' for Active; 'I' for Inactive)
REMARK    1  A    between atoms: C_4  and  C_5
REMARK    2  A    between atoms: C_9  and  O_10
REMARK                            x       y       z     vdW  Elec       q    Type
REMARK                         _______ _______ _______ _____ _____    ______ ____
ROOT
ATOM      1  N   UNL     1       0.935   9.348  18.509  0.00  0.00    +0.000 N 
ATOM      2  C   UNL     1       1.876   8.375  18.591  0.00  0.00    +0.000 C 
ATOM      3  N   UNL     1       1.990   7.682  19.670  0.00  0.00    +0.000 NA
ATOM      4  C   UNL     1       3.053   6.637  19.658  0.00  0.00    +0.000 C 
ATOM      5  N   UNL     1       3.912   6.614  18.472  0.00  0.00    +0.000 N 
ATOM      6  C   UNL     1       3.658   7.403  17.388  0.00  0.00    +0.000 A 
ATOM      7  N   UNL     1       4.514   7.198  16.417  0.00  0.00    +0.000 NA
ATOM      8  C   UNL     1       5.373   6.239  16.907  0.00  0.00    +0.000 A 
ATOM      9  C   UNL     1       6.472   5.626  16.286  0.00  0.00    +0.000 A 
ATOM     10  C   UNL     1       7.203   4.667  16.998  0.00  0.00    +0.000 A 
ATOM     11  C   UNL     1       6.857   4.332  18.307  0.00  0.00    +0.000 A 
ATOM     12  C   UNL     1       5.769   4.933  18.947  0.00  0.00    +0.000 A 
ATOM     13  C   UNL     1       5.037   5.874  18.213  0.00  0.00    +0.000 A 
ATOM     14  N   UNL     1       2.622   8.248  17.463  0.00  0.00    +0.000 N 
ATOM     15  H   UNL     1       0.293   9.298  19.296  0.00  0.00    +0.000 HD
ATOM     16  H   UNL     1       0.437   9.401  17.630  0.00  0.00    +0.000 HD
ATOM     17  H   UNL     1       2.514   8.928  16.726  0.00  0.00    +0.000 HD
ENDROOT
BRANCH   4  18
ATOM     18  C   UNL     1       2.449   5.257  19.882  0.00  0.00    +0.000 A 
ATOM     19  C   UNL     1       2.376   4.700  21.171  0.00  0.00    +0.000 A 
ATOM     20  C   UNL     1       1.750   3.470  21.382  0.00  0.00    +0.000 A 
ATOM     21  C   UNL     1       1.189   2.778  20.310  0.00  0.00    +0.000 A 
ATOM     22  C   UNL     1       1.275   3.316  19.031  0.00  0.00    +0.000 A 
ATOM     23  C   UNL     1       1.905   4.535  18.808  0.00  0.00    +0.000 A 
BRANCH  22  24
ATOM     24  O   UNL     1       0.734   2.679  17.954  0.00  0.00    +0.000 OA
ATOM     25  H   UNL     1       0.509   1.770  18.214  0.00  0.00    +0.000 HD
ENDBRANCH  22  24
ENDBRANCH   4  18
TORSDOF 2
ENDMDL
MODEL 8
REMARK VINA RESULT:      -7.2      1.862      4.263
REMARK  Name = 
REMARK  2 active torsions:
REMARK  status: ('A' for Active; 'I' for Inactive)
REMARK    1  A    between atoms: C_4  and  C_5
REMARK    2  A    between atoms: C_9  and  O_10
REMARK                            x       y       z     vdW  Elec       q    Type
REMARK                         _______ _______ _______ _____ _____    ______ ____
ROOT
ATOM      1  N   UNL     1       6.033   6.256  15.621  0.00  0.00    +0.000 N 
ATOM      2  C   UNL     1       5.150   5.894  16.585  0.00  0.00    +0.000 C 
ATOM      3  N   UNL     1       5.054   6.593  17.661  0.00  0.00    +0.000 NA
ATOM      4  C   UNL     1       4.055   6.112  18.658  0.00  0.00    +0.000 C 
ATOM      5  N   UNL     1       3.400   4.840  18.342  0.00  0.00    +0.000 N 
ATOM      6  C   UNL     1       3.589   4.215  17.144  0.00  0.00    +0.000 A 
ATOM      7  N   UNL     1       2.879   3.118  17.043  0.00  0.00    +0.000 NA
ATOM      8  C   UNL     1       2.211   3.024  18.243  0.00  0.00    +0.000 A 
ATOM      9  C   UNL     1       1.295   2.054  18.679  0.00  0.00    +0.000 A 
ATOM     10  C   UNL     1       0.743   2.173  19.960  0.00  0.00    +0.000 A 
ATOM     11  C   UNL     1       1.104   3.227  20.799  0.00  0.00    +0.000 A 
ATOM     12  C   UNL     1       2.019   4.202  20.388  0.00  0.00    +0.000 A 
ATOM     13  C   UNL     1       2.545   4.079  19.096  0.00  0.00    +0.000 A 
ATOM     14  N   UNL     1       4.442   4.776  16.277  0.00  0.00    +0.000 N 
ATOM     15  H   UNL     1       6.415   7.180  15.808  0.00  0.00    +0.000 HD
ATOM     16  H   UNL     1       5.695   6.183  14.670  0.00  0.00    +0.000 HD
ATOM     17  H   UNL     1       4.691   4.251  15.454  0.00  0.00    +0.000 HD
ENDROOT
BRANCH   4  18
ATOM     18  C   UNL     1       3.001   7.181  18.918  0.00  0.00    +0.000 A 
ATOM     19  C   UNL     1       2.289   7.214  20.130  0.00  0.00    +0.000 A 
ATOM     20  C   UNL     1       1.382   8.242  20.395  0.00  0.00    +0.000 A 
ATOM     21  C   UNL     1       1.173   9.250  19.456  0.00  0.00    +0.000 A 
ATOM     22  C   UNL     1       1.861   9.212  18.249  0.00  0.00    +0.000 A 
ATOM     23  C   UNL     1       2.759   8.187  17.970  0.00  0.00    +0.000 A 
BRANCH  22  24
ATOM     24  O   UNL     1       1.695  10.181  17.304  0.00  0.00    +0.000 OA
ATOM     25  H   UNL     1       2.510  10.241  16.779  0.00  0.00    +0.000 HD
ENDBRANCH  22  24
ENDBRANCH   4  18
TORSDOF 2
ENDMDL
MODEL 9
REMARK VINA RESULT:      -7.2      3.121      4.628
REMARK  Name = 
REMARK  2 active torsions:
REMARK  status: ('A' for Active; 'I' for Inactive)
REMARK    1  A    between atoms: C_4  and  C_5
REMARK    2  A    between atoms: C_9  and  O_10
REMARK                            x       y       z     vdW  Elec       q    Type
REMARK                         _______ _______ _______ _____ _____    ______ ____
ROOT
ATOM      1  N   UNL     1       7.937   5.656  20.055  0.00  0.00    +0.000 N 
ATOM      2  C   UNL     1       7.326   5.217  18.926  0.00  0.00    +0.000 C 
ATOM      3  N   UNL     1       6.367   4.361  19.007  0.00  0.00    +0.000 NA
ATOM      4  C   UNL     1       5.763   3.943  17.710  0.00  0.00    +0.000 C 
ATOM      5  N   UNL     1       6.415   4.462  16.505  0.00  0.00    +0.000 N 
ATOM      6  C   UNL     1       7.418   5.384  16.574  0.00  0.00    +0.000 A 
ATOM      7  N   UNL     1       7.833   5.752  15.386  0.00  0.00    +0.000 NA
ATOM      8  C   UNL     1       7.067   5.017  14.508  0.00  0.00    +0.000 A 
ATOM      9  C   UNL     1       7.071   5.022  13.105  0.00  0.00    +0.000 A 
ATOM     10  C   UNL     1       6.189   4.174  12.423  0.00  0.00    +0.000 A 
ATOM     11  C   UNL     1       5.330   3.326  13.123  0.00  0.00    +0.000 A 
ATOM     12  C   UNL     1       5.313   3.301  14.521  0.00  0.00    +0.000 A 
ATOM     13  C   UNL     1       6.186   4.171  15.185  0.00  0.00    +0.000 A 
ATOM     14  N   UNL     1       7.832   5.763  17.790  0.00  0.00    +0.000 N 
ATOM     15  H   UNL     1       7.424   5.361  20.882  0.00  0.00    +0.000 HD
ATOM     16  H   UNL     1       8.142   6.646  20.083  0.00  0.00    +0.000 HD
ATOM     17  H   UNL     1       8.661   6.334  17.849  0.00  0.00    +0.000 HD
ENDROOT
BRANCH   4  18
ATOM     18  C   UNL     1       4.278   4.284  17.678  0.00  0.00    +0.000 A 
ATOM     19  C   UNL     1       3.310   3.277  17.517  0.00  0.00    +0.000 A 
ATOM     20  C   UNL     1       1.948   3.584  17.568  0.00  0.00    +0.000 A 
ATOM     21  C   UNL     1       1.535   4.898  17.778  0.00  0.00    +0.000 A 
ATOM     22  C   UNL     1       2.489   5.899  17.919  0.00  0.00    +0.000 A 
ATOM     23  C   UNL     1       3.847   5.607  17.860  0.00  0.00    +0.000 A 
BRANCH  22  24
ATOM     24  O   UNL     1       2.132   7.198  18.135  0.00  0.00    +0.000 OA
ATOM     25  H   UNL     1       1.274   7.355  17.706  0.00  0.00    +0.000 HD
ENDBRANCH  22  24
ENDBRANCH   4  18
TORSDOF 2
ENDMDL
