MODEL 1
REMARK VINA RESULT:      -8.6      0.000      0.000
REMARK  Name = 
REMARK  6 active torsions:
REMARK  status: ('A' for Active; 'I' for Inactive)
REMARK    1  A    between atoms: C_1  and  C_2
REMARK    2  A    between atoms: C_2  and  O_3
REMARK    3  A    between atoms: C_2  and  C_23
REMARK    4  A    between atoms: O_3  and  C_4
REMARK    5  A    between atoms: C_7  and  C_8
REMARK    6  A    between atoms: N_10  and  C_11
REMARK                            x       y       z     vdW  Elec       q    Type
REMARK                         _______ _______ _______ _____ _____    ______ ____
ROOT
ATOM      1  C   UNL     1       1.864   8.576  18.545  0.00  0.00    +0.000 C 
ATOM      2  O   UNL     1       2.024   9.114  17.455  0.00  0.00    +0.000 OA
ATOM      3  N   UNL     1       2.326   7.319  18.910  0.00  0.00    +0.000 N 
ATOM      4  H   UNL     1       1.948   6.906  19.754  0.00  0.00    +0.000 HD
ENDROOT
BRANCH   3   5
ATOM      5  C   UNL     1       3.132   6.469  18.106  0.00  0.00    +0.000 A 
ATOM      6  C   UNL     1       2.855   5.088  17.943  0.00  0.00    +0.000 A 
ATOM      7  C   UNL     1       3.666   4.252  17.161  0.00  0.00    +0.000 A 
ATOM      8  C   UNL     1       4.751   4.833  16.560  0.00  0.00    +0.000 A 
ATOM      9  N   UNL     1       5.732   4.265  15.758  0.00  0.00    +0.000 N 
ATOM     10  C   UNL     1       6.648   5.262  15.393  0.00  0.00    +0.000 A 
ATOM     11  O   UNL     1       7.642   5.120  14.703  0.00  0.00    +0.000 OA
ATOM     12  N   UNL     1       6.198   6.454  15.984  0.00  0.00    +0.000 N 
ATOM     13  C   UNL     1       5.033   6.190  16.699  0.00  0.00    +0.000 A 
ATOM     14  C   UNL     1       4.240   7.034  17.451  0.00  0.00    +0.000 A 
ATOM     15  H   UNL     1       5.812   3.299  15.480  0.00  0.00    +0.000 HD
ATOM     16  H   UNL     1       6.682   7.332  15.892  0.00  0.00    +0.000 HD
ENDBRANCH   3   5
BRANCH   1  20
ATOM     17  C   UNL     1      -0.440  10.452  21.555  0.00  0.00    +0.000 A 
ATOM     18  C   UNL     1      -0.648  10.864  20.244  0.00  0.00    +0.000 A 
ATOM     19  C   UNL     1       0.099  10.274  19.219  0.00  0.00    +0.000 A 
ATOM     20  C   UNL     1       1.052   9.310  19.548  0.00  0.00    +0.000 A 
ATOM     21  C   UNL     1       1.192   8.972  20.893  0.00  0.00    +0.000 A 
ATOM     22  N   UNL     1       0.474   9.526  21.905  0.00  0.00    +0.000 NA
BRANCH  17  23
ATOM     23  O   UNL     1      -1.222  11.051  22.521  0.00  0.00    +0.000 OA
BRANCH  23  25
ATOM     24  C   UNL     1      -0.891  13.449  22.833  0.00  0.00    +0.000 C 
ATOM     25  C   UNL     1      -1.730  12.351  22.168  0.00  0.00    +0.000 C 
BRANCH  25  26
ATOM     26  C   UNL     1      -3.170  12.488  22.667  0.00  0.00    +0.000 A 
ATOM     27  C   UNL     1      -4.199  12.767  21.749  0.00  0.00    +0.000 A 
ATOM     28  C   UNL     1      -5.510  12.985  22.182  0.00  0.00    +0.000 A 
ATOM     29  C   UNL     1      -5.815  12.920  23.540  0.00  0.00    +0.000 A 
ATOM     30  C   UNL     1      -4.810  12.634  24.462  0.00  0.00    +0.000 A 
ATOM     31  C   UNL     1      -3.497  12.422  24.030  0.00  0.00    +0.000 A 
ENDBRANCH  25  26
ENDBRANCH  23  25
ENDBRANCH  17  23
ENDBRANCH   1  20
TORSDOF 5
ENDMDL
MODEL 2
REMARK VINA RESULT:      -8.3      2.087      2.784
REMARK  Name = 
REMARK  6 active torsions:
REMARK  status: ('A' for Active; 'I' for Inactive)
REMARK    1  A    between atoms: C_1  and  C_2
REMARK    2  A    between atoms: C_2  and  O_3
REMARK    3  A    between atoms: C_2  and  C_23
REMARK    4  A    between atoms: O_3  and  C_4
REMARK    5  A    between atoms: C_7  and  C_8
REMARK    6  A    between atoms: N_10  and  C_11
REMARK                            x       y       z     vdW  Elec       q    Type
REMARK                         _______ _______ _______ _____ _____    ______ ____
ROOT
ATOM      1  C   UNL     1       1.454   8.461  19.945  0.00  0.00    +0.000 C 
ATOM      2  O   UNL     1       1.596   8.801  18.775  0.00  0.00    +0.000 OA
ATOM      3  N   UNL     1       1.848   7.249  20.497  0.00  0.00    +0.000 N 
ATOM      4  H   UNL     1       1.485   7.008  21.410  0.00  0.00    +0.000 HD
ENDROOT
BRANCH   3   5
ATOM      5  C   UNL     1       2.557   6.223  19.816  0.00  0.00    +0.000 A 
ATOM      6  C   UNL     1       3.513   6.500  18.806  0.00  0.00    +0.000 A 
ATOM      7  C   UNL     1       4.196   5.480  18.126  0.00  0.00    +0.000 A 
ATOM      8  C   UNL     1       3.891   4.194  18.480  0.00  0.00    +0.000 A 
ATOM      9  N   UNL     1       4.379   2.994  17.976  0.00  0.00    +0.000 N 
ATOM     10  C   UNL     1       3.752   1.936  18.647  0.00  0.00    +0.000 A 
ATOM     11  O   UNL     1       3.929   0.746  18.455  0.00  0.00    +0.000 OA
ATOM     12  N   UNL     1       2.877   2.515  19.579  0.00  0.00    +0.000 N 
ATOM     13  C   UNL     1       2.964   3.902  19.477  0.00  0.00    +0.000 A 
ATOM     14  C   UNL     1       2.292   4.889  20.170  0.00  0.00    +0.000 A 
ATOM     15  H   UNL     1       5.057   2.871  17.239  0.00  0.00    +0.000 HD
ATOM     16  H   UNL     1       2.287   1.977  20.192  0.00  0.00    +0.000 HD
ENDBRANCH   3   5
BRANCH   1  20
ATOM     17  C   UNL     1      -0.596  10.958  22.674  0.00  0.00    +0.000 A 
ATOM     18  C   UNL     1      -0.746  11.236  21.321  0.00  0.00    +0.000 A 
ATOM     19  C   UNL     1      -0.078  10.439  20.385  0.00  0.00    +0.000 A 
ATOM     20  C   UNL     1       0.741   9.406  20.840  0.00  0.00    +0.000 A 
ATOM     21  C   UNL     1       0.832   9.214  22.218  0.00  0.00    +0.000 A 
ATOM     22  N   UNL     1       0.189   9.971  23.146  0.00  0.00    +0.000 NA
BRANCH  17  23
ATOM     23  O   UNL     1      -1.296  11.762  23.549  0.00  0.00    +0.000 OA
BRANCH  23  25
ATOM     24  C   UNL     1      -1.295  14.198  23.697  0.00  0.00    +0.000 C 
ATOM     25  C   UNL     1      -1.838  12.963  22.969  0.00  0.00    +0.000 C 
BRANCH  25  26
ATOM     26  C   UNL     1      -3.360  12.958  23.113  0.00  0.00    +0.000 A 
ATOM     27  C   UNL     1      -3.939  12.643  24.356  0.00  0.00    +0.000 A 
ATOM     28  C   UNL     1      -5.327  12.545  24.500  0.00  0.00    +0.000 A 
ATOM     29  C   UNL     1      -6.158  12.768  23.404  0.00  0.00    +0.000 A 
ATOM     30  C   UNL     1      -5.601  13.092  22.168  0.00  0.00    +0.000 A 
ATOM     31  C   UNL     1      -4.214  13.184  22.023  0.00  0.00    +0.000 A 
ENDBRANCH  25  26
ENDBRANCH  23  25
ENDBRANCH  17  23
ENDBRANCH   1  20
TORSDOF 5
ENDMDL
MODEL 3
REMARK VINA RESULT:      -8.3      2.765     10.921
REMARK  Name = 
REMARK  6 active torsions:
REMARK  status: ('A' for Active; 'I' for Inactive)
REMARK    1  A    between atoms: C_1  and  C_2
REMARK    2  A    between atoms: C_2  and  O_3
REMARK    3  A    between atoms: C_2  and  C_23
REMARK    4  A    between atoms: O_3  and  C_4
REMARK    5  A    between atoms: C_7  and  C_8
REMARK    6  A    between atoms: N_10  and  C_11
REMARK                            x       y       z     vdW  Elec       q    Type
REMARK                         _______ _______ _______ _____ _____    ______ ____
ROOT
ATOM      1  C   UNL     1      -0.065  10.416  22.277  0.00  0.00    +0.000 C 
ATOM      2  O   UNL     1       0.123  10.049  23.433  0.00  0.00    +0.000 OA
ATOM      3  N   UNL     1      -0.888  11.460  21.876  0.00  0.00    +0.000 N 
ATOM      4  H   UNL     1      -1.123  11.522  20.893  0.00  0.00    +0.000 HD
ENDROOT
BRANCH   3   5
ATOM      5  C   UNL     1      -1.595  12.335  22.744  0.00  0.00    +0.000 A 
ATOM      6  C   UNL     1      -2.881  12.025  23.255  0.00  0.00    +0.000 A 
ATOM      7  C   UNL     1      -3.579  12.903  24.098  0.00  0.00    +0.000 A 
ATOM      8  C   UNL     1      -2.961  14.086  24.403  0.00  0.00    +0.000 A 
ATOM      9  N   UNL     1      -3.407  15.146  25.182  0.00  0.00    +0.000 N 
ATOM     10  C   UNL     1      -2.425  16.146  25.186  0.00  0.00    +0.000 A 
ATOM     11  O   UNL     1      -2.482  17.221  25.756  0.00  0.00    +0.000 OA
ATOM     12  N   UNL     1      -1.364  15.668  24.400  0.00  0.00    +0.000 N 
ATOM     13  C   UNL     1      -1.694  14.402  23.920  0.00  0.00    +0.000 A 
ATOM     14  C   UNL     1      -0.981  13.547  23.103  0.00  0.00    +0.000 A 
ATOM     15  H   UNL     1      -4.291  15.223  25.662  0.00  0.00    +0.000 HD
ATOM     16  H   UNL     1      -0.526  16.196  24.224  0.00  0.00    +0.000 HD
ENDBRANCH   3   5
BRANCH   1  20
ATOM     17  C   UNL     1       1.648   8.284  19.051  0.00  0.00    +0.000 A 
ATOM     18  C   UNL     1       1.789   7.738  20.321  0.00  0.00    +0.000 A 
ATOM     19  C   UNL     1       1.244   8.415  21.417  0.00  0.00    +0.000 A 
ATOM     20  C   UNL     1       0.599   9.634  21.205  0.00  0.00    +0.000 A 
ATOM     21  C   UNL     1       0.519  10.103  19.894  0.00  0.00    +0.000 A 
ATOM     22  N   UNL     1       1.035   9.460  18.813  0.00  0.00    +0.000 NA
BRANCH  17  23
ATOM     23  O   UNL     1       2.186   7.561  18.007  0.00  0.00    +0.000 OA
BRANCH  23  25
ATOM     24  C   UNL     1       4.542   7.146  17.525  0.00  0.00    +0.000 C 
ATOM     25  C   UNL     1       3.317   6.743  18.355  0.00  0.00    +0.000 C 
BRANCH  25  26
ATOM     26  C   UNL     1       3.000   5.278  18.051  0.00  0.00    +0.000 A 
ATOM     27  C   UNL     1       1.741   4.753  18.396  0.00  0.00    +0.000 A 
ATOM     28  C   UNL     1       1.450   3.398  18.211  0.00  0.00    +0.000 A 
ATOM     29  C   UNL     1       2.412   2.546  17.672  0.00  0.00    +0.000 A 
ATOM     30  C   UNL     1       3.661   3.052  17.315  0.00  0.00    +0.000 A 
ATOM     31  C   UNL     1       3.954   4.405  17.505  0.00  0.00    +0.000 A 
ENDBRANCH  25  26
ENDBRANCH  23  25
ENDBRANCH  17  23
ENDBRANCH   1  20
TORSDOF 5
ENDMDL
MODEL 4
REMARK VINA RESULT:      -8.3      1.088      1.139
REMARK  Name = 
REMARK  6 active torsions:
REMARK  status: ('A' for Active; 'I' for Inactive)
REMARK    1  A    between atoms: C_1  and  C_2
REMARK    2  A    between atoms: C_2  and  O_3
REMARK    3  A    between atoms: C_2  and  C_23
REMARK    4  A    between atoms: O_3  and  C_4
REMARK    5  A    between atoms: C_7  and  C_8
REMARK    6  A    between atoms: N_10  and  C_11
REMARK                            x       y       z     vdW  Elec       q    Type
REMARK                         _______ _______ _______ _____ _____    ______ ____
ROOT
ATOM      1  C   UNL     1       1.753   7.661  20.317  0.00  0.00    +0.000 C 
ATOM      2  O   UNL     1       1.872   6.624  20.961  0.00  0.00    +0.000 OA
ATOM      3  N   UNL     1       2.287   7.906  19.059  0.00  0.00    +0.000 N 
ATOM      4  H   UNL     1       2.299   8.864  18.732  0.00  0.00    +0.000 HD
ENDROOT
BRANCH   3   5
ATOM      5  C   UNL     1       3.001   6.967  18.267  0.00  0.00    +0.000 A 
ATOM      6  C   UNL     1       2.602   5.611  18.150  0.00  0.00    +0.000 A 
ATOM      7  C   UNL     1       3.322   4.686  17.380  0.00  0.00    +0.000 A 
ATOM      8  C   UNL     1       4.441   5.153  16.744  0.00  0.00    +0.000 A 
ATOM      9  N   UNL     1       5.354   4.480  15.942  0.00  0.00    +0.000 N 
ATOM     10  C   UNL     1       6.345   5.381  15.532  0.00  0.00    +0.000 A 
ATOM     11  O   UNL     1       7.309   5.134  14.830  0.00  0.00    +0.000 OA
ATOM     12  N   UNL     1       6.012   6.624  16.094  0.00  0.00    +0.000 N 
ATOM     13  C   UNL     1       4.842   6.484  16.837  0.00  0.00    +0.000 A 
ATOM     14  C   UNL     1       4.140   7.415  17.576  0.00  0.00    +0.000 A 
ATOM     15  H   UNL     1       5.344   3.502  15.693  0.00  0.00    +0.000 HD
ATOM     16  H   UNL     1       6.568   7.454  15.968  0.00  0.00    +0.000 HD
ENDBRANCH   3   5
BRANCH   1  20
ATOM     17  C   UNL     1      -0.318  10.707  22.394  0.00  0.00    +0.000 A 
ATOM     18  C   UNL     1      -0.588  10.565  21.038  0.00  0.00    +0.000 A 
ATOM     19  C   UNL     1       0.081   9.574  20.312  0.00  0.00    +0.000 A 
ATOM     20  C   UNL     1       1.021   8.777  20.966  0.00  0.00    +0.000 A 
ATOM     21  C   UNL     1       1.228   9.005  22.326  0.00  0.00    +0.000 A 
ATOM     22  N   UNL     1       0.585   9.957  23.053  0.00  0.00    +0.000 NA
BRANCH  17  23
ATOM     23  O   UNL     1      -1.025  11.685  23.063  0.00  0.00    +0.000 OA
BRANCH  23  25
ATOM     24  C   UNL     1      -1.236  13.957  22.196  0.00  0.00    +0.000 C 
ATOM     25  C   UNL     1      -1.822  12.540  22.222  0.00  0.00    +0.000 C 
BRANCH  25  26
ATOM     26  C   UNL     1      -3.243  12.625  22.782  0.00  0.00    +0.000 A 
ATOM     27  C   UNL     1      -4.266  13.188  21.997  0.00  0.00    +0.000 A 
ATOM     28  C   UNL     1      -5.555  13.359  22.510  0.00  0.00    +0.000 A 
ATOM     29  C   UNL     1      -5.844  12.965  23.815  0.00  0.00    +0.000 A 
ATOM     30  C   UNL     1      -4.845  12.395  24.603  0.00  0.00    +0.000 A 
ATOM     31  C   UNL     1      -3.554  12.229  24.092  0.00  0.00    +0.000 A 
ENDBRANCH  25  26
ENDBRANCH  23  25
ENDBRANCH  17  23
ENDBRANCH   1  20
TORSDOF 5
ENDMDL
MODEL 5
REMARK VINA RESULT:      -8.2      1.226      1.696
REMARK  Name = 
REMARK  6 active torsions:
REMARK  status: ('A' for Active; 'I' for Inactive)
REMARK    1  A    between atoms: C_1  and  C_2
REMARK    2  A    between atoms: C_2  and  O_3
REMARK    3  A    between atoms: C_2  and  C_23
REMARK    4  A    between atoms: O_3  and  C_4
REMARK    5  A    between atoms: C_7  and  C_8
REMARK    6  A    between atoms: N_10  and  C_11
REMARK                            x       y       z     vdW  Elec       q    Type
REMARK                         _______ _______ _______ _____ _____    ______ ____
ROOT
ATOM      1  C   UNL     1       1.744   7.675  20.182  0.00  0.00    +0.000 C 
ATOM      2  O   UNL     1       1.984   6.748  20.949  0.00  0.00    +0.000 OA
ATOM      3  N   UNL     1       2.205   7.794  18.877  0.00  0.00    +0.000 N 
ATOM      4  H   UNL     1       2.115   8.698  18.429  0.00  0.00    +0.000 HD
ENDROOT
BRANCH   3   5
ATOM      5  C   UNL     1       2.971   6.823  18.179  0.00  0.00    +0.000 A 
ATOM      6  C   UNL     1       2.577   5.464  18.090  0.00  0.00    +0.000 A 
ATOM      7  C   UNL     1       3.348   4.507  17.413  0.00  0.00    +0.000 A 
ATOM      8  C   UNL     1       4.512   4.946  16.842  0.00  0.00    +0.000 A 
ATOM      9  N   UNL     1       5.478   4.239  16.138  0.00  0.00    +0.000 N 
ATOM     10  C   UNL     1       6.500   5.123  15.764  0.00  0.00    +0.000 A 
ATOM     11  O   UNL     1       7.512   4.846  15.145  0.00  0.00    +0.000 OA
ATOM     12  N   UNL     1       6.131   6.388  16.249  0.00  0.00    +0.000 N 
ATOM     13  C   UNL     1       4.910   6.279  16.909  0.00  0.00    +0.000 A 
ATOM     14  C   UNL     1       4.159   7.241  17.556  0.00  0.00    +0.000 A 
ATOM     15  H   UNL     1       5.483   3.252  15.929  0.00  0.00    +0.000 HD
ATOM     16  H   UNL     1       6.697   7.212  16.129  0.00  0.00    +0.000 HD
ENDBRANCH   3   5
BRANCH   1  20
ATOM     17  C   UNL     1      -0.407  11.048  21.553  0.00  0.00    +0.000 A 
ATOM     18  C   UNL     1      -0.306   9.963  22.416  0.00  0.00    +0.000 A 
ATOM     19  C   UNL     1       0.390   8.824  21.998  0.00  0.00    +0.000 A 
ATOM     20  C   UNL     1       0.939   8.801  20.716  0.00  0.00    +0.000 A 
ATOM     21  C   UNL     1       0.775   9.936  19.923  0.00  0.00    +0.000 A 
ATOM     22  N   UNL     1       0.108  11.056  20.309  0.00  0.00    +0.000 NA
BRANCH  17  23
ATOM     23  O   UNL     1      -1.085  12.151  22.028  0.00  0.00    +0.000 OA
BRANCH  23  25
ATOM     24  C   UNL     1      -2.124  13.794  20.552  0.00  0.00    +0.000 C 
ATOM     25  C   UNL     1      -2.293  12.474  21.314  0.00  0.00    +0.000 C 
BRANCH  25  26
ATOM     26  C   UNL     1      -3.443  12.644  22.307  0.00  0.00    +0.000 A 
ATOM     27  C   UNL     1      -3.242  12.330  23.664  0.00  0.00    +0.000 A 
ATOM     28  C   UNL     1      -4.295  12.391  24.581  0.00  0.00    +0.000 A 
ATOM     29  C   UNL     1      -5.566  12.774  24.157  0.00  0.00    +0.000 A 
ATOM     30  C   UNL     1      -5.781  13.099  22.819  0.00  0.00    +0.000 A 
ATOM     31  C   UNL     1      -4.729  13.032  21.901  0.00  0.00    +0.000 A 
ENDBRANCH  25  26
ENDBRANCH  23  25
ENDBRANCH  17  23
ENDBRANCH   1  20
TORSDOF 5
ENDMDL
MODEL 6
REMARK VINA RESULT:      -8.1      1.357      1.658
REMARK  Name = 
REMARK  6 active torsions:
REMARK  status: ('A' for Active; 'I' for Inactive)
REMARK    1  A    between atoms: C_1  and  C_2
REMARK    2  A    between atoms: C_2  and  O_3
REMARK    3  A    between atoms: C_2  and  C_23
REMARK    4  A    between atoms: O_3  and  C_4
REMARK    5  A    between atoms: C_7  and  C_8
REMARK    6  A    between atoms: N_10  and  C_11
REMARK                            x       y       z     vdW  Elec       q    Type
REMARK                         _______ _______ _______ _____ _____    ______ ____
ROOT
ATOM      1  C   UNL     1       1.593   8.151  19.970  0.00  0.00    +0.000 C 
ATOM      2  O   UNL     1       1.776   8.582  18.836  0.00  0.00    +0.000 OA
ATOM      3  N   UNL     1       1.993   6.910  20.447  0.00  0.00    +0.000 N 
ATOM      4  H   UNL     1       1.597   6.594  21.323  0.00  0.00    +0.000 HD
ENDROOT
BRANCH   3   5
ATOM      5  C   UNL     1       2.754   5.953  19.724  0.00  0.00    +0.000 A 
ATOM      6  C   UNL     1       2.925   4.620  20.173  0.00  0.00    +0.000 A 
ATOM      7  C   UNL     1       3.693   3.686  19.462  0.00  0.00    +0.000 A 
ATOM      8  C   UNL     1       4.281   4.125  18.306  0.00  0.00    +0.000 A 
ATOM      9  N   UNL     1       5.105   3.448  17.415  0.00  0.00    +0.000 N 
ATOM     10  C   UNL     1       5.473   4.325  16.386  0.00  0.00    +0.000 A 
ATOM     11  O   UNL     1       6.197   4.075  15.440  0.00  0.00    +0.000 OA
ATOM     12  N   UNL     1       4.849   5.552  16.664  0.00  0.00    +0.000 N 
ATOM     13  C   UNL     1       4.116   5.428  17.843  0.00  0.00    +0.000 A 
ATOM     14  C   UNL     1       3.351   6.359  18.518  0.00  0.00    +0.000 A 
ATOM     15  H   UNL     1       5.418   2.492  17.478  0.00  0.00    +0.000 HD
ATOM     16  H   UNL     1       4.955   6.369  16.087  0.00  0.00    +0.000 HD
ENDBRANCH   3   5
BRANCH   1  20
ATOM     17  C   UNL     1      -0.445  10.800  22.563  0.00  0.00    +0.000 A 
ATOM     18  C   UNL     1      -0.482   9.446  22.877  0.00  0.00    +0.000 A 
ATOM     19  C   UNL     1       0.173   8.536  22.041  0.00  0.00    +0.000 A 
ATOM     20  C   UNL     1       0.820   9.011  20.901  0.00  0.00    +0.000 A 
ATOM     21  C   UNL     1       0.792  10.386  20.668  0.00  0.00    +0.000 A 
ATOM     22  N   UNL     1       0.168  11.290  21.468  0.00  0.00    +0.000 NA
BRANCH  17  23
ATOM     23  O   UNL     1      -1.088  11.653  23.436  0.00  0.00    +0.000 OA
BRANCH  23  25
ATOM     24  C   UNL     1      -1.166  14.086  23.600  0.00  0.00    +0.000 C 
ATOM     25  C   UNL     1      -1.629  12.842  22.833  0.00  0.00    +0.000 C 
BRANCH  25  26
ATOM     26  C   UNL     1      -3.157  12.793  22.888  0.00  0.00    +0.000 A 
ATOM     27  C   UNL     1      -3.898  12.853  21.694  0.00  0.00    +0.000 A 
ATOM     28  C   UNL     1      -5.295  12.898  21.715  0.00  0.00    +0.000 A 
ATOM     29  C   UNL     1      -5.975  12.877  22.932  0.00  0.00    +0.000 A 
ATOM     30  C   UNL     1      -5.256  12.806  24.124  0.00  0.00    +0.000 A 
ATOM     31  C   UNL     1      -3.859  12.767  24.103  0.00  0.00    +0.000 A 
ENDBRANCH  25  26
ENDBRANCH  23  25
ENDBRANCH  17  23
ENDBRANCH   1  20
TORSDOF 5
ENDMDL
MODEL 7
REMARK VINA RESULT:      -8.0      2.785     10.745
REMARK  Name = 
REMARK  6 active torsions:
REMARK  status: ('A' for Active; 'I' for Inactive)
REMARK    1  A    between atoms: C_1  and  C_2
REMARK    2  A    between atoms: C_2  and  O_3
REMARK    3  A    between atoms: C_2  and  C_23
REMARK    4  A    between atoms: O_3  and  C_4
REMARK    5  A    between atoms: C_7  and  C_8
REMARK    6  A    between atoms: N_10  and  C_11
REMARK                            x       y       z     vdW  Elec       q    Type
REMARK                         _______ _______ _______ _____ _____    ______ ____
ROOT
ATOM      1  C   UNL     1       0.630  10.534  19.703  0.00  0.00    +0.000 C 
ATOM      2  O   UNL     1       1.006  11.514  19.070  0.00  0.00    +0.000 OA
ATOM      3  N   UNL     1      -0.307  10.534  20.728  0.00  0.00    +0.000 N 
ATOM      4  H   UNL     1      -0.370   9.706  21.307  0.00  0.00    +0.000 HD
ENDROOT
BRANCH   3   5
ATOM      5  C   UNL     1      -1.052  11.661  21.166  0.00  0.00    +0.000 A 
ATOM      6  C   UNL     1      -2.125  12.204  20.415  0.00  0.00    +0.000 A 
ATOM      7  C   UNL     1      -2.844  13.328  20.846  0.00  0.00    +0.000 A 
ATOM      8  C   UNL     1      -2.457  13.888  22.034  0.00  0.00    +0.000 A 
ATOM      9  N   UNL     1      -2.956  15.003  22.696  0.00  0.00    +0.000 N 
ATOM     10  C   UNL     1      -2.221  15.194  23.874  0.00  0.00    +0.000 A 
ATOM     11  O   UNL     1      -2.376  16.082  24.693  0.00  0.00    +0.000 OA
ATOM     12  N   UNL     1      -1.267  14.165  23.921  0.00  0.00    +0.000 N 
ATOM     13  C   UNL     1      -1.413  13.363  22.792  0.00  0.00    +0.000 A 
ATOM     14  C   UNL     1      -0.702  12.247  22.395  0.00  0.00    +0.000 A 
ATOM     15  H   UNL     1      -3.707  15.605  22.398  0.00  0.00    +0.000 HD
ATOM     16  H   UNL     1      -0.593  14.070  24.663  0.00  0.00    +0.000 HD
ENDBRANCH   3   5
BRANCH   1  20
ATOM     17  C   UNL     1       2.556   6.824  19.061  0.00  0.00    +0.000 A 
ATOM     18  C   UNL     1       2.492   7.702  17.986  0.00  0.00    +0.000 A 
ATOM     19  C   UNL     1       1.856   8.937  18.154  0.00  0.00    +0.000 A 
ATOM     20  C   UNL     1       1.281   9.237  19.388  0.00  0.00    +0.000 A 
ATOM     21  C   UNL     1       1.390   8.285  20.401  0.00  0.00    +0.000 A 
ATOM     22  N   UNL     1       2.007   7.082  20.263  0.00  0.00    +0.000 NA
BRANCH  17  23
ATOM     23  O   UNL     1       3.214   5.631  18.843  0.00  0.00    +0.000 OA
BRANCH  23  25
ATOM     24  C   UNL     1       3.941   4.156  17.040  0.00  0.00    +0.000 C 
ATOM     25  C   UNL     1       3.977   5.574  17.624  0.00  0.00    +0.000 C 
BRANCH  25  26
ATOM     26  C   UNL     1       5.436   5.928  17.917  0.00  0.00    +0.000 A 
ATOM     27  C   UNL     1       6.089   5.333  19.012  0.00  0.00    +0.000 A 
ATOM     28  C   UNL     1       7.393   5.701  19.359  0.00  0.00    +0.000 A 
ATOM     29  C   UNL     1       8.067   6.665  18.612  0.00  0.00    +0.000 A 
ATOM     30  C   UNL     1       7.439   7.256  17.518  0.00  0.00    +0.000 A 
ATOM     31  C   UNL     1       6.133   6.894  17.175  0.00  0.00    +0.000 A 
ENDBRANCH  25  26
ENDBRANCH  23  25
ENDBRANCH  17  23
ENDBRANCH   1  20
TORSDOF 5
ENDMDL
MODEL 8
REMARK VINA RESULT:      -8.0      2.425      3.066
REMARK  Name = 
REMARK  6 active torsions:
REMARK  status: ('A' for Active; 'I' for Inactive)
REMARK    1  A    between atoms: C_1  and  C_2
REMARK    2  A    between atoms: C_2  and  O_3
REMARK    3  A    between atoms: C_2  and  C_23
REMARK    4  A    between atoms: O_3  and  C_4
REMARK    5  A    between atoms: C_7  and  C_8
REMARK    6  A    between atoms: N_10  and  C_11
REMARK                            x       y       z     vdW  Elec       q    Type
REMARK                         _______ _______ _______ _____ _____    ______ ____
ROOT
ATOM      1  C   UNL     1       1.513   8.496  19.407  0.00  0.00    +0.000 C 
ATOM      2  O   UNL     1       1.931   8.503  20.561  0.00  0.00    +0.000 OA
ATOM      3  N   UNL     1       2.017   7.733  18.362  0.00  0.00    +0.000 N 
ATOM      4  H   UNL     1       1.728   7.975  17.422  0.00  0.00    +0.000 HD
ENDROOT
BRANCH   3   5
ATOM      5  C   UNL     1       3.055   6.769  18.468  0.00  0.00    +0.000 A 
ATOM      6  C   UNL     1       3.052   5.754  19.457  0.00  0.00    +0.000 A 
ATOM      7  C   UNL     1       4.091   4.816  19.566  0.00  0.00    +0.000 A 
ATOM      8  C   UNL     1       5.119   4.930  18.669  0.00  0.00    +0.000 A 
ATOM      9  N   UNL     1       6.278   4.174  18.546  0.00  0.00    +0.000 N 
ATOM     10  C   UNL     1       7.037   4.683  17.484  0.00  0.00    +0.000 A 
ATOM     11  O   UNL     1       8.117   4.274  17.099  0.00  0.00    +0.000 OA
ATOM     12  N   UNL     1       6.312   5.763  16.956  0.00  0.00    +0.000 N 
ATOM     13  C   UNL     1       5.133   5.913  17.683  0.00  0.00    +0.000 A 
ATOM     14  C   UNL     1       4.115   6.836  17.547  0.00  0.00    +0.000 A 
ATOM     15  H   UNL     1       6.563   3.394  19.118  0.00  0.00    +0.000 HD
ATOM     16  H   UNL     1       6.637   6.323  16.185  0.00  0.00    +0.000 HD
ENDBRANCH   3   5
BRANCH   1  20
ATOM     17  C   UNL     1      -1.721  11.137  18.737  0.00  0.00    +0.000 A 
ATOM     18  C   UNL     1      -1.246  10.422  17.644  0.00  0.00    +0.000 A 
ATOM     19  C   UNL     1      -0.172   9.543  17.821  0.00  0.00    +0.000 A 
ATOM     20  C   UNL     1       0.408   9.433  19.084  0.00  0.00    +0.000 A 
ATOM     21  C   UNL     1      -0.135  10.200  20.114  0.00  0.00    +0.000 A 
ATOM     22  N   UNL     1      -1.181  11.055  19.968  0.00  0.00    +0.000 NA
BRANCH  17  23
ATOM     23  O   UNL     1      -2.796  11.970  18.507  0.00  0.00    +0.000 OA
BRANCH  23  25
ATOM     24  C   UNL     1      -4.501  11.685  16.785  0.00  0.00    +0.000 C 
ATOM     25  C   UNL     1      -4.029  11.298  18.192  0.00  0.00    +0.000 C 
BRANCH  25  26
ATOM     26  C   UNL     1      -5.110  11.719  19.188  0.00  0.00    +0.000 A 
ATOM     27  C   UNL     1      -4.781  12.588  20.244  0.00  0.00    +0.000 A 
ATOM     28  C   UNL     1      -5.724  12.924  21.221  0.00  0.00    +0.000 A 
ATOM     29  C   UNL     1      -7.013  12.401  21.153  0.00  0.00    +0.000 A 
ATOM     30  C   UNL     1      -7.359  11.547  20.107  0.00  0.00    +0.000 A 
ATOM     31  C   UNL     1      -6.415  11.207  19.134  0.00  0.00    +0.000 A 
ENDBRANCH  25  26
ENDBRANCH  23  25
ENDBRANCH  17  23
ENDBRANCH   1  20
TORSDOF 5
ENDMDL
MODEL 9
REMARK VINA RESULT:      -8.0      2.864     10.356
REMARK  Name = 
REMARK  6 active torsions:
REMARK  status: ('A' for Active; 'I' for Inactive)
REMARK    1  A    between atoms: C_1  and  C_2
REMARK    2  A    between atoms: C_2  and  O_3
REMARK    3  A    between atoms: C_2  and  C_23
REMARK    4  A    between atoms: O_3  and  C_4
REMARK    5  A    between atoms: C_7  and  C_8
REMARK    6  A    between atoms: N_10  and  C_11
REMARK                            x       y       z     vdW  Elec       q    Type
REMARK                         _______ _______ _______ _____ _____    ______ ____
ROOT
ATOM      1  C   UNL     1      -0.373  10.805  20.243  0.00  0.00    +0.000 C 
ATOM      2  O   UNL     1      -1.223  11.272  19.491  0.00  0.00    +0.000 OA
ATOM      3  N   UNL     1      -0.127  11.210  21.548  0.00  0.00    +0.000 N 
ATOM      4  H   UNL     1       0.732  10.898  21.983  0.00  0.00    +0.000 HD
ENDROOT
BRANCH   3   5
ATOM      5  C   UNL     1      -0.873  12.183  22.265  0.00  0.00    +0.000 A 
ATOM      6  C   UNL     1      -2.100  11.880  22.909  0.00  0.00    +0.000 A 
ATOM      7  C   UNL     1      -2.839  12.852  23.600  0.00  0.00    +0.000 A 
ATOM      8  C   UNL     1      -2.321  14.119  23.622  0.00  0.00    +0.000 A 
ATOM      9  N   UNL     1      -2.829  15.276  24.199  0.00  0.00    +0.000 N 
ATOM     10  C   UNL     1      -1.946  16.333  23.940  0.00  0.00    +0.000 A 
ATOM     11  O   UNL     1      -2.078  17.494  24.285  0.00  0.00    +0.000 OA
ATOM     12  N   UNL     1      -0.882  15.793  23.200  0.00  0.00    +0.000 N 
ATOM     13  C   UNL     1      -1.112  14.433  23.006  0.00  0.00    +0.000 A 
ATOM     14  C   UNL     1      -0.360  13.490  22.334  0.00  0.00    +0.000 A 
ATOM     15  H   UNL     1      -3.693  15.377  24.709  0.00  0.00    +0.000 HD
ATOM     16  H   UNL     1      -0.105  16.341  22.868  0.00  0.00    +0.000 HD
ENDBRANCH   3   5
BRANCH   1  20
ATOM     17  C   UNL     1       2.277   7.797  18.895  0.00  0.00    +0.000 A 
ATOM     18  C   UNL     1       1.793   8.690  17.947  0.00  0.00    +0.000 A 
ATOM     19  C   UNL     1       0.908   9.696  18.350  0.00  0.00    +0.000 A 
ATOM     20  C   UNL     1       0.515   9.754  19.687  0.00  0.00    +0.000 A 
ATOM     21  C   UNL     1       1.049   8.806  20.559  0.00  0.00    +0.000 A 
ATOM     22  N   UNL     1       1.914   7.824  20.192  0.00  0.00    +0.000 NA
BRANCH  17  23
ATOM     23  O   UNL     1       3.164   6.841  18.445  0.00  0.00    +0.000 OA
BRANCH  23  25
ATOM     24  C   UNL     1       4.991   5.414  19.204  0.00  0.00    +0.000 C 
ATOM     25  C   UNL     1       3.538   5.853  19.422  0.00  0.00    +0.000 C 
BRANCH  25  26
ATOM     26  C   UNL     1       2.644   4.622  19.271  0.00  0.00    +0.000 A 
ATOM     27  C   UNL     1       2.700   3.862  18.088  0.00  0.00    +0.000 A 
ATOM     28  C   UNL     1       1.835   2.783  17.884  0.00  0.00    +0.000 A 
ATOM     29  C   UNL     1       0.904   2.442  18.862  0.00  0.00    +0.000 A 
ATOM     30  C   UNL     1       0.842   3.177  20.045  0.00  0.00    +0.000 A 
ATOM     31  C   UNL     1       1.703   4.259  20.247  0.00  0.00    +0.000 A 
ENDBRANCH  25  26
ENDBRANCH  23  25
ENDBRANCH  17  23
ENDBRANCH   1  20
TORSDOF 5
ENDMDL
