MODEL 1
REMARK VINA RESULT:      -8.5      0.000      0.000
REMARK  Name = 
REMARK  5 active torsions:
REMARK  status: ('A' for Active; 'I' for Inactive)
REMARK    1  A    between atoms: C_1  and  C_2
REMARK    2  A    between atoms: C_5  and  C_6
REMARK    3  A    between atoms: C_10  and  C_12
REMARK    4  A    between atoms: C_12  and  N_13
REMARK    5  A    between atoms: C_17  and  C_18
REMARK                            x       y       z     vdW  Elec       q    Type
REMARK                         _______ _______ _______ _____ _____    ______ ____
ROOT
ATOM      1  C   UNL     1       1.457   8.582  20.061  0.00  0.00    +0.000 C 
ATOM      2  C   UNL     1       1.753   8.811  18.767  0.00  0.00    +0.000 C 
ATOM      3  C   UNL     1       2.667   7.948  17.934  0.00  0.00    +0.000 C 
ATOM      4  N   UNL     1       3.276   6.881  18.731  0.00  0.00    +0.000 N 
ATOM      5  C   UNL     1       4.462   6.312  18.258  0.00  0.00    +0.000 C 
ATOM      6  O   UNL     1       4.963   6.643  17.183  0.00  0.00    +0.000 OA
ATOM      7  C   UNL     1       2.414   6.317  19.781  0.00  0.00    +0.000 C 
ATOM      8  C   UNL     1       2.002   7.388  20.782  0.00  0.00    +0.000 C 
ENDROOT
BRANCH   1  13
ATOM      9  C   UNL     1      -2.063  12.065  23.030  0.00  0.00    +0.000 C 
ATOM     10  C   UNL     1      -1.150  11.152  22.268  0.00  0.00    +0.000 A 
ATOM     11  C   UNL     1      -0.563  10.042  22.884  0.00  0.00    +0.000 A 
ATOM     12  C   UNL     1       0.293   9.206  22.165  0.00  0.00    +0.000 A 
ATOM     13  C   UNL     1       0.569   9.466  20.818  0.00  0.00    +0.000 A 
ATOM     14  C   UNL     1      -0.019  10.572  20.199  0.00  0.00    +0.000 A 
ATOM     15  C   UNL     1      -0.875  11.410  20.919  0.00  0.00    +0.000 A 
ENDBRANCH   1  13
BRANCH   5  16
ATOM     16  C   UNL     1       5.145   5.267  19.146  0.00  0.00    +0.000 C 
BRANCH  16  17
ATOM     17  N   UNL     1       5.216   3.900  18.650  0.00  0.00    +0.000 N 
ATOM     18  C   UNL     1       4.647   3.824  17.399  0.00  0.00    +0.000 A 
ATOM     19  N   UNL     1       3.425   3.491  17.185  0.00  0.00    +0.000 NA
ATOM     20  C   UNL     1       2.638   3.223  18.326  0.00  0.00    +0.000 A 
ATOM     21  C   UNL     1       1.269   3.503  18.310  0.00  0.00    +0.000 A 
ATOM     22  C   UNL     1       0.658   4.212  17.134  0.00  0.00    +0.000 C 
ATOM     23  C   UNL     1       0.492   3.185  19.441  0.00  0.00    +0.000 A 
ATOM     24  C   UNL     1       1.085   2.651  20.589  0.00  0.00    +0.000 A 
ATOM     25  C   UNL     1       2.469   2.488  20.648  0.00  0.00    +0.000 A 
ATOM     26  C   UNL     1       3.230   2.811  19.517  0.00  0.00    +0.000 A 
ATOM     27  C   UNL     1       4.705   2.987  19.591  0.00  0.00    +0.000 A 
ATOM     28  O   UNL     1       5.367   2.428  20.439  0.00  0.00    +0.000 OA
ENDBRANCH  16  17
ENDBRANCH   5  16
TORSDOF 3
ENDMDL
MODEL 2
REMARK VINA RESULT:      -8.3      2.211      4.051
REMARK  Name = 
REMARK  5 active torsions:
REMARK  status: ('A' for Active; 'I' for Inactive)
REMARK    1  A    between atoms: C_1  and  C_2
REMARK    2  A    between atoms: C_5  and  C_6
REMARK    3  A    between atoms: C_10  and  C_12
REMARK    4  A    between atoms: C_12  and  N_13
REMARK    5  A    between atoms: C_17  and  C_18
REMARK                            x       y       z     vdW  Elec       q    Type
REMARK                         _______ _______ _______ _____ _____    ______ ____
ROOT
ATOM      1  C   UNL     1       1.211   9.368  19.608  0.00  0.00    +0.000 C 
ATOM      2  C   UNL     1       0.904   8.765  20.772  0.00  0.00    +0.000 C 
ATOM      3  C   UNL     1       1.264   7.342  21.118  0.00  0.00    +0.000 C 
ATOM      4  N   UNL     1       1.904   6.659  19.991  0.00  0.00    +0.000 N 
ATOM      5  C   UNL     1       1.868   5.262  19.972  0.00  0.00    +0.000 C 
ATOM      6  O   UNL     1       1.370   4.608  20.890  0.00  0.00    +0.000 OA
ATOM      7  C   UNL     1       2.778   7.505  19.163  0.00  0.00    +0.000 C 
ATOM      8  C   UNL     1       1.996   8.659  18.549  0.00  0.00    +0.000 C 
ENDROOT
BRANCH   1  13
ATOM      9  C   UNL     1      -0.312  14.824  18.488  0.00  0.00    +0.000 C 
ATOM     10  C   UNL     1       0.072  13.405  18.780  0.00  0.00    +0.000 A 
ATOM     11  C   UNL     1      -0.836  12.522  19.374  0.00  0.00    +0.000 A 
ATOM     12  C   UNL     1      -0.461  11.205  19.650  0.00  0.00    +0.000 A 
ATOM     13  C   UNL     1       0.823  10.753  19.330  0.00  0.00    +0.000 A 
ATOM     14  C   UNL     1       1.731  11.632  18.733  0.00  0.00    +0.000 A 
ATOM     15  C   UNL     1       1.357  12.950  18.458  0.00  0.00    +0.000 A 
ENDBRANCH   1  13
BRANCH   5  16
ATOM     16  C   UNL     1       2.452   4.558  18.743  0.00  0.00    +0.000 C 
BRANCH  16  17
ATOM     17  N   UNL     1       3.583   3.665  18.948  0.00  0.00    +0.000 N 
ATOM     18  C   UNL     1       4.614   4.343  19.559  0.00  0.00    +0.000 A 
ATOM     19  N   UNL     1       5.584   4.897  18.925  0.00  0.00    +0.000 NA
ATOM     20  C   UNL     1       5.545   4.810  17.517  0.00  0.00    +0.000 A 
ATOM     21  C   UNL     1       6.083   5.840  16.740  0.00  0.00    +0.000 A 
ATOM     22  C   UNL     1       6.579   7.099  17.395  0.00  0.00    +0.000 C 
ATOM     23  C   UNL     1       6.077   5.714  15.337  0.00  0.00    +0.000 A 
ATOM     24  C   UNL     1       5.491   4.603  14.721  0.00  0.00    +0.000 A 
ATOM     25  C   UNL     1       4.846   3.637  15.493  0.00  0.00    +0.000 A 
ATOM     26  C   UNL     1       4.857   3.777  16.887  0.00  0.00    +0.000 A 
ATOM     27  C   UNL     1       3.934   3.002  17.757  0.00  0.00    +0.000 A 
ATOM     28  O   UNL     1       3.493   1.925  17.412  0.00  0.00    +0.000 OA
ENDBRANCH  16  17
ENDBRANCH   5  16
TORSDOF 3
ENDMDL
MODEL 3
REMARK VINA RESULT:      -8.3      2.242      4.139
REMARK  Name = 
REMARK  5 active torsions:
REMARK  status: ('A' for Active; 'I' for Inactive)
REMARK    1  A    between atoms: C_1  and  C_2
REMARK    2  A    between atoms: C_5  and  C_6
REMARK    3  A    between atoms: C_10  and  C_12
REMARK    4  A    between atoms: C_12  and  N_13
REMARK    5  A    between atoms: C_17  and  C_18
REMARK                            x       y       z     vdW  Elec       q    Type
REMARK                         _______ _______ _______ _____ _____    ______ ____
ROOT
ATOM      1  C   UNL     1       1.167   9.694  19.619  0.00  0.00    +0.000 C 
ATOM      2  C   UNL     1       1.037   9.092  20.816  0.00  0.00    +0.000 C 
ATOM      3  C   UNL     1       1.450   7.671  21.108  0.00  0.00    +0.000 C 
ATOM      4  N   UNL     1       1.922   6.988  19.902  0.00  0.00    +0.000 N 
ATOM      5  C   UNL     1       1.890   5.591  19.891  0.00  0.00    +0.000 C 
ATOM      6  O   UNL     1       1.534   4.937  20.873  0.00  0.00    +0.000 OA
ATOM      7  C   UNL     1       2.660   7.835  18.953  0.00  0.00    +0.000 C 
ATOM      8  C   UNL     1       1.792   8.984  18.457  0.00  0.00    +0.000 C 
ENDROOT
BRANCH   1  13
ATOM      9  C   UNL     1      -0.537  15.144  18.769  0.00  0.00    +0.000 C 
ATOM     10  C   UNL     1      -0.084  13.732  18.987  0.00  0.00    +0.000 A 
ATOM     11  C   UNL     1       1.153  13.291  18.503  0.00  0.00    +0.000 A 
ATOM     12  C   UNL     1       1.558  11.970  18.704  0.00  0.00    +0.000 A 
ATOM     13  C   UNL     1       0.736  11.075  19.397  0.00  0.00    +0.000 A 
ATOM     14  C   UNL     1      -0.497  11.515  19.885  0.00  0.00    +0.000 A 
ATOM     15  C   UNL     1      -0.904  12.836  19.683  0.00  0.00    +0.000 A 
ENDBRANCH   1  13
BRANCH   5  16
ATOM     16  C   UNL     1       2.291   4.887  18.591  0.00  0.00    +0.000 C 
BRANCH  16  17
ATOM     17  N   UNL     1       3.013   3.627  18.699  0.00  0.00    +0.000 N 
ATOM     18  C   UNL     1       4.041   3.750  19.606  0.00  0.00    +0.000 A 
ATOM     19  N   UNL     1       5.251   4.041  19.285  0.00  0.00    +0.000 NA
ATOM     20  C   UNL     1       5.500   4.269  17.915  0.00  0.00    +0.000 A 
ATOM     21  C   UNL     1       6.489   5.178  17.528  0.00  0.00    +0.000 A 
ATOM     22  C   UNL     1       7.193   6.011  18.562  0.00  0.00    +0.000 C 
ATOM     23  C   UNL     1       6.755   5.358  16.157  0.00  0.00    +0.000 A 
ATOM     24  C   UNL     1       6.005   4.683  15.189  0.00  0.00    +0.000 A 
ATOM     25  C   UNL     1       4.937   3.872  15.573  0.00  0.00    +0.000 A 
ATOM     26  C   UNL     1       4.682   3.705  16.940  0.00  0.00    +0.000 A 
ATOM     27  C   UNL     1       3.395   3.146  17.432  0.00  0.00    +0.000 A 
ATOM     28  O   UNL     1       2.729   2.395  16.750  0.00  0.00    +0.000 OA
ENDBRANCH  16  17
ENDBRANCH   5  16
TORSDOF 3
ENDMDL
MODEL 4
REMARK VINA RESULT:      -8.3      0.855      1.029
REMARK  Name = 
REMARK  5 active torsions:
REMARK  status: ('A' for Active; 'I' for Inactive)
REMARK    1  A    between atoms: C_1  and  C_2
REMARK    2  A    between atoms: C_5  and  C_6
REMARK    3  A    between atoms: C_10  and  C_12
REMARK    4  A    between atoms: C_12  and  N_13
REMARK    5  A    between atoms: C_17  and  C_18
REMARK                            x       y       z     vdW  Elec       q    Type
REMARK                         _______ _______ _______ _____ _____    ______ ____
ROOT
ATOM      1  C   UNL     1       1.830   8.547  19.104  0.00  0.00    +0.000 C 
ATOM      2  C   UNL     1       2.434   8.623  17.903  0.00  0.00    +0.000 C 
ATOM      3  C   UNL     1       3.422   7.613  17.377  0.00  0.00    +0.000 C 
ATOM      4  N   UNL     1       3.726   6.586  18.376  0.00  0.00    +0.000 N 
ATOM      5  C   UNL     1       4.926   5.882  18.240  0.00  0.00    +0.000 C 
ATOM      6  O   UNL     1       5.688   6.065  17.290  0.00  0.00    +0.000 OA
ATOM      7  C   UNL     1       2.596   6.197  19.234  0.00  0.00    +0.000 C 
ATOM      8  C   UNL     1       2.076   7.391  20.024  0.00  0.00    +0.000 C 
ENDROOT
BRANCH   1  13
ATOM      9  C   UNL     1      -1.913  12.564  20.888  0.00  0.00    +0.000 C 
ATOM     10  C   UNL     1      -0.942  11.516  20.436  0.00  0.00    +0.000 A 
ATOM     11  C   UNL     1      -0.289  10.693  21.360  0.00  0.00    +0.000 A 
ATOM     12  C   UNL     1       0.621   9.727  20.925  0.00  0.00    +0.000 A 
ATOM     13  C   UNL     1       0.885   9.568  19.561  0.00  0.00    +0.000 A 
ATOM     14  C   UNL     1       0.231  10.386  18.635  0.00  0.00    +0.000 A 
ATOM     15  C   UNL     1      -0.678  11.353  19.071  0.00  0.00    +0.000 A 
ENDBRANCH   1  13
BRANCH   5  16
ATOM     16  C   UNL     1       5.282   4.879  19.342  0.00  0.00    +0.000 C 
BRANCH  16  17
ATOM     17  N   UNL     1       5.242   3.463  19.007  0.00  0.00    +0.000 N 
ATOM     18  C   UNL     1       4.693   3.291  17.756  0.00  0.00    +0.000 A 
ATOM     19  N   UNL     1       3.451   3.042  17.545  0.00  0.00    +0.000 NA
ATOM     20  C   UNL     1       2.621   2.975  18.685  0.00  0.00    +0.000 A 
ATOM     21  C   UNL     1       1.282   3.367  18.597  0.00  0.00    +0.000 A 
ATOM     22  C   UNL     1       0.760   3.985  17.330  0.00  0.00    +0.000 C 
ATOM     23  C   UNL     1       0.458   3.251  19.733  0.00  0.00    +0.000 A 
ATOM     24  C   UNL     1       0.979   2.804  20.951  0.00  0.00    +0.000 A 
ATOM     25  C   UNL     1       2.342   2.531  21.069  0.00  0.00    +0.000 A 
ATOM     26  C   UNL     1       3.150   2.654  19.932  0.00  0.00    +0.000 A 
ATOM     27  C   UNL     1       4.633   2.712  20.030  0.00  0.00    +0.000 A 
ATOM     28  O   UNL     1       5.226   2.199  20.956  0.00  0.00    +0.000 OA
ENDBRANCH  16  17
ENDBRANCH   5  16
TORSDOF 3
ENDMDL
MODEL 5
REMARK VINA RESULT:      -8.3      4.078      9.651
REMARK  Name = 
REMARK  5 active torsions:
REMARK  status: ('A' for Active; 'I' for Inactive)
REMARK    1  A    between atoms: C_1  and  C_2
REMARK    2  A    between atoms: C_5  and  C_6
REMARK    3  A    between atoms: C_10  and  C_12
REMARK    4  A    between atoms: C_12  and  N_13
REMARK    5  A    between atoms: C_17  and  C_18
REMARK                            x       y       z     vdW  Elec       q    Type
REMARK                         _______ _______ _______ _____ _____    ______ ____
ROOT
ATOM      1  C   UNL     1       2.635   7.451  18.613  0.00  0.00    +0.000 C 
ATOM      2  C   UNL     1       2.207   7.147  19.854  0.00  0.00    +0.000 C 
ATOM      3  C   UNL     1       1.379   8.062  20.720  0.00  0.00    +0.000 C 
ATOM      4  N   UNL     1       1.178   9.367  20.087  0.00  0.00    +0.000 N 
ATOM      5  C   UNL     1       0.861  10.448  20.914  0.00  0.00    +0.000 C 
ATOM      6  O   UNL     1       0.696  10.318  22.128  0.00  0.00    +0.000 OA
ATOM      7  C   UNL     1       1.031   9.336  18.624  0.00  0.00    +0.000 C 
ATOM      8  C   UNL     1       2.273   8.751  17.964  0.00  0.00    +0.000 C 
ENDROOT
BRANCH   1  13
ATOM      9  C   UNL     1       5.854   3.791  15.518  0.00  0.00    +0.000 C 
ATOM     10  C   UNL     1       5.014   4.732  16.328  0.00  0.00    +0.000 A 
ATOM     11  C   UNL     1       3.970   4.257  17.128  0.00  0.00    +0.000 A 
ATOM     12  C   UNL     1       3.189   5.146  17.870  0.00  0.00    +0.000 A 
ATOM     13  C   UNL     1       3.446   6.520  17.826  0.00  0.00    +0.000 A 
ATOM     14  C   UNL     1       4.491   6.997  17.030  0.00  0.00    +0.000 A 
ATOM     15  C   UNL     1       5.272   6.108  16.287  0.00  0.00    +0.000 A 
ENDBRANCH   1  13
BRANCH   5  16
ATOM     16  C   UNL     1       0.749  11.828  20.258  0.00  0.00    +0.000 C 
BRANCH  16  17
ATOM     17  N   UNL     1      -0.553  12.232  19.748  0.00  0.00    +0.000 N 
ATOM     18  C   UNL     1      -0.405  12.889  18.548  0.00  0.00    +0.000 A 
ATOM     19  N   UNL     1      -0.327  14.167  18.433  0.00  0.00    +0.000 NA
ATOM     20  C   UNL     1      -0.373  14.908  19.633  0.00  0.00    +0.000 A 
ATOM     21  C   UNL     1       0.324  16.116  19.733  0.00  0.00    +0.000 A 
ATOM     22  C   UNL     1       1.229  16.558  18.617  0.00  0.00    +0.000 C 
ATOM     23  C   UNL     1       0.230  16.865  20.921  0.00  0.00    +0.000 A 
ATOM     24  C   UNL     1      -0.502  16.386  22.012  0.00  0.00    +0.000 A 
ATOM     25  C   UNL     1      -1.096  15.124  21.955  0.00  0.00    +0.000 A 
ATOM     26  C   UNL     1      -0.990  14.389  20.767  0.00  0.00    +0.000 A 
ATOM     27  C   UNL     1      -1.290  12.933  20.721  0.00  0.00    +0.000 A 
ATOM     28  O   UNL     1      -2.058  12.420  21.507  0.00  0.00    +0.000 OA
ENDBRANCH  16  17
ENDBRANCH   5  16
TORSDOF 3
ENDMDL
MODEL 6
REMARK VINA RESULT:      -8.1      4.696      9.741
REMARK  Name = 
REMARK  5 active torsions:
REMARK  status: ('A' for Active; 'I' for Inactive)
REMARK    1  A    between atoms: C_1  and  C_2
REMARK    2  A    between atoms: C_5  and  C_6
REMARK    3  A    between atoms: C_10  and  C_12
REMARK    4  A    between atoms: C_12  and  N_13
REMARK    5  A    between atoms: C_17  and  C_18
REMARK                            x       y       z     vdW  Elec       q    Type
REMARK                         _______ _______ _______ _____ _____    ______ ____
ROOT
ATOM      1  C   UNL     1       2.221   8.010  18.880  0.00  0.00    +0.000 C 
ATOM      2  C   UNL     1       1.600   7.738  20.044  0.00  0.00    +0.000 C 
ATOM      3  C   UNL     1       0.813   8.743  20.847  0.00  0.00    +0.000 C 
ATOM      4  N   UNL     1       0.890  10.082  20.260  0.00  0.00    +0.000 N 
ATOM      5  C   UNL     1       0.635  11.174  21.095  0.00  0.00    +0.000 C 
ATOM      6  O   UNL     1       0.300  11.033  22.272  0.00  0.00    +0.000 OA
ATOM      7  C   UNL     1       0.927  10.118  18.790  0.00  0.00    +0.000 C 
ATOM      8  C   UNL     1       2.141   9.370  18.257  0.00  0.00    +0.000 C 
ENDROOT
BRANCH   1  13
ATOM      9  C   UNL     1       5.229   3.998  16.018  0.00  0.00    +0.000 C 
ATOM     10  C   UNL     1       4.443   5.031  16.768  0.00  0.00    +0.000 A 
ATOM     11  C   UNL     1       3.339   4.669  17.548  0.00  0.00    +0.000 A 
ATOM     12  C   UNL     1       2.610   5.644  18.233  0.00  0.00    +0.000 A 
ATOM     13  C   UNL     1       2.979   6.991  18.152  0.00  0.00    +0.000 A 
ATOM     14  C   UNL     1       4.082   7.354  17.376  0.00  0.00    +0.000 A 
ATOM     15  C   UNL     1       4.811   6.379  16.689  0.00  0.00    +0.000 A 
ENDBRANCH   1  13
BRANCH   5  16
ATOM     16  C   UNL     1       0.813  12.573  20.499  0.00  0.00    +0.000 C 
BRANCH  16  17
ATOM     17  N   UNL     1       1.171  13.655  21.405  0.00  0.00    +0.000 N 
ATOM     18  C   UNL     1       0.174  14.603  21.423  0.00  0.00    +0.000 A 
ATOM     19  N   UNL     1       0.172  15.658  20.688  0.00  0.00    +0.000 NA
ATOM     20  C   UNL     1       1.259  15.806  19.800  0.00  0.00    +0.000 A 
ATOM     21  C   UNL     1       1.076  16.456  18.576  0.00  0.00    +0.000 A 
ATOM     22  C   UNL     1      -0.301  16.877  18.145  0.00  0.00    +0.000 C 
ATOM     23  C   UNL     1       2.182  16.636  17.724  0.00  0.00    +0.000 A 
ATOM     24  C   UNL     1       3.438  16.122  18.064  0.00  0.00    +0.000 A 
ATOM     25  C   UNL     1       3.591  15.367  19.228  0.00  0.00    +0.000 A 
ATOM     26  C   UNL     1       2.481  15.194  20.064  0.00  0.00    +0.000 A 
ATOM     27  C   UNL     1       2.457  14.152  21.125  0.00  0.00    +0.000 A 
ATOM     28  O   UNL     1       3.480  13.747  21.637  0.00  0.00    +0.000 OA
ENDBRANCH  16  17
ENDBRANCH   5  16
TORSDOF 3
ENDMDL
MODEL 7
REMARK VINA RESULT:      -8.1      3.960      9.655
REMARK  Name = 
REMARK  5 active torsions:
REMARK  status: ('A' for Active; 'I' for Inactive)
REMARK    1  A    between atoms: C_1  and  C_2
REMARK    2  A    between atoms: C_5  and  C_6
REMARK    3  A    between atoms: C_10  and  C_12
REMARK    4  A    between atoms: C_12  and  N_13
REMARK    5  A    between atoms: C_17  and  C_18
REMARK                            x       y       z     vdW  Elec       q    Type
REMARK                         _______ _______ _______ _____ _____    ______ ____
ROOT
ATOM      1  C   UNL     1       2.611   7.463  18.563  0.00  0.00    +0.000 C 
ATOM      2  C   UNL     1       2.208   7.187  19.818  0.00  0.00    +0.000 C 
ATOM      3  C   UNL     1       1.370   8.107  20.669  0.00  0.00    +0.000 C 
ATOM      4  N   UNL     1       1.127   9.387  20.000  0.00  0.00    +0.000 N 
ATOM      5  C   UNL     1       0.795  10.485  20.799  0.00  0.00    +0.000 C 
ATOM      6  O   UNL     1       0.651  10.388  22.018  0.00  0.00    +0.000 OA
ATOM      7  C   UNL     1       0.962   9.308  18.541  0.00  0.00    +0.000 C 
ATOM      8  C   UNL     1       2.208   8.734  17.881  0.00  0.00    +0.000 C 
ENDROOT
BRANCH   1  13
ATOM      9  C   UNL     1       5.877   3.790  15.533  0.00  0.00    +0.000 C 
ATOM     10  C   UNL     1       5.025   4.735  16.327  0.00  0.00    +0.000 A 
ATOM     11  C   UNL     1       3.996   4.260  17.147  0.00  0.00    +0.000 A 
ATOM     12  C   UNL     1       3.204   5.152  17.873  0.00  0.00    +0.000 A 
ATOM     13  C   UNL     1       3.434   6.529  17.793  0.00  0.00    +0.000 A 
ATOM     14  C   UNL     1       4.464   7.006  16.977  0.00  0.00    +0.000 A 
ATOM     15  C   UNL     1       5.256   6.113  16.249  0.00  0.00    +0.000 A 
ENDBRANCH   1  13
BRANCH   5  16
ATOM     16  C   UNL     1       0.640  11.841  20.103  0.00  0.00    +0.000 C 
BRANCH  16  17
ATOM     17  N   UNL     1       1.827  12.674  19.970  0.00  0.00    +0.000 N 
ATOM     18  C   UNL     1       2.193  13.170  21.201  0.00  0.00    +0.000 A 
ATOM     19  N   UNL     1       1.835  14.321  21.647  0.00  0.00    +0.000 NA
ATOM     20  C   UNL     1       0.992  15.084  20.810  0.00  0.00    +0.000 A 
ATOM     21  C   UNL     1       0.050  15.950  21.373  0.00  0.00    +0.000 A 
ATOM     22  C   UNL     1      -0.160  15.971  22.861  0.00  0.00    +0.000 C 
ATOM     23  C   UNL     1      -0.750  16.737  20.523  0.00  0.00    +0.000 A 
ATOM     24  C   UNL     1      -0.650  16.617  19.133  0.00  0.00    +0.000 A 
ATOM     25  C   UNL     1       0.202  15.664  18.574  0.00  0.00    +0.000 A 
ATOM     26  C   UNL     1       0.989  14.886  19.432  0.00  0.00    +0.000 A 
ATOM     27  C   UNL     1       1.661  13.644  18.965  0.00  0.00    +0.000 A 
ATOM     28  O   UNL     1       1.969  13.491  17.801  0.00  0.00    +0.000 OA
ENDBRANCH  16  17
ENDBRANCH   5  16
TORSDOF 3
ENDMDL
MODEL 8
REMARK VINA RESULT:      -8.1      3.075      4.866
REMARK  Name = 
REMARK  5 active torsions:
REMARK  status: ('A' for Active; 'I' for Inactive)
REMARK    1  A    between atoms: C_1  and  C_2
REMARK    2  A    between atoms: C_5  and  C_6
REMARK    3  A    between atoms: C_10  and  C_12
REMARK    4  A    between atoms: C_12  and  N_13
REMARK    5  A    between atoms: C_17  and  C_18
REMARK                            x       y       z     vdW  Elec       q    Type
REMARK                         _______ _______ _______ _____ _____    ______ ____
ROOT
ATOM      1  C   UNL     1      -1.186  10.134  18.569  0.00  0.00    +0.000 C 
ATOM      2  C   UNL     1      -0.741  10.185  19.839  0.00  0.00    +0.000 C 
ATOM      3  C   UNL     1       0.531   9.538  20.325  0.00  0.00    +0.000 C 
ATOM      4  N   UNL     1       1.178   8.759  19.268  0.00  0.00    +0.000 N 
ATOM      5  C   UNL     1       2.064   7.750  19.654  0.00  0.00    +0.000 C 
ATOM      6  O   UNL     1       2.348   7.544  20.835  0.00  0.00    +0.000 OA
ATOM      7  C   UNL     1       1.059   9.324  17.915  0.00  0.00    +0.000 C 
ATOM      8  C   UNL     1      -0.401   9.440  17.499  0.00  0.00    +0.000 C 
ENDROOT
BRANCH   1  13
ATOM      9  C   UNL     1      -6.129  12.646  16.957  0.00  0.00    +0.000 C 
ATOM     10  C   UNL     1      -4.848  11.997  17.387  0.00  0.00    +0.000 A 
ATOM     11  C   UNL     1      -4.300  12.251  18.649  0.00  0.00    +0.000 A 
ATOM     12  C   UNL     1      -3.101  11.648  19.032  0.00  0.00    +0.000 A 
ATOM     13  C   UNL     1      -2.437  10.777  18.162  0.00  0.00    +0.000 A 
ATOM     14  C   UNL     1      -2.984  10.518  16.902  0.00  0.00    +0.000 A 
ATOM     15  C   UNL     1      -4.183  11.123  16.517  0.00  0.00    +0.000 A 
ENDBRANCH   1  13
BRANCH   5  16
ATOM     16  C   UNL     1       2.662   6.875  18.547  0.00  0.00    +0.000 C 
BRANCH  16  17
ATOM     17  N   UNL     1       2.963   5.488  18.868  0.00  0.00    +0.000 N 
ATOM     18  C   UNL     1       4.023   5.427  19.744  0.00  0.00    +0.000 A 
ATOM     19  N   UNL     1       5.245   5.267  19.382  0.00  0.00    +0.000 NA
ATOM     20  C   UNL     1       5.482   5.181  17.993  0.00  0.00    +0.000 A 
ATOM     21  C   UNL     1       6.683   5.657  17.460  0.00  0.00    +0.000 A 
ATOM     22  C   UNL     1       7.663   6.383  18.340  0.00  0.00    +0.000 C 
ATOM     23  C   UNL     1       6.922   5.521  16.079  0.00  0.00    +0.000 A 
ATOM     24  C   UNL     1       5.952   4.968  15.238  0.00  0.00    +0.000 A 
ATOM     25  C   UNL     1       4.706   4.606  15.751  0.00  0.00    +0.000 A 
ATOM     26  C   UNL     1       4.482   4.751  17.126  0.00  0.00    +0.000 A 
ATOM     27  C   UNL     1       3.111   4.713  17.703  0.00  0.00    +0.000 A 
ATOM     28  O   UNL     1       2.212   4.109  17.157  0.00  0.00    +0.000 OA
ENDBRANCH  16  17
ENDBRANCH   5  16
TORSDOF 3
ENDMDL
MODEL 9
REMARK VINA RESULT:      -8.0      1.064      1.589
REMARK  Name = 
REMARK  5 active torsions:
REMARK  status: ('A' for Active; 'I' for Inactive)
REMARK    1  A    between atoms: C_1  and  C_2
REMARK    2  A    between atoms: C_5  and  C_6
REMARK    3  A    between atoms: C_10  and  C_12
REMARK    4  A    between atoms: C_12  and  N_13
REMARK    5  A    between atoms: C_17  and  C_18
REMARK                            x       y       z     vdW  Elec       q    Type
REMARK                         _______ _______ _______ _____ _____    ______ ____
ROOT
ATOM      1  C   UNL     1       0.768   9.335  19.983  0.00  0.00    +0.000 C 
ATOM      2  C   UNL     1       0.925   9.621  18.676  0.00  0.00    +0.000 C 
ATOM      3  C   UNL     1       1.771   8.817  17.722  0.00  0.00    +0.000 C 
ATOM      4  N   UNL     1       2.486   7.741  18.410  0.00  0.00    +0.000 N 
ATOM      5  C   UNL     1       3.633   7.227  17.798  0.00  0.00    +0.000 C 
ATOM      6  O   UNL     1       4.012   7.612  16.691  0.00  0.00    +0.000 OA
ATOM      7  C   UNL     1       1.752   7.112  19.519  0.00  0.00    +0.000 C 
ATOM      8  C   UNL     1       1.415   8.133  20.598  0.00  0.00    +0.000 C 
ENDROOT
BRANCH   1  13
ATOM      9  C   UNL     1      -2.486  12.601  23.460  0.00  0.00    +0.000 C 
ATOM     10  C   UNL     1      -1.641  11.762  22.549  0.00  0.00    +0.000 A 
ATOM     11  C   UNL     1      -1.517  12.075  21.191  0.00  0.00    +0.000 A 
ATOM     12  C   UNL     1      -0.735  11.278  20.352  0.00  0.00    +0.000 A 
ATOM     13  C   UNL     1      -0.062  10.163  20.861  0.00  0.00    +0.000 A 
ATOM     14  C   UNL     1      -0.181   9.850  22.218  0.00  0.00    +0.000 A 
ATOM     15  C   UNL     1      -0.964  10.646  23.057  0.00  0.00    +0.000 A 
ENDBRANCH   1  13
BRANCH   5  16
ATOM     16  C   UNL     1       4.430   6.171  18.569  0.00  0.00    +0.000 C 
BRANCH  16  17
ATOM     17  N   UNL     1       4.714   4.911  17.897  0.00  0.00    +0.000 N 
ATOM     18  C   UNL     1       3.643   4.544  17.114  0.00  0.00    +0.000 A 
ATOM     19  N   UNL     1       2.709   3.751  17.501  0.00  0.00    +0.000 NA
ATOM     20  C   UNL     1       2.804   3.268  18.824  0.00  0.00    +0.000 A 
ATOM     21  C   UNL     1       1.642   2.992  19.550  0.00  0.00    +0.000 A 
ATOM     22  C   UNL     1       0.296   3.336  18.977  0.00  0.00    +0.000 C 
ATOM     23  C   UNL     1       1.756   2.467  20.852  0.00  0.00    +0.000 A 
ATOM     24  C   UNL     1       3.012   2.276  21.438  0.00  0.00    +0.000 A 
ATOM     25  C   UNL     1       4.166   2.666  20.759  0.00  0.00    +0.000 A 
ATOM     26  C   UNL     1       4.037   3.190  19.466  0.00  0.00    +0.000 A 
ATOM     27  C   UNL     1       5.147   3.930  18.808  0.00  0.00    +0.000 A 
ATOM     28  O   UNL     1       6.306   3.724  19.102  0.00  0.00    +0.000 OA
ENDBRANCH  16  17
ENDBRANCH   5  16
TORSDOF 3
ENDMDL
