MODEL 1
REMARK VINA RESULT:      -9.1      0.000      0.000
REMARK  Name = 
REMARK  5 active torsions:
REMARK  status: ('A' for Active; 'I' for Inactive)
REMARK    1  A    between atoms: C_1  and  C_2
REMARK    2  A    between atoms: C_7  and  C_8
REMARK    3  A    between atoms: C_10  and  C_11
REMARK    4  A    between atoms: C_15  and  N_16
REMARK    5  A    between atoms: C_17  and  C_18
REMARK                            x       y       z     vdW  Elec       q    Type
REMARK                         _______ _______ _______ _____ _____    ______ ____
ROOT
ATOM      1  C   UNL     1       2.622   6.279  19.705  0.00  0.00    +0.000 A 
ATOM      2  C   UNL     1       2.139   5.178  20.426  0.00  0.00    +0.000 A 
ATOM      3  C   UNL     1       2.790   3.943  20.361  0.00  0.00    +0.000 A 
ATOM      4  C   UNL     1       3.935   3.796  19.579  0.00  0.00    +0.000 A 
ATOM      5  C   UNL     1       4.457   4.896  18.897  0.00  0.00    +0.000 A 
ATOM      6  C   UNL     1       3.788   6.126  18.945  0.00  0.00    +0.000 A 
ENDROOT
BRANCH   5   7
ATOM      7  N   UNL     1       5.689   4.793  18.228  0.00  0.00    +0.000 N 
ATOM      8  C   UNL     1       5.921   4.459  16.895  0.00  0.00    +0.000 A 
ATOM      9  C   UNL     1       4.852   4.280  15.874  0.00  0.00    +0.000 C 
ATOM     10  C   UNL     1       7.243   4.495  16.668  0.00  0.00    +0.000 A 
ATOM     11  N   UNL     1       7.886   4.841  17.825  0.00  0.00    +0.000 N 
ATOM     12  C   UNL     1       6.944   5.076  18.844  0.00  0.00    +0.000 A 
ATOM     13  O   UNL     1       7.202   5.420  19.984  0.00  0.00    +0.000 OA
ATOM     14  H   UNL     1       8.880   4.961  17.959  0.00  0.00    +0.000 HD
ENDBRANCH   5   7
BRANCH   1  17
ATOM     15  C   UNL     1       0.791   9.171  20.487  0.00  0.00    +0.000 A 
ATOM     16  N   UNL     1       1.223   7.984  20.852  0.00  0.00    +0.000 NA
ATOM     17  C   UNL     1       1.951   7.573  19.754  0.00  0.00    +0.000 A 
ATOM     18  N   UNL     1       1.964   8.463  18.750  0.00  0.00    +0.000 NA
ATOM     19  O   UNL     1       1.198   9.520  19.233  0.00  0.00    +0.000 OA
BRANCH  15  26
ATOM     20  C   UNL     1      -2.263  13.128  20.553  0.00  0.00    +0.000 C 
ATOM     21  C   UNL     1      -1.509  12.050  21.262  0.00  0.00    +0.000 A 
ATOM     22  C   UNL     1      -1.575  11.900  22.640  0.00  0.00    +0.000 A 
ATOM     23  N   UNL     1      -0.919  10.942  23.327  0.00  0.00    +0.000 NA
ATOM     24  C   UNL     1      -0.161  10.081  22.608  0.00  0.00    +0.000 A 
ATOM     25  F   UNL     1       0.481   9.140  23.319  0.00  0.00    +0.000 F 
ATOM     26  C   UNL     1      -0.018  10.125  21.226  0.00  0.00    +0.000 A 
ATOM     27  C   UNL     1      -0.709  11.147  20.554  0.00  0.00    +0.000 A 
ENDBRANCH  15  26
ENDBRANCH   1  17
TORSDOF 3
ENDMDL
MODEL 2
REMARK VINA RESULT:      -9.0      3.054      8.759
REMARK  Name = 
REMARK  5 active torsions:
REMARK  status: ('A' for Active; 'I' for Inactive)
REMARK    1  A    between atoms: C_1  and  C_2
REMARK    2  A    between atoms: C_7  and  C_8
REMARK    3  A    between atoms: C_10  and  C_11
REMARK    4  A    between atoms: C_15  and  N_16
REMARK    5  A    between atoms: C_17  and  C_18
REMARK                            x       y       z     vdW  Elec       q    Type
REMARK                         _______ _______ _______ _____ _____    ______ ____
ROOT
ATOM      1  C   UNL     1       1.858   7.917  19.480  0.00  0.00    +0.000 A 
ATOM      2  C   UNL     1       1.606   7.742  20.849  0.00  0.00    +0.000 A 
ATOM      3  C   UNL     1       0.926   8.722  21.578  0.00  0.00    +0.000 A 
ATOM      4  C   UNL     1       0.486   9.885  20.947  0.00  0.00    +0.000 A 
ATOM      5  C   UNL     1       0.684  10.049  19.575  0.00  0.00    +0.000 A 
ATOM      6  C   UNL     1       1.387   9.077  18.853  0.00  0.00    +0.000 A 
ENDROOT
BRANCH   5   7
ATOM      7  N   UNL     1       0.116  11.147  18.905  0.00  0.00    +0.000 N 
ATOM      8  C   UNL     1       0.635  12.432  18.761  0.00  0.00    +0.000 A 
ATOM      9  C   UNL     1       2.000  12.841  19.192  0.00  0.00    +0.000 C 
ATOM     10  C   UNL     1      -0.224  13.162  18.033  0.00  0.00    +0.000 A 
ATOM     11  N   UNL     1      -1.301  12.385  17.701  0.00  0.00    +0.000 N 
ATOM     12  C   UNL     1      -1.123  11.082  18.201  0.00  0.00    +0.000 A 
ATOM     13  O   UNL     1      -1.897  10.152  18.053  0.00  0.00    +0.000 OA
ATOM     14  H   UNL     1      -2.101  12.656  17.148  0.00  0.00    +0.000 HD
ENDBRANCH   5   7
BRANCH   1  17
ATOM     15  C   UNL     1       4.016   6.051  17.433  0.00  0.00    +0.000 A 
ATOM     16  N   UNL     1       3.701   7.210  17.969  0.00  0.00    +0.000 NA
ATOM     17  C   UNL     1       2.574   6.910  18.706  0.00  0.00    +0.000 A 
ATOM     18  N   UNL     1       2.202   5.623  18.624  0.00  0.00    +0.000 NA
ATOM     19  O   UNL     1       3.154   5.054  17.785  0.00  0.00    +0.000 OA
BRANCH  15  26
ATOM     20  C   UNL     1       5.788   3.737  13.373  0.00  0.00    +0.000 C 
ATOM     21  C   UNL     1       5.995   4.587  14.584  0.00  0.00    +0.000 A 
ATOM     22  C   UNL     1       7.241   5.104  14.907  0.00  0.00    +0.000 A 
ATOM     23  N   UNL     1       7.481   5.879  15.986  0.00  0.00    +0.000 NA
ATOM     24  C   UNL     1       6.424   6.163  16.783  0.00  0.00    +0.000 A 
ATOM     25  F   UNL     1       6.692   6.935  17.849  0.00  0.00    +0.000 F 
ATOM     26  C   UNL     1       5.129   5.710  16.564  0.00  0.00    +0.000 A 
ATOM     27  C   UNL     1       4.929   4.894  15.436  0.00  0.00    +0.000 A 
ENDBRANCH  15  26
ENDBRANCH   1  17
TORSDOF 3
ENDMDL
MODEL 3
REMARK VINA RESULT:      -8.9      3.081      8.667
REMARK  Name = 
REMARK  5 active torsions:
REMARK  status: ('A' for Active; 'I' for Inactive)
REMARK    1  A    between atoms: C_1  and  C_2
REMARK    2  A    between atoms: C_7  and  C_8
REMARK    3  A    between atoms: C_10  and  C_11
REMARK    4  A    between atoms: C_15  and  N_16
REMARK    5  A    between atoms: C_17  and  C_18
REMARK                            x       y       z     vdW  Elec       q    Type
REMARK                         _______ _______ _______ _____ _____    ______ ____
ROOT
ATOM      1  C   UNL     1       1.989   7.708  19.438  0.00  0.00    +0.000 A 
ATOM      2  C   UNL     1       1.707   7.491  20.795  0.00  0.00    +0.000 A 
ATOM      3  C   UNL     1       1.039   8.462  21.547  0.00  0.00    +0.000 A 
ATOM      4  C   UNL     1       0.640   9.657  20.950  0.00  0.00    +0.000 A 
ATOM      5  C   UNL     1       0.867   9.864  19.588  0.00  0.00    +0.000 A 
ATOM      6  C   UNL     1       1.559   8.900  18.844  0.00  0.00    +0.000 A 
ENDROOT
BRANCH   5   7
ATOM      7  N   UNL     1       0.339  10.999  18.949  0.00  0.00    +0.000 N 
ATOM      8  C   UNL     1      -0.897  11.138  18.320  0.00  0.00    +0.000 A 
ATOM      9  C   UNL     1      -1.971  10.106  18.337  0.00  0.00    +0.000 C 
ATOM     10  C   UNL     1      -1.005  12.393  17.859  0.00  0.00    +0.000 A 
ATOM     11  N   UNL     1       0.137  13.082  18.166  0.00  0.00    +0.000 N 
ATOM     12  C   UNL     1       1.015  12.254  18.890  0.00  0.00    +0.000 A 
ATOM     13  O   UNL     1       2.104  12.583  19.326  0.00  0.00    +0.000 OA
ATOM     14  H   UNL     1       0.340  14.049  17.959  0.00  0.00    +0.000 HD
ENDBRANCH   5   7
BRANCH   1  17
ATOM     15  C   UNL     1       4.107   5.870  17.325  0.00  0.00    +0.000 A 
ATOM     16  N   UNL     1       3.795   7.025  17.873  0.00  0.00    +0.000 NA
ATOM     17  C   UNL     1       2.693   6.710  18.640  0.00  0.00    +0.000 A 
ATOM     18  N   UNL     1       2.333   5.419  18.566  0.00  0.00    +0.000 NA
ATOM     19  O   UNL     1       3.267   4.863  17.698  0.00  0.00    +0.000 OA
BRANCH  15  26
ATOM     20  C   UNL     1       5.780   3.616  13.189  0.00  0.00    +0.000 C 
ATOM     21  C   UNL     1       6.016   4.450  14.406  0.00  0.00    +0.000 A 
ATOM     22  C   UNL     1       7.269   4.965  14.705  0.00  0.00    +0.000 A 
ATOM     23  N   UNL     1       7.534   5.726  15.788  0.00  0.00    +0.000 NA
ATOM     24  C   UNL     1       6.498   5.996  16.616  0.00  0.00    +0.000 A 
ATOM     25  F   UNL     1       6.792   6.754  17.685  0.00  0.00    +0.000 F 
ATOM     26  C   UNL     1       5.198   5.543  16.423  0.00  0.00    +0.000 A 
ATOM     27  C   UNL     1       4.972   4.743  15.290  0.00  0.00    +0.000 A 
ENDBRANCH  15  26
ENDBRANCH   1  17
TORSDOF 3
ENDMDL
MODEL 4
REMARK VINA RESULT:      -8.8      2.434      2.810
REMARK  Name = 
REMARK  5 active torsions:
REMARK  status: ('A' for Active; 'I' for Inactive)
REMARK    1  A    between atoms: C_1  and  C_2
REMARK    2  A    between atoms: C_7  and  C_8
REMARK    3  A    between atoms: C_10  and  C_11
REMARK    4  A    between atoms: C_15  and  N_16
REMARK    5  A    between atoms: C_17  and  C_18
REMARK                            x       y       z     vdW  Elec       q    Type
REMARK                         _______ _______ _______ _____ _____    ______ ____
ROOT
ATOM      1  C   UNL     1       2.485   6.141  18.303  0.00  0.00    +0.000 A 
ATOM      2  C   UNL     1       1.630   5.034  18.197  0.00  0.00    +0.000 A 
ATOM      3  C   UNL     1       2.084   3.834  17.641  0.00  0.00    +0.000 A 
ATOM      4  C   UNL     1       3.399   3.726  17.189  0.00  0.00    +0.000 A 
ATOM      5  C   UNL     1       4.275   4.803  17.335  0.00  0.00    +0.000 A 
ATOM      6  C   UNL     1       3.810   6.011  17.870  0.00  0.00    +0.000 A 
ENDROOT
BRANCH   5   7
ATOM      7  N   UNL     1       5.636   4.653  17.019  0.00  0.00    +0.000 N 
ATOM      8  C   UNL     1       6.227   4.597  15.758  0.00  0.00    +0.000 A 
ATOM      9  C   UNL     1       5.504   4.832  14.478  0.00  0.00    +0.000 C 
ATOM     10  C   UNL     1       7.554   4.467  15.912  0.00  0.00    +0.000 A 
ATOM     11  N   UNL     1       7.848   4.431  17.249  0.00  0.00    +0.000 N 
ATOM     12  C   UNL     1       6.668   4.579  18.001  0.00  0.00    +0.000 A 
ATOM     13  O   UNL     1       6.601   4.610  19.218  0.00  0.00    +0.000 OA
ATOM     14  H   UNL     1       8.762   4.352  17.671  0.00  0.00    +0.000 HD
ENDBRANCH   5   7
BRANCH   1  17
ATOM     15  C   UNL     1       1.385   9.407  18.979  0.00  0.00    +0.000 A 
ATOM     16  N   UNL     1       1.751   8.507  18.092  0.00  0.00    +0.000 NA
ATOM     17  C   UNL     1       2.026   7.402  18.873  0.00  0.00    +0.000 A 
ATOM     18  N   UNL     1       1.845   7.610  20.186  0.00  0.00    +0.000 NA
ATOM     19  O   UNL     1       1.421   8.934  20.258  0.00  0.00    +0.000 OA
BRANCH  15  26
ATOM     20  C   UNL     1       2.470  14.228  18.234  0.00  0.00    +0.000 C 
ATOM     21  C   UNL     1       1.476  13.127  18.408  0.00  0.00    +0.000 A 
ATOM     22  C   UNL     1       0.109  13.363  18.352  0.00  0.00    +0.000 A 
ATOM     23  N   UNL     1      -0.829  12.405  18.499  0.00  0.00    +0.000 NA
ATOM     24  C   UNL     1      -0.389  11.142  18.705  0.00  0.00    +0.000 A 
ATOM     25  F   UNL     1      -1.345  10.210  18.848  0.00  0.00    +0.000 F 
ATOM     26  C   UNL     1       0.951  10.777  18.775  0.00  0.00    +0.000 A 
ATOM     27  C   UNL     1       1.893  11.811  18.630  0.00  0.00    +0.000 A 
ENDBRANCH  15  26
ENDBRANCH   1  17
TORSDOF 3
ENDMDL
MODEL 5
REMARK VINA RESULT:      -8.8      1.237      1.244
REMARK  Name = 
REMARK  5 active torsions:
REMARK  status: ('A' for Active; 'I' for Inactive)
REMARK    1  A    between atoms: C_1  and  C_2
REMARK    2  A    between atoms: C_7  and  C_8
REMARK    3  A    between atoms: C_10  and  C_11
REMARK    4  A    between atoms: C_15  and  N_16
REMARK    5  A    between atoms: C_17  and  C_18
REMARK                            x       y       z     vdW  Elec       q    Type
REMARK                         _______ _______ _______ _____ _____    ______ ____
ROOT
ATOM      1  C   UNL     1       2.527   6.294  18.236  0.00  0.00    +0.000 A 
ATOM      2  C   UNL     1       1.677   5.178  18.285  0.00  0.00    +0.000 A 
ATOM      3  C   UNL     1       2.126   3.923  17.865  0.00  0.00    +0.000 A 
ATOM      4  C   UNL     1       3.431   3.767  17.397  0.00  0.00    +0.000 A 
ATOM      5  C   UNL     1       4.303   4.857  17.392  0.00  0.00    +0.000 A 
ATOM      6  C   UNL     1       3.842   6.118  17.789  0.00  0.00    +0.000 A 
ENDROOT
BRANCH   5   7
ATOM      7  N   UNL     1       5.657   4.676  17.061  0.00  0.00    +0.000 N 
ATOM      8  C   UNL     1       6.228   4.560  15.796  0.00  0.00    +0.000 A 
ATOM      9  C   UNL     1       5.488   4.753  14.518  0.00  0.00    +0.000 C 
ATOM     10  C   UNL     1       7.555   4.418  15.936  0.00  0.00    +0.000 A 
ATOM     11  N   UNL     1       7.869   4.432  17.268  0.00  0.00    +0.000 N 
ATOM     12  C   UNL     1       6.702   4.628  18.031  0.00  0.00    +0.000 A 
ATOM     13  O   UNL     1       6.654   4.708  19.246  0.00  0.00    +0.000 OA
ATOM     14  H   UNL     1       8.788   4.359  17.679  0.00  0.00    +0.000 HD
ENDBRANCH   5   7
BRANCH   1  17
ATOM     15  C   UNL     1       1.136   9.102  19.820  0.00  0.00    +0.000 A 
ATOM     16  N   UNL     1       1.340   7.802  19.816  0.00  0.00    +0.000 NA
ATOM     17  C   UNL     1       2.073   7.613  18.662  0.00  0.00    +0.000 A 
ATOM     18  N   UNL     1       2.306   8.743  17.978  0.00  0.00    +0.000 NA
ATOM     19  O   UNL     1       1.689   9.728  18.742  0.00  0.00    +0.000 OA
BRANCH  15  26
ATOM     20  C   UNL     1      -2.129  12.734  20.885  0.00  0.00    +0.000 C 
ATOM     21  C   UNL     1      -1.154  11.688  21.319  0.00  0.00    +0.000 A 
ATOM     22  C   UNL     1      -0.900  11.440  22.660  0.00  0.00    +0.000 A 
ATOM     23  N   UNL     1      -0.033  10.505  23.105  0.00  0.00    +0.000 NA
ATOM     24  C   UNL     1       0.611   9.772  22.167  0.00  0.00    +0.000 A 
ATOM     25  F   UNL     1       1.467   8.851  22.639  0.00  0.00    +0.000 F 
ATOM     26  C   UNL     1       0.439   9.922  20.796  0.00  0.00    +0.000 A 
ATOM     27  C   UNL     1      -0.463  10.916  20.379  0.00  0.00    +0.000 A 
ENDBRANCH  15  26
ENDBRANCH   1  17
TORSDOF 3
ENDMDL
MODEL 6
REMARK VINA RESULT:      -8.7      3.381      9.247
REMARK  Name = 
REMARK  5 active torsions:
REMARK  status: ('A' for Active; 'I' for Inactive)
REMARK    1  A    between atoms: C_1  and  C_2
REMARK    2  A    between atoms: C_7  and  C_8
REMARK    3  A    between atoms: C_10  and  C_11
REMARK    4  A    between atoms: C_15  and  N_16
REMARK    5  A    between atoms: C_17  and  C_18
REMARK                            x       y       z     vdW  Elec       q    Type
REMARK                         _______ _______ _______ _____ _____    ______ ____
ROOT
ATOM      1  C   UNL     1       0.543  10.389  18.646  0.00  0.00    +0.000 A 
ATOM      2  C   UNL     1       1.098  11.643  18.939  0.00  0.00    +0.000 A 
ATOM      3  C   UNL     1       0.370  12.815  18.714  0.00  0.00    +0.000 A 
ATOM      4  C   UNL     1      -0.924  12.746  18.198  0.00  0.00    +0.000 A 
ATOM      5  C   UNL     1      -1.508  11.503  17.950  0.00  0.00    +0.000 A 
ATOM      6  C   UNL     1      -0.767  10.332  18.153  0.00  0.00    +0.000 A 
ENDROOT
BRANCH   5   7
ATOM      7  N   UNL     1      -2.859  11.421  17.570  0.00  0.00    +0.000 N 
ATOM      8  C   UNL     1      -3.989  11.686  18.341  0.00  0.00    +0.000 A 
ATOM      9  C   UNL     1      -3.955  12.257  19.716  0.00  0.00    +0.000 C 
ATOM     10  C   UNL     1      -5.079  11.501  17.582  0.00  0.00    +0.000 A 
ATOM     11  N   UNL     1      -4.691  11.114  16.328  0.00  0.00    +0.000 N 
ATOM     12  C   UNL     1      -3.286  11.079  16.253  0.00  0.00    +0.000 A 
ATOM     13  O   UNL     1      -2.634  10.792  15.263  0.00  0.00    +0.000 OA
ATOM     14  H   UNL     1      -5.287  10.915  15.538  0.00  0.00    +0.000 HD
ENDBRANCH   5   7
BRANCH   1  17
ATOM     15  C   UNL     1       2.437   7.439  18.451  0.00  0.00    +0.000 A 
ATOM     16  N   UNL     1       1.892   8.465  17.834  0.00  0.00    +0.000 NA
ATOM     17  C   UNL     1       1.291   9.157  18.866  0.00  0.00    +0.000 A 
ATOM     18  N   UNL     1       1.451   8.581  20.068  0.00  0.00    +0.000 NA
ATOM     19  O   UNL     1       2.209   7.447  19.795  0.00  0.00    +0.000 OA
BRANCH  15  26
ATOM     20  C   UNL     1       6.704   5.779  16.446  0.00  0.00    +0.000 C 
ATOM     21  C   UNL     1       5.312   5.540  16.932  0.00  0.00    +0.000 A 
ATOM     22  C   UNL     1       4.739   4.276  16.909  0.00  0.00    +0.000 A 
ATOM     23  N   UNL     1       3.489   4.006  17.339  0.00  0.00    +0.000 NA
ATOM     24  C   UNL     1       2.770   5.045  17.825  0.00  0.00    +0.000 A 
ATOM     25  F   UNL     1       1.530   4.746  18.244  0.00  0.00    +0.000 F 
ATOM     26  C   UNL     1       3.233   6.353  17.905  0.00  0.00    +0.000 A 
ATOM     27  C   UNL     1       4.535   6.590  17.433  0.00  0.00    +0.000 A 
ENDBRANCH  15  26
ENDBRANCH   1  17
TORSDOF 3
ENDMDL
MODEL 7
REMARK VINA RESULT:      -8.7      3.464      9.171
REMARK  Name = 
REMARK  5 active torsions:
REMARK  status: ('A' for Active; 'I' for Inactive)
REMARK    1  A    between atoms: C_1  and  C_2
REMARK    2  A    between atoms: C_7  and  C_8
REMARK    3  A    between atoms: C_10  and  C_11
REMARK    4  A    between atoms: C_15  and  N_16
REMARK    5  A    between atoms: C_17  and  C_18
REMARK                            x       y       z     vdW  Elec       q    Type
REMARK                         _______ _______ _______ _____ _____    ______ ____
ROOT
ATOM      1  C   UNL     1       0.749  10.415  18.731  0.00  0.00    +0.000 A 
ATOM      2  C   UNL     1       1.462  11.617  18.847  0.00  0.00    +0.000 A 
ATOM      3  C   UNL     1       0.833  12.844  18.615  0.00  0.00    +0.000 A 
ATOM      4  C   UNL     1      -0.518  12.883  18.270  0.00  0.00    +0.000 A 
ATOM      5  C   UNL     1      -1.253  11.698  18.202  0.00  0.00    +0.000 A 
ATOM      6  C   UNL     1      -0.613  10.470  18.411  0.00  0.00    +0.000 A 
ENDROOT
BRANCH   5   7
ATOM      7  N   UNL     1      -2.643  11.741  18.000  0.00  0.00    +0.000 N 
ATOM      8  C   UNL     1      -3.359  11.404  16.853  0.00  0.00    +0.000 A 
ATOM      9  C   UNL     1      -2.759  10.787  15.638  0.00  0.00    +0.000 C 
ATOM     10  C   UNL     1      -4.667  11.573  17.099  0.00  0.00    +0.000 A 
ATOM     11  N   UNL     1      -4.827  12.020  18.383  0.00  0.00    +0.000 N 
ATOM     12  C   UNL     1      -3.573  12.113  19.016  0.00  0.00    +0.000 A 
ATOM     13  O   UNL     1      -3.384  12.460  20.169  0.00  0.00    +0.000 OA
ATOM     14  H   UNL     1      -5.696  12.223  18.855  0.00  0.00    +0.000 HD
ENDBRANCH   5   7
BRANCH   1  17
ATOM     15  C   UNL     1       2.370   7.305  18.556  0.00  0.00    +0.000 A 
ATOM     16  N   UNL     1       1.902   8.363  17.930  0.00  0.00    +0.000 NA
ATOM     17  C   UNL     1       1.391   9.126  18.961  0.00  0.00    +0.000 A 
ATOM     18  N   UNL     1       1.530   8.563  20.171  0.00  0.00    +0.000 NA
ATOM     19  O   UNL     1       2.177   7.360  19.906  0.00  0.00    +0.000 OA
BRANCH  15  26
ATOM     20  C   UNL     1       2.480   2.397  17.617  0.00  0.00    +0.000 C 
ATOM     21  C   UNL     1       3.107   3.752  17.553  0.00  0.00    +0.000 A 
ATOM     22  C   UNL     1       4.342   3.956  16.953  0.00  0.00    +0.000 A 
ATOM     23  N   UNL     1       4.949   5.158  16.865  0.00  0.00    +0.000 NA
ATOM     24  C   UNL     1       4.293   6.216  17.395  0.00  0.00    +0.000 A 
ATOM     25  F   UNL     1       4.922   7.399  17.294  0.00  0.00    +0.000 F 
ATOM     26  C   UNL     1       3.052   6.142  18.016  0.00  0.00    +0.000 A 
ATOM     27  C   UNL     1       2.463   4.868  18.096  0.00  0.00    +0.000 A 
ENDBRANCH  15  26
ENDBRANCH   1  17
TORSDOF 3
ENDMDL
MODEL 8
REMARK VINA RESULT:      -8.6      3.389      9.167
REMARK  Name = 
REMARK  5 active torsions:
REMARK  status: ('A' for Active; 'I' for Inactive)
REMARK    1  A    between atoms: C_1  and  C_2
REMARK    2  A    between atoms: C_7  and  C_8
REMARK    3  A    between atoms: C_10  and  C_11
REMARK    4  A    between atoms: C_15  and  N_16
REMARK    5  A    between atoms: C_17  and  C_18
REMARK                            x       y       z     vdW  Elec       q    Type
REMARK                         _______ _______ _______ _____ _____    ______ ____
ROOT
ATOM      1  C   UNL     1       0.731  10.417  18.663  0.00  0.00    +0.000 A 
ATOM      2  C   UNL     1       1.404  11.639  18.805  0.00  0.00    +0.000 A 
ATOM      3  C   UNL     1       0.734  12.849  18.601  0.00  0.00    +0.000 A 
ATOM      4  C   UNL     1      -0.618  12.851  18.258  0.00  0.00    +0.000 A 
ATOM      5  C   UNL     1      -1.313  11.644  18.164  0.00  0.00    +0.000 A 
ATOM      6  C   UNL     1      -0.633  10.434  18.345  0.00  0.00    +0.000 A 
ENDROOT
BRANCH   5   7
ATOM      7  N   UNL     1      -2.704  11.645  17.965  0.00  0.00    +0.000 N 
ATOM      8  C   UNL     1      -3.412  11.287  16.819  0.00  0.00    +0.000 A 
ATOM      9  C   UNL     1      -2.796  10.688  15.603  0.00  0.00    +0.000 C 
ATOM     10  C   UNL     1      -4.724  11.417  17.067  0.00  0.00    +0.000 A 
ATOM     11  N   UNL     1      -4.895  11.858  18.351  0.00  0.00    +0.000 N 
ATOM     12  C   UNL     1      -3.644  11.989  18.982  0.00  0.00    +0.000 A 
ATOM     13  O   UNL     1      -3.463  12.341  20.135  0.00  0.00    +0.000 OA
ATOM     14  H   UNL     1      -5.769  12.035  18.824  0.00  0.00    +0.000 HD
ENDBRANCH   5   7
BRANCH   1  17
ATOM     15  C   UNL     1       2.495   7.390  18.425  0.00  0.00    +0.000 A 
ATOM     16  N   UNL     1       2.015   8.460  17.827  0.00  0.00    +0.000 NA
ATOM     17  C   UNL     1       1.416   9.145  18.864  0.00  0.00    +0.000 A 
ATOM     18  N   UNL     1       1.513   8.525  20.050  0.00  0.00    +0.000 NA
ATOM     19  O   UNL     1       2.227   7.366  19.762  0.00  0.00    +0.000 OA
BRANCH  15  26
ATOM     20  C   UNL     1       6.694   5.633  16.361  0.00  0.00    +0.000 C 
ATOM     21  C   UNL     1       5.303   5.426  16.865  0.00  0.00    +0.000 A 
ATOM     22  C   UNL     1       4.699   4.177  16.846  0.00  0.00    +0.000 A 
ATOM     23  N   UNL     1       3.448   3.936  17.292  0.00  0.00    +0.000 NA
ATOM     24  C   UNL     1       2.761   4.990  17.789  0.00  0.00    +0.000 A 
ATOM     25  F   UNL     1       1.520   4.721  18.224  0.00  0.00    +0.000 F 
ATOM     26  C   UNL     1       3.257   6.287  17.866  0.00  0.00    +0.000 A 
ATOM     27  C   UNL     1       4.559   6.493  17.378  0.00  0.00    +0.000 A 
ENDBRANCH  15  26
ENDBRANCH   1  17
TORSDOF 3
ENDMDL
MODEL 9
REMARK VINA RESULT:      -8.6      2.045      2.469
REMARK  Name = 
REMARK  5 active torsions:
REMARK  status: ('A' for Active; 'I' for Inactive)
REMARK    1  A    between atoms: C_1  and  C_2
REMARK    2  A    between atoms: C_7  and  C_8
REMARK    3  A    between atoms: C_10  and  C_11
REMARK    4  A    between atoms: C_15  and  N_16
REMARK    5  A    between atoms: C_17  and  C_18
REMARK                            x       y       z     vdW  Elec       q    Type
REMARK                         _______ _______ _______ _____ _____    ______ ____
ROOT
ATOM      1  C   UNL     1       2.517   6.147  19.871  0.00  0.00    +0.000 A 
ATOM      2  C   UNL     1       2.014   4.963  20.431  0.00  0.00    +0.000 A 
ATOM      3  C   UNL     1       2.646   3.739  20.194  0.00  0.00    +0.000 A 
ATOM      4  C   UNL     1       3.792   3.685  19.400  0.00  0.00    +0.000 A 
ATOM      5  C   UNL     1       4.333   4.862  18.879  0.00  0.00    +0.000 A 
ATOM      6  C   UNL     1       3.683   6.083  19.098  0.00  0.00    +0.000 A 
ENDROOT
BRANCH   5   7
ATOM      7  N   UNL     1       5.565   4.834  18.204  0.00  0.00    +0.000 N 
ATOM      8  C   UNL     1       5.805   4.555  16.860  0.00  0.00    +0.000 A 
ATOM      9  C   UNL     1       4.741   4.362  15.837  0.00  0.00    +0.000 C 
ATOM     10  C   UNL     1       7.123   4.656  16.630  0.00  0.00    +0.000 A 
ATOM     11  N   UNL     1       7.757   4.992  17.796  0.00  0.00    +0.000 N 
ATOM     12  C   UNL     1       6.809   5.151  18.825  0.00  0.00    +0.000 A 
ATOM     13  O   UNL     1       7.057   5.470  19.975  0.00  0.00    +0.000 OA
ATOM     14  H   UNL     1       8.745   5.150  17.931  0.00  0.00    +0.000 HD
ENDBRANCH   5   7
BRANCH   1  17
ATOM     15  C   UNL     1       1.122   9.366  19.723  0.00  0.00    +0.000 A 
ATOM     16  N   UNL     1       1.749   8.386  19.110  0.00  0.00    +0.000 NA
ATOM     17  C   UNL     1       1.865   7.431  20.100  0.00  0.00    +0.000 A 
ATOM     18  N   UNL     1       1.339   7.806  21.276  0.00  0.00    +0.000 NA
ATOM     19  O   UNL     1       0.847   9.084  21.028  0.00  0.00    +0.000 OA
BRANCH  15  26
ATOM     20  C   UNL     1       2.160  14.069  18.384  0.00  0.00    +0.000 C 
ATOM     21  C   UNL     1       1.193  12.941  18.544  0.00  0.00    +0.000 A 
ATOM     22  C   UNL     1      -0.140  13.067  18.177  0.00  0.00    +0.000 A 
ATOM     23  N   UNL     1      -1.052  12.080  18.297  0.00  0.00    +0.000 NA
ATOM     24  C   UNL     1      -0.618  10.902  18.803  0.00  0.00    +0.000 A 
ATOM     25  F   UNL     1      -1.548   9.939  18.911  0.00  0.00    +0.000 F 
ATOM     26  C   UNL     1       0.690  10.651  19.202  0.00  0.00    +0.000 A 
ATOM     27  C   UNL     1       1.602  11.712  19.071  0.00  0.00    +0.000 A 
ENDBRANCH  15  26
ENDBRANCH   1  17
TORSDOF 3
ENDMDL
