MODEL 1
REMARK VINA RESULT:      -8.5      0.000      0.000
REMARK  Name = 
REMARK  7 active torsions:
REMARK  status: ('A' for Active; 'I' for Inactive)
REMARK    1  A    between atoms: C_1  and  C_2
REMARK    2  A    between atoms: C_4  and  N_5
REMARK    3  A    between atoms: C_6  and  C_8
REMARK    4  A    between atoms: C_14  and  C_15
REMARK    5  A    between atoms: C_15  and  O_17
REMARK    6  A    between atoms: C_20  and  O_21
REMARK    7  A    between atoms: O_21  and  C_22
REMARK                            x       y       z     vdW  Elec       q    Type
REMARK                         _______ _______ _______ _____ _____    ______ ____
ROOT
ATOM      1  N   UNL     1       3.350   6.941  18.221  0.00  0.00    +0.000 N 
ATOM      2  C   UNL     1       3.154   5.627  17.867  0.00  0.00    +0.000 C 
ATOM      3  O   UNL     1       2.061   5.065  17.757  0.00  0.00    +0.000 OA
ATOM      4  H   UNL     1       4.292   7.297  18.206  0.00  0.00    +0.000 HD
ENDROOT
BRANCH   1   8
ATOM      5  C   UNL     1       0.571   8.896  21.860  0.00  0.00    +0.000 C 
ATOM      6  C   UNL     1       0.982   8.883  20.415  0.00  0.00    +0.000 A 
ATOM      7  C   UNL     1       1.906   7.909  19.990  0.00  0.00    +0.000 A 
ATOM      8  C   UNL     1       2.357   7.845  18.670  0.00  0.00    +0.000 A 
ATOM      9  C   UNL     1       1.808   8.722  17.736  0.00  0.00    +0.000 A 
ATOM     10  C   UNL     1       0.888   9.695  18.137  0.00  0.00    +0.000 A 
ATOM     11  C   UNL     1       0.537   9.834  19.488  0.00  0.00    +0.000 A 
BRANCH  11  12
ATOM     12  O   UNL     1      -0.258  10.869  19.936  0.00  0.00    +0.000 OA
BRANCH  12  13
ATOM     13  C   UNL     1       0.184  12.164  19.754  0.00  0.00    +0.000 A 
ATOM     14  C   UNL     1       1.335  12.700  20.337  0.00  0.00    +0.000 A 
ATOM     15  C   UNL     1       1.710  14.007  20.032  0.00  0.00    +0.000 A 
ATOM     16  C   UNL     1       0.891  14.749  19.198  0.00  0.00    +0.000 A 
ATOM     17  N   UNL     1      -0.258  14.280  18.660  0.00  0.00    +0.000 NA
ATOM     18  C   UNL     1      -0.586  12.999  18.957  0.00  0.00    +0.000 A 
ENDBRANCH  12  13
ENDBRANCH  11  12
ENDBRANCH   1   8
BRANCH   2  19
ATOM     19  C   UNL     1       4.402   4.864  17.448  0.00  0.00    +0.000 C 
ATOM     20  C   UNL     1       4.689   4.769  15.931  0.00  0.00    +0.000 C 
ATOM     21  C   UNL     1       5.861   3.826  15.743  0.00  0.00    +0.000 C 
ATOM     22  C   UNL     1       6.957   4.458  16.191  0.00  0.00    +0.000 C 
ATOM     23  C   UNL     1       6.521   5.806  16.701  0.00  0.00    +0.000 C 
ATOM     24  C   UNL     1       5.420   6.087  15.666  0.00  0.00    +0.000 C 
ATOM     25  C   UNL     1       5.660   5.650  17.971  0.00  0.00    +0.000 C 
BRANCH  25  26
ATOM     26  C   UNL     1       6.277   4.940  19.153  0.00  0.00    +0.000 C 
ATOM     27  O   UNL     1       7.130   5.396  19.895  0.00  0.00    +0.000 OA
BRANCH  26  28
ATOM     28  O   UNL     1       5.746   3.702  19.333  0.00  0.00    +0.000 OA
ATOM     29  H   UNL     1       4.814   3.620  19.022  0.00  0.00    +0.000 HD
ENDBRANCH  26  28
ENDBRANCH  25  26
ENDBRANCH   2  19
TORSDOF 6
ENDMDL
MODEL 2
REMARK VINA RESULT:      -8.2      1.659      2.263
REMARK  Name = 
REMARK  7 active torsions:
REMARK  status: ('A' for Active; 'I' for Inactive)
REMARK    1  A    between atoms: C_1  and  C_2
REMARK    2  A    between atoms: C_4  and  N_5
REMARK    3  A    between atoms: C_6  and  C_8
REMARK    4  A    between atoms: C_14  and  C_15
REMARK    5  A    between atoms: C_15  and  O_17
REMARK    6  A    between atoms: C_20  and  O_21
REMARK    7  A    between atoms: O_21  and  C_22
REMARK                            x       y       z     vdW  Elec       q    Type
REMARK                         _______ _______ _______ _____ _____    ______ ____
ROOT
ATOM      1  N   UNL     1       3.533   6.999  18.182  0.00  0.00    +0.000 N 
ATOM      2  C   UNL     1       3.389   5.666  17.871  0.00  0.00    +0.000 C 
ATOM      3  O   UNL     1       2.317   5.062  17.772  0.00  0.00    +0.000 OA
ATOM      4  H   UNL     1       4.462   7.388  18.161  0.00  0.00    +0.000 HD
ENDROOT
BRANCH   1   8
ATOM      5  C   UNL     1       0.436   8.741  21.668  0.00  0.00    +0.000 C 
ATOM      6  C   UNL     1       0.977   8.816  20.268  0.00  0.00    +0.000 A 
ATOM      7  C   UNL     1       1.935   7.864  19.869  0.00  0.00    +0.000 A 
ATOM      8  C   UNL     1       2.504   7.879  18.594  0.00  0.00    +0.000 A 
ATOM      9  C   UNL     1       2.044   8.816  17.671  0.00  0.00    +0.000 A 
ATOM     10  C   UNL     1       1.092   9.768  18.047  0.00  0.00    +0.000 A 
ATOM     11  C   UNL     1       0.619   9.825  19.366  0.00  0.00    +0.000 A 
BRANCH  11  12
ATOM     12  O   UNL     1      -0.212  10.836  19.804  0.00  0.00    +0.000 OA
BRANCH  12  13
ATOM     13  C   UNL     1      -1.452  10.970  19.213  0.00  0.00    +0.000 A 
ATOM     14  C   UNL     1      -1.947  10.136  18.207  0.00  0.00    +0.000 A 
ATOM     15  C   UNL     1      -3.240  10.337  17.727  0.00  0.00    +0.000 A 
ATOM     16  C   UNL     1      -3.972  11.399  18.232  0.00  0.00    +0.000 A 
ATOM     17  N   UNL     1      -3.505  12.257  19.167  0.00  0.00    +0.000 NA
ATOM     18  C   UNL     1      -2.252  12.025  19.630  0.00  0.00    +0.000 A 
ENDBRANCH  12  13
ENDBRANCH  11  12
ENDBRANCH   1   8
BRANCH   2  19
ATOM     19  C   UNL     1       4.667   4.937  17.485  0.00  0.00    +0.000 C 
ATOM     20  C   UNL     1       4.821   4.529  16.001  0.00  0.00    +0.000 C 
ATOM     21  C   UNL     1       6.065   3.671  15.887  0.00  0.00    +0.000 C 
ATOM     22  C   UNL     1       7.123   4.477  16.061  0.00  0.00    +0.000 C 
ATOM     23  C   UNL     1       6.594   5.863  16.317  0.00  0.00    +0.000 C 
ATOM     24  C   UNL     1       5.378   5.811  15.378  0.00  0.00    +0.000 C 
ATOM     25  C   UNL     1       5.876   5.924  17.681  0.00  0.00    +0.000 C 
BRANCH  25  26
ATOM     26  C   UNL     1       6.672   5.551  18.910  0.00  0.00    +0.000 C 
ATOM     27  O   UNL     1       6.341   4.740  19.757  0.00  0.00    +0.000 OA
BRANCH  26  28
ATOM     28  O   UNL     1       7.856   6.216  18.966  0.00  0.00    +0.000 OA
ATOM     29  H   UNL     1       8.235   6.430  18.082  0.00  0.00    +0.000 HD
ENDBRANCH  26  28
ENDBRANCH  25  26
ENDBRANCH   2  19
TORSDOF 6
ENDMDL
MODEL 3
REMARK VINA RESULT:      -8.1      1.668      2.075
REMARK  Name = 
REMARK  7 active torsions:
REMARK  status: ('A' for Active; 'I' for Inactive)
REMARK    1  A    between atoms: C_1  and  C_2
REMARK    2  A    between atoms: C_4  and  N_5
REMARK    3  A    between atoms: C_6  and  C_8
REMARK    4  A    between atoms: C_14  and  C_15
REMARK    5  A    between atoms: C_15  and  O_17
REMARK    6  A    between atoms: C_20  and  O_21
REMARK    7  A    between atoms: O_21  and  C_22
REMARK                            x       y       z     vdW  Elec       q    Type
REMARK                         _______ _______ _______ _____ _____    ______ ____
ROOT
ATOM      1  N   UNL     1       3.405   7.016  18.164  0.00  0.00    +0.000 N 
ATOM      2  C   UNL     1       3.184   5.694  17.855  0.00  0.00    +0.000 C 
ATOM      3  O   UNL     1       2.080   5.146  17.780  0.00  0.00    +0.000 OA
ATOM      4  H   UNL     1       4.352   7.356  18.123  0.00  0.00    +0.000 HD
ENDROOT
BRANCH   1   8
ATOM      5  C   UNL     1       0.372   8.815  21.679  0.00  0.00    +0.000 C 
ATOM      6  C   UNL     1       0.945   8.915  20.293  0.00  0.00    +0.000 A 
ATOM      7  C   UNL     1       1.840   7.915  19.865  0.00  0.00    +0.000 A 
ATOM      8  C   UNL     1       2.433   7.948  18.602  0.00  0.00    +0.000 A 
ATOM      9  C   UNL     1       2.059   8.957  17.716  0.00  0.00    +0.000 A 
ATOM     10  C   UNL     1       1.170   9.957  18.121  0.00  0.00    +0.000 A 
ATOM     11  C   UNL     1       0.677   9.988  19.433  0.00  0.00    +0.000 A 
BRANCH  11  12
ATOM     12  O   UNL     1      -0.089  11.034  19.905  0.00  0.00    +0.000 OA
BRANCH  12  13
ATOM     13  C   UNL     1      -1.368  11.188  19.411  0.00  0.00    +0.000 A 
ATOM     14  C   UNL     1      -2.281  12.147  19.856  0.00  0.00    +0.000 A 
ATOM     15  C   UNL     1      -3.527  12.242  19.240  0.00  0.00    +0.000 A 
ATOM     16  C   UNL     1      -3.837  11.339  18.237  0.00  0.00    +0.000 A 
ATOM     17  N   UNL     1      -2.998  10.364  17.819  0.00  0.00    +0.000 NA
ATOM     18  C   UNL     1      -1.785  10.309  18.422  0.00  0.00    +0.000 A 
ENDBRANCH  12  13
ENDBRANCH  11  12
ENDBRANCH   1   8
BRANCH   2  19
ATOM     19  C   UNL     1       4.413   4.900  17.439  0.00  0.00    +0.000 C 
ATOM     20  C   UNL     1       4.693   4.786  15.923  0.00  0.00    +0.000 C 
ATOM     21  C   UNL     1       5.843   3.814  15.740  0.00  0.00    +0.000 C 
ATOM     22  C   UNL     1       6.954   4.425  16.180  0.00  0.00    +0.000 C 
ATOM     23  C   UNL     1       6.550   5.787  16.679  0.00  0.00    +0.000 C 
ATOM     24  C   UNL     1       5.454   6.084  15.645  0.00  0.00    +0.000 C 
ATOM     25  C   UNL     1       5.689   5.660  17.953  0.00  0.00    +0.000 C 
BRANCH  25  26
ATOM     26  C   UNL     1       6.292   4.946  19.139  0.00  0.00    +0.000 C 
ATOM     27  O   UNL     1       7.134   5.400  19.896  0.00  0.00    +0.000 OA
BRANCH  26  28
ATOM     28  O   UNL     1       5.764   3.705  19.305  0.00  0.00    +0.000 OA
ATOM     29  H   UNL     1       6.360   3.078  19.777  0.00  0.00    +0.000 HD
ENDBRANCH  26  28
ENDBRANCH  25  26
ENDBRANCH   2  19
TORSDOF 6
ENDMDL
MODEL 4
REMARK VINA RESULT:      -7.8      5.548      8.613
REMARK  Name = 
REMARK  7 active torsions:
REMARK  status: ('A' for Active; 'I' for Inactive)
REMARK    1  A    between atoms: C_1  and  C_2
REMARK    2  A    between atoms: C_4  and  N_5
REMARK    3  A    between atoms: C_6  and  C_8
REMARK    4  A    between atoms: C_14  and  C_15
REMARK    5  A    between atoms: C_15  and  O_17
REMARK    6  A    between atoms: C_20  and  O_21
REMARK    7  A    between atoms: O_21  and  C_22
REMARK                            x       y       z     vdW  Elec       q    Type
REMARK                         _______ _______ _______ _____ _____    ______ ____
ROOT
ATOM      1  N   UNL     1       8.791   8.413  18.783  0.00  0.00    +0.000 N 
ATOM      2  C   UNL     1       8.725   9.733  18.401  0.00  0.00    +0.000 C 
ATOM      3  O   UNL     1       7.795  10.259  17.783  0.00  0.00    +0.000 OA
ATOM      4  H   UNL     1       9.575   8.125  19.347  0.00  0.00    +0.000 HD
ENDROOT
BRANCH   1   8
ATOM      5  C   UNL     1       5.244   6.615  15.787  0.00  0.00    +0.000 C 
ATOM      6  C   UNL     1       6.170   6.418  16.954  0.00  0.00    +0.000 A 
ATOM      7  C   UNL     1       6.986   7.496  17.350  0.00  0.00    +0.000 A 
ATOM      8  C   UNL     1       7.889   7.387  18.409  0.00  0.00    +0.000 A 
ATOM      9  C   UNL     1       7.918   6.202  19.141  0.00  0.00    +0.000 A 
ATOM     10  C   UNL     1       7.115   5.121  18.765  0.00  0.00    +0.000 A 
ATOM     11  C   UNL     1       6.303   5.196  17.624  0.00  0.00    +0.000 A 
BRANCH  11  12
ATOM     12  O   UNL     1       5.607   4.104  17.147  0.00  0.00    +0.000 OA
BRANCH  12  13
ATOM     13  C   UNL     1       4.410   3.773  17.750  0.00  0.00    +0.000 A 
ATOM     14  C   UNL     1       3.149   4.062  17.223  0.00  0.00    +0.000 A 
ATOM     15  C   UNL     1       2.010   3.625  17.897  0.00  0.00    +0.000 A 
ATOM     16  C   UNL     1       2.172   2.963  19.102  0.00  0.00    +0.000 A 
ATOM     17  N   UNL     1       3.375   2.714  19.667  0.00  0.00    +0.000 NA
ATOM     18  C   UNL     1       4.465   3.131  18.979  0.00  0.00    +0.000 A 
ENDBRANCH  12  13
ENDBRANCH  11  12
ENDBRANCH   1   8
BRANCH   2  19
ATOM     19  C   UNL     1       9.842  10.626  18.921  0.00  0.00    +0.000 C 
ATOM     20  C   UNL     1      10.742  11.309  17.865  0.00  0.00    +0.000 C 
ATOM     21  C   UNL     1      11.879  11.990  18.601  0.00  0.00    +0.000 C 
ATOM     22  C   UNL     1      11.360  13.047  19.244  0.00  0.00    +0.000 C 
ATOM     23  C   UNL     1       9.880  13.061  18.964  0.00  0.00    +0.000 C 
ATOM     24  C   UNL     1       9.926  12.555  17.514  0.00  0.00    +0.000 C 
ATOM     25  C   UNL     1       9.191  11.860  19.645  0.00  0.00    +0.000 C 
BRANCH  25  26
ATOM     26  C   UNL     1       9.328  11.730  21.144  0.00  0.00    +0.000 C 
ATOM     27  O   UNL     1       9.395  12.653  21.938  0.00  0.00    +0.000 OA
BRANCH  26  28
ATOM     28  O   UNL     1       9.343  10.430  21.540  0.00  0.00    +0.000 OA
ATOM     29  H   UNL     1       9.487   9.792  20.803  0.00  0.00    +0.000 HD
ENDBRANCH  26  28
ENDBRANCH  25  26
ENDBRANCH   2  19
TORSDOF 6
ENDMDL
MODEL 5
REMARK VINA RESULT:      -7.6      2.535      3.638
REMARK  Name = 
REMARK  7 active torsions:
REMARK  status: ('A' for Active; 'I' for Inactive)
REMARK    1  A    between atoms: C_1  and  C_2
REMARK    2  A    between atoms: C_4  and  N_5
REMARK    3  A    between atoms: C_6  and  C_8
REMARK    4  A    between atoms: C_14  and  C_15
REMARK    5  A    between atoms: C_15  and  O_17
REMARK    6  A    between atoms: C_20  and  O_21
REMARK    7  A    between atoms: O_21  and  C_22
REMARK                            x       y       z     vdW  Elec       q    Type
REMARK                         _______ _______ _______ _____ _____    ______ ____
ROOT
ATOM      1  N   UNL     1       1.767   6.782  20.360  0.00  0.00    +0.000 N 
ATOM      2  C   UNL     1       2.657   6.295  19.431  0.00  0.00    +0.000 C 
ATOM      3  O   UNL     1       3.451   6.971  18.771  0.00  0.00    +0.000 OA
ATOM      4  H   UNL     1       1.222   6.116  20.884  0.00  0.00    +0.000 HD
ENDROOT
BRANCH   1   8
ATOM      5  C   UNL     1       0.822  11.407  18.778  0.00  0.00    +0.000 C 
ATOM      6  C   UNL     1       0.979  10.439  19.917  0.00  0.00    +0.000 A 
ATOM      7  C   UNL     1       1.346   9.111  19.621  0.00  0.00    +0.000 A 
ATOM      8  C   UNL     1       1.489   8.146  20.619  0.00  0.00    +0.000 A 
ATOM      9  C   UNL     1       1.344   8.536  21.950  0.00  0.00    +0.000 A 
ATOM     10  C   UNL     1       0.983   9.850  22.264  0.00  0.00    +0.000 A 
ATOM     11  C   UNL     1       0.717  10.781  21.250  0.00  0.00    +0.000 A 
BRANCH  11  12
ATOM     12  O   UNL     1       0.225  12.041  21.521  0.00  0.00    +0.000 OA
BRANCH  12  13
ATOM     13  C   UNL     1      -1.107  12.168  21.859  0.00  0.00    +0.000 A 
ATOM     14  C   UNL     1      -1.628  11.937  23.134  0.00  0.00    +0.000 A 
ATOM     15  C   UNL     1      -2.985  12.154  23.368  0.00  0.00    +0.000 A 
ATOM     16  C   UNL     1      -3.782  12.542  22.304  0.00  0.00    +0.000 A 
ATOM     17  N   UNL     1      -3.321  12.723  21.046  0.00  0.00    +0.000 NA
ATOM     18  C   UNL     1      -1.994  12.526  20.853  0.00  0.00    +0.000 A 
ENDBRANCH  12  13
ENDBRANCH  11  12
ENDBRANCH   1   8
BRANCH   2  19
ATOM     19  C   UNL     1       2.743   4.779  19.332  0.00  0.00    +0.000 C 
ATOM     20  C   UNL     1       1.421   4.017  19.084  0.00  0.00    +0.000 C 
ATOM     21  C   UNL     1       1.715   2.535  19.202  0.00  0.00    +0.000 C 
ATOM     22  C   UNL     1       2.440   2.185  18.128  0.00  0.00    +0.000 C 
ATOM     23  C   UNL     1       2.653   3.429  17.307  0.00  0.00    +0.000 C 
ATOM     24  C   UNL     1       1.292   4.097  17.561  0.00  0.00    +0.000 C 
ATOM     25  C   UNL     1       3.578   4.415  18.051  0.00  0.00    +0.000 C 
BRANCH  25  26
ATOM     26  C   UNL     1       4.956   3.930  18.434  0.00  0.00    +0.000 C 
ATOM     27  O   UNL     1       5.336   3.676  19.564  0.00  0.00    +0.000 OA
BRANCH  26  28
ATOM     28  O   UNL     1       5.757   3.772  17.348  0.00  0.00    +0.000 OA
ATOM     29  H   UNL     1       5.872   2.833  17.071  0.00  0.00    +0.000 HD
ENDBRANCH  26  28
ENDBRANCH  25  26
ENDBRANCH   2  19
TORSDOF 6
ENDMDL
MODEL 6
REMARK VINA RESULT:      -7.6      0.892      1.215
REMARK  Name = 
REMARK  7 active torsions:
REMARK  status: ('A' for Active; 'I' for Inactive)
REMARK    1  A    between atoms: C_1  and  C_2
REMARK    2  A    between atoms: C_4  and  N_5
REMARK    3  A    between atoms: C_6  and  C_8
REMARK    4  A    between atoms: C_14  and  C_15
REMARK    5  A    between atoms: C_15  and  O_17
REMARK    6  A    between atoms: C_20  and  O_21
REMARK    7  A    between atoms: O_21  and  C_22
REMARK                            x       y       z     vdW  Elec       q    Type
REMARK                         _______ _______ _______ _____ _____    ______ ____
ROOT
ATOM      1  N   UNL     1       3.253   7.005  18.278  0.00  0.00    +0.000 N 
ATOM      2  C   UNL     1       3.041   5.702  17.892  0.00  0.00    +0.000 C 
ATOM      3  O   UNL     1       1.939   5.165  17.742  0.00  0.00    +0.000 OA
ATOM      4  H   UNL     1       4.203   7.342  18.294  0.00  0.00    +0.000 HD
ENDROOT
BRANCH   1   8
ATOM      5  C   UNL     1       0.451   8.966  21.896  0.00  0.00    +0.000 C 
ATOM      6  C   UNL     1       0.883   8.961  20.456  0.00  0.00    +0.000 A 
ATOM      7  C   UNL     1       1.799   7.977  20.035  0.00  0.00    +0.000 A 
ATOM      8  C   UNL     1       2.267   7.918  18.721  0.00  0.00    +0.000 A 
ATOM      9  C   UNL     1       1.745   8.812  17.788  0.00  0.00    +0.000 A 
ATOM     10  C   UNL     1       0.832   9.794  18.185  0.00  0.00    +0.000 A 
ATOM     11  C   UNL     1       0.464   9.926  19.531  0.00  0.00    +0.000 A 
BRANCH  11  12
ATOM     12  O   UNL     1      -0.322  10.969  19.978  0.00  0.00    +0.000 OA
BRANCH  12  13
ATOM     13  C   UNL     1       0.300  12.110  20.443  0.00  0.00    +0.000 A 
ATOM     14  C   UNL     1      -0.229  12.963  21.413  0.00  0.00    +0.000 A 
ATOM     15  C   UNL     1       0.521  14.057  21.844  0.00  0.00    +0.000 A 
ATOM     16  C   UNL     1       1.749  14.288  21.248  0.00  0.00    +0.000 A 
ATOM     17  N   UNL     1       2.268  13.514  20.269  0.00  0.00    +0.000 NA
ATOM     18  C   UNL     1       1.526  12.445  19.885  0.00  0.00    +0.000 A 
ENDBRANCH  12  13
ENDBRANCH  11  12
ENDBRANCH   1   8
BRANCH   2  19
ATOM     19  C   UNL     1       4.284   4.923  17.487  0.00  0.00    +0.000 C 
ATOM     20  C   UNL     1       4.648   4.915  15.984  0.00  0.00    +0.000 C 
ATOM     21  C   UNL     1       5.797   3.945  15.795  0.00  0.00    +0.000 C 
ATOM     22  C   UNL     1       6.887   4.507  16.339  0.00  0.00    +0.000 C 
ATOM     23  C   UNL     1       6.469   5.834  16.913  0.00  0.00    +0.000 C 
ATOM     24  C   UNL     1       5.435   6.220  15.844  0.00  0.00    +0.000 C 
ATOM     25  C   UNL     1       5.537   5.628  18.125  0.00  0.00    +0.000 C 
BRANCH  25  26
ATOM     26  C   UNL     1       6.066   4.822  19.288  0.00  0.00    +0.000 C 
ATOM     27  O   UNL     1       5.627   3.752  19.674  0.00  0.00    +0.000 OA
BRANCH  26  28
ATOM     28  O   UNL     1       7.141   5.416  19.868  0.00  0.00    +0.000 OA
ATOM     29  H   UNL     1       7.996   4.962  19.682  0.00  0.00    +0.000 HD
ENDBRANCH  26  28
ENDBRANCH  25  26
ENDBRANCH   2  19
TORSDOF 6
ENDMDL
MODEL 7
REMARK VINA RESULT:      -7.6      2.676      4.108
REMARK  Name = 
REMARK  7 active torsions:
REMARK  status: ('A' for Active; 'I' for Inactive)
REMARK    1  A    between atoms: C_1  and  C_2
REMARK    2  A    between atoms: C_4  and  N_5
REMARK    3  A    between atoms: C_6  and  C_8
REMARK    4  A    between atoms: C_14  and  C_15
REMARK    5  A    between atoms: C_15  and  O_17
REMARK    6  A    between atoms: C_20  and  O_21
REMARK    7  A    between atoms: O_21  and  C_22
REMARK                            x       y       z     vdW  Elec       q    Type
REMARK                         _______ _______ _______ _____ _____    ______ ____
ROOT
ATOM      1  N   UNL     1       1.669   7.209  20.888  0.00  0.00    +0.000 N 
ATOM      2  C   UNL     1       2.229   6.472  19.870  0.00  0.00    +0.000 C 
ATOM      3  O   UNL     1       2.479   6.886  18.734  0.00  0.00    +0.000 OA
ATOM      4  H   UNL     1       1.581   6.772  21.792  0.00  0.00    +0.000 HD
ENDROOT
BRANCH   1   8
ATOM      5  C   UNL     1       1.416  11.631  18.613  0.00  0.00    +0.000 C 
ATOM      6  C   UNL     1       0.929  10.704  19.691  0.00  0.00    +0.000 A 
ATOM      7  C   UNL     1       1.547   9.444  19.821  0.00  0.00    +0.000 A 
ATOM      8  C   UNL     1       1.138   8.517  20.781  0.00  0.00    +0.000 A 
ATOM      9  C   UNL     1       0.145   8.889  21.686  0.00  0.00    +0.000 A 
ATOM     10  C   UNL     1      -0.479  10.135  21.575  0.00  0.00    +0.000 A 
ATOM     11  C   UNL     1      -0.150  11.010  20.530  0.00  0.00    +0.000 A 
BRANCH  11  12
ATOM     12  O   UNL     1      -0.842  12.184  20.310  0.00  0.00    +0.000 OA
BRANCH  12  13
ATOM     13  C   UNL     1      -2.111  12.108  19.772  0.00  0.00    +0.000 A 
ATOM     14  C   UNL     1      -2.419  11.518  18.544  0.00  0.00    +0.000 A 
ATOM     15  C   UNL     1      -3.748  11.453  18.132  0.00  0.00    +0.000 A 
ATOM     16  C   UNL     1      -4.717  12.028  18.937  0.00  0.00    +0.000 A 
ATOM     17  N   UNL     1      -4.448  12.654  20.105  0.00  0.00    +0.000 NA
ATOM     18  C   UNL     1      -3.149  12.684  20.491  0.00  0.00    +0.000 A 
ENDBRANCH  12  13
ENDBRANCH  11  12
ENDBRANCH   1   8
BRANCH   2  19
ATOM     19  C   UNL     1       2.696   5.075  20.248  0.00  0.00    +0.000 C 
ATOM     20  C   UNL     1       1.685   4.177  20.999  0.00  0.00    +0.000 C 
ATOM     21  C   UNL     1       2.417   2.920  21.427  0.00  0.00    +0.000 C 
ATOM     22  C   UNL     1       2.653   2.200  20.319  0.00  0.00    +0.000 C 
ATOM     23  C   UNL     1       2.108   2.980  19.153  0.00  0.00    +0.000 C 
ATOM     24  C   UNL     1       0.875   3.581  19.846  0.00  0.00    +0.000 C 
ATOM     25  C   UNL     1       2.938   4.260  18.925  0.00  0.00    +0.000 C 
BRANCH  25  26
ATOM     26  C   UNL     1       4.416   4.100  18.662  0.00  0.00    +0.000 C 
ATOM     27  O   UNL     1       5.316   4.630  19.291  0.00  0.00    +0.000 OA
BRANCH  26  28
ATOM     28  O   UNL     1       4.657   3.250  17.629  0.00  0.00    +0.000 OA
ATOM     29  H   UNL     1       4.808   3.704  16.767  0.00  0.00    +0.000 HD
ENDBRANCH  26  28
ENDBRANCH  25  26
ENDBRANCH   2  19
TORSDOF 6
ENDMDL
MODEL 8
REMARK VINA RESULT:      -7.5      1.072      1.500
REMARK  Name = 
REMARK  7 active torsions:
REMARK  status: ('A' for Active; 'I' for Inactive)
REMARK    1  A    between atoms: C_1  and  C_2
REMARK    2  A    between atoms: C_4  and  N_5
REMARK    3  A    between atoms: C_6  and  C_8
REMARK    4  A    between atoms: C_14  and  C_15
REMARK    5  A    between atoms: C_15  and  O_17
REMARK    6  A    between atoms: C_20  and  O_21
REMARK    7  A    between atoms: O_21  and  C_22
REMARK                            x       y       z     vdW  Elec       q    Type
REMARK                         _______ _______ _______ _____ _____    ______ ____
ROOT
ATOM      1  N   UNL     1       3.132   7.085  18.251  0.00  0.00    +0.000 N 
ATOM      2  C   UNL     1       2.898   5.778  17.892  0.00  0.00    +0.000 C 
ATOM      3  O   UNL     1       1.790   5.240  17.815  0.00  0.00    +0.000 OA
ATOM      4  H   UNL     1       4.081   7.423  18.207  0.00  0.00    +0.000 HD
ENDROOT
BRANCH   1   8
ATOM      5  C   UNL     1       0.554   9.085  22.012  0.00  0.00    +0.000 C 
ATOM      6  C   UNL     1       0.897   9.065  20.548  0.00  0.00    +0.000 A 
ATOM      7  C   UNL     1       1.787   8.076  20.083  0.00  0.00    +0.000 A 
ATOM      8  C   UNL     1       2.174   8.003  18.744  0.00  0.00    +0.000 A 
ATOM      9  C   UNL     1       1.595   8.886  17.834  0.00  0.00    +0.000 A 
ATOM     10  C   UNL     1       0.708   9.873  18.276  0.00  0.00    +0.000 A 
ATOM     11  C   UNL     1       0.422  10.019  19.641  0.00  0.00    +0.000 A 
BRANCH  11  12
ATOM     12  O   UNL     1      -0.336  11.066  20.123  0.00  0.00    +0.000 OA
BRANCH  12  13
ATOM     13  C   UNL     1       0.071  12.356  19.847  0.00  0.00    +0.000 A 
ATOM     14  C   UNL     1      -0.578  13.221  18.963  0.00  0.00    +0.000 A 
ATOM     15  C   UNL     1      -0.103  14.523  18.809  0.00  0.00    +0.000 A 
ATOM     16  C   UNL     1       1.035  14.895  19.504  0.00  0.00    +0.000 A 
ATOM     17  N   UNL     1       1.719  14.067  20.326  0.00  0.00    +0.000 NA
ATOM     18  C   UNL     1       1.222  12.814  20.472  0.00  0.00    +0.000 A 
ENDBRANCH  12  13
ENDBRANCH  11  12
ENDBRANCH   1   8
BRANCH   2  19
ATOM     19  C   UNL     1       4.115   4.996  17.421  0.00  0.00    +0.000 C 
ATOM     20  C   UNL     1       5.152   5.760  16.565  0.00  0.00    +0.000 C 
ATOM     21  C   UNL     1       6.168   4.752  16.066  0.00  0.00    +0.000 C 
ATOM     22  C   UNL     1       6.907   4.375  17.121  0.00  0.00    +0.000 C 
ATOM     23  C   UNL     1       6.374   5.105  18.325  0.00  0.00    +0.000 C 
ATOM     24  C   UNL     1       6.013   6.431  17.638  0.00  0.00    +0.000 C 
ATOM     25  C   UNL     1       4.963   4.595  18.684  0.00  0.00    +0.000 C 
BRANCH  25  26
ATOM     26  C   UNL     1       4.804   3.124  18.986  0.00  0.00    +0.000 C 
ATOM     27  O   UNL     1       5.134   2.567  20.019  0.00  0.00    +0.000 OA
BRANCH  26  28
ATOM     28  O   UNL     1       4.206   2.459  17.963  0.00  0.00    +0.000 OA
ATOM     29  H   UNL     1       3.594   1.745  18.256  0.00  0.00    +0.000 HD
ENDBRANCH  26  28
ENDBRANCH  25  26
ENDBRANCH   2  19
TORSDOF 6
ENDMDL
MODEL 9
REMARK VINA RESULT:      -7.5      1.962      8.773
REMARK  Name = 
REMARK  7 active torsions:
REMARK  status: ('A' for Active; 'I' for Inactive)
REMARK    1  A    between atoms: C_1  and  C_2
REMARK    2  A    between atoms: C_4  and  N_5
REMARK    3  A    between atoms: C_6  and  C_8
REMARK    4  A    between atoms: C_14  and  C_15
REMARK    5  A    between atoms: C_15  and  O_17
REMARK    6  A    between atoms: C_20  and  O_21
REMARK    7  A    between atoms: O_21  and  C_22
REMARK                            x       y       z     vdW  Elec       q    Type
REMARK                         _______ _______ _______ _____ _____    ______ ____
ROOT
ATOM      1  N   UNL     1       1.021   9.565  19.569  0.00  0.00    +0.000 N 
ATOM      2  C   UNL     1      -0.011   9.719  20.465  0.00  0.00    +0.000 C 
ATOM      3  O   UNL     1      -0.385   8.876  21.285  0.00  0.00    +0.000 OA
ATOM      4  H   UNL     1       1.272  10.358  19.000  0.00  0.00    +0.000 HD
ENDROOT
BRANCH   1   8
ATOM      5  C   UNL     1       2.306   4.915  20.796  0.00  0.00    +0.000 C 
ATOM      6  C   UNL     1       2.387   6.064  19.832  0.00  0.00    +0.000 A 
ATOM      7  C   UNL     1       1.732   7.266  20.166  0.00  0.00    +0.000 A 
ATOM      8  C   UNL     1       1.739   8.372  19.315  0.00  0.00    +0.000 A 
ATOM      9  C   UNL     1       2.487   8.304  18.140  0.00  0.00    +0.000 A 
ATOM     10  C   UNL     1       3.146   7.121  17.791  0.00  0.00    +0.000 A 
ATOM     11  C   UNL     1       3.029   5.974  18.590  0.00  0.00    +0.000 A 
BRANCH  11  12
ATOM     12  O   UNL     1       3.549   4.756  18.205  0.00  0.00    +0.000 OA
BRANCH  12  13
ATOM     13  C   UNL     1       4.892   4.683  17.891  0.00  0.00    +0.000 A 
ATOM     14  C   UNL     1       5.397   4.488  16.604  0.00  0.00    +0.000 A 
ATOM     15  C   UNL     1       6.776   4.489  16.403  0.00  0.00    +0.000 A 
ATOM     16  C   UNL     1       7.601   4.631  17.506  0.00  0.00    +0.000 A 
ATOM     17  N   UNL     1       7.147   4.769  18.772  0.00  0.00    +0.000 NA
ATOM     18  C   UNL     1       5.802   4.785  18.934  0.00  0.00    +0.000 A 
ENDBRANCH  12  13
ENDBRANCH  11  12
ENDBRANCH   1   8
BRANCH   2  19
ATOM     19  C   UNL     1      -0.634  11.106  20.521  0.00  0.00    +0.000 C 
ATOM     20  C   UNL     1      -0.030  12.105  21.535  0.00  0.00    +0.000 C 
ATOM     21  C   UNL     1      -0.911  13.339  21.544  0.00  0.00    +0.000 C 
ATOM     22  C   UNL     1      -0.716  13.977  20.380  0.00  0.00    +0.000 C 
ATOM     23  C   UNL     1       0.269  13.164  19.582  0.00  0.00    +0.000 C 
ATOM     24  C   UNL     1       1.149  12.680  20.745  0.00  0.00    +0.000 C 
ATOM     25  C   UNL     1      -0.363  11.825  19.149  0.00  0.00    +0.000 C 
BRANCH  25  26
ATOM     26  C   UNL     1      -1.623  11.880  18.319  0.00  0.00    +0.000 C 
ATOM     27  O   UNL     1      -2.711  11.432  18.641  0.00  0.00    +0.000 OA
BRANCH  26  28
ATOM     28  O   UNL     1      -1.426  12.528  17.141  0.00  0.00    +0.000 OA
ATOM     29  H   UNL     1      -2.260  12.764  16.672  0.00  0.00    +0.000 HD
ENDBRANCH  26  28
ENDBRANCH  25  26
ENDBRANCH   2  19
TORSDOF 6
ENDMDL
