MODEL 1
REMARK VINA RESULT:      -8.5      0.000      0.000
REMARK  Name = 
REMARK  5 active torsions:
REMARK  status: ('A' for Active; 'I' for Inactive)
REMARK    1  A    between atoms: C_2  and  C_3
REMARK    2  A    between atoms: N_12  and  C_13
REMARK    3  A    between atoms: C_18  and  C_19
REMARK    4  A    between atoms: C_19  and  O_20
REMARK    5  A    between atoms: O_20  and  C_21
REMARK                            x       y       z     vdW  Elec       q    Type
REMARK                         _______ _______ _______ _____ _____    ______ ____
ROOT
ATOM      1  O   UNL     1       1.994   4.473  17.825  0.00  0.00    +0.000 OA
ATOM      2  C   UNL     1       2.814   5.293  18.232  0.00  0.00    +0.000 C 
ATOM      3  N   UNL     1       4.168   5.070  18.180  0.00  0.00    +0.000 N 
ATOM      4  C   UNL     1       4.891   3.999  17.508  0.00  0.00    +0.000 C 
ATOM      5  C   UNL     1       6.096   4.967  17.533  0.00  0.00    +0.000 C 
ATOM      6  C   UNL     1       5.385   5.651  18.724  0.00  0.00    +0.000 C 
ENDROOT
BRANCH   2   7
ATOM      7  C   UNL     1       2.318   6.590  18.768  0.00  0.00    +0.000 A 
ATOM      8  C   UNL     1       2.179   7.712  17.909  0.00  0.00    +0.000 A 
ATOM      9  C   UNL     1       1.748   8.964  18.399  0.00  0.00    +0.000 A 
ATOM     10  C   UNL     1       1.445   9.048  19.741  0.00  0.00    +0.000 A 
ATOM     11  C   UNL     1       1.608   7.940  20.570  0.00  0.00    +0.000 A 
ATOM     12  C   UNL     1       2.093   6.735  20.136  0.00  0.00    +0.000 A 
ATOM     13  N   UNL     1       1.249   8.279  21.862  0.00  0.00    +0.000 N 
ATOM     14  C   UNL     1       0.874   9.625  21.884  0.00  0.00    +0.000 A 
ATOM     15  O   UNL     1       0.550  10.239  22.882  0.00  0.00    +0.000 OA
ATOM     16  N   UNL     1       0.984  10.101  20.550  0.00  0.00    +0.000 N 
ATOM     17  H   UNL     1       1.263   7.698  22.683  0.00  0.00    +0.000 HD
BRANCH  16  18
ATOM     18  C   UNL     1       0.861  11.473  20.204  0.00  0.00    +0.000 C 
ATOM     19  C   UNL     1      -0.432  11.945  19.581  0.00  0.00    +0.000 C 
ATOM     20  C   UNL     1       0.849  12.032  18.811  0.00  0.00    +0.000 C 
ENDBRANCH  16  18
ENDBRANCH   2   7
BRANCH   5  21
ATOM     21  C   UNL     1       6.259   5.902  16.333  0.00  0.00    +0.000 C 
BRANCH  21  22
ATOM     22  O   UNL     1       7.373   5.473  15.549  0.00  0.00    +0.000 OA
BRANCH  22  23
ATOM     23  C   UNL     1       7.068   4.874  14.351  0.00  0.00    +0.000 A 
ATOM     24  C   UNL     1       6.066   3.922  14.143  0.00  0.00    +0.000 A 
ATOM     25  C   UNL     1       5.840   3.401  12.865  0.00  0.00    +0.000 A 
ATOM     26  C   UNL     1       6.616   3.825  11.789  0.00  0.00    +0.000 A 
ATOM     27  C   UNL     1       7.621   4.766  11.991  0.00  0.00    +0.000 A 
ATOM     28  C   UNL     1       7.846   5.287  13.267  0.00  0.00    +0.000 A 
ENDBRANCH  22  23
ENDBRANCH  21  22
ENDBRANCH   5  21
TORSDOF 5
ENDMDL
MODEL 2
REMARK VINA RESULT:      -8.1      1.230      1.904
REMARK  Name = 
REMARK  5 active torsions:
REMARK  status: ('A' for Active; 'I' for Inactive)
REMARK    1  A    between atoms: C_2  and  C_3
REMARK    2  A    between atoms: N_12  and  C_13
REMARK    3  A    between atoms: C_18  and  C_19
REMARK    4  A    between atoms: C_19  and  O_20
REMARK    5  A    between atoms: O_20  and  C_21
REMARK                            x       y       z     vdW  Elec       q    Type
REMARK                         _______ _______ _______ _____ _____    ______ ____
ROOT
ATOM      1  O   UNL     1       1.783   4.680  17.859  0.00  0.00    +0.000 OA
ATOM      2  C   UNL     1       2.656   5.448  18.261  0.00  0.00    +0.000 C 
ATOM      3  N   UNL     1       3.994   5.150  18.184  0.00  0.00    +0.000 N 
ATOM      4  C   UNL     1       4.644   4.046  17.490  0.00  0.00    +0.000 C 
ATOM      5  C   UNL     1       5.902   4.944  17.505  0.00  0.00    +0.000 C 
ATOM      6  C   UNL     1       5.250   5.656  18.713  0.00  0.00    +0.000 C 
ENDROOT
BRANCH   2   7
ATOM      7  C   UNL     1       2.243   6.767  18.816  0.00  0.00    +0.000 A 
ATOM      8  C   UNL     1       1.942   6.897  20.198  0.00  0.00    +0.000 A 
ATOM      9  C   UNL     1       1.511   8.125  20.743  0.00  0.00    +0.000 A 
ATOM     10  C   UNL     1       1.416   9.200  19.885  0.00  0.00    +0.000 A 
ATOM     11  C   UNL     1       1.696   9.045  18.529  0.00  0.00    +0.000 A 
ATOM     12  C   UNL     1       2.046   7.849  17.961  0.00  0.00    +0.000 A 
ATOM     13  N   UNL     1       1.521  10.256  17.885  0.00  0.00    +0.000 N 
ATOM     14  C   UNL     1       1.098  11.203  18.820  0.00  0.00    +0.000 A 
ATOM     15  O   UNL     1       0.810  12.356  18.559  0.00  0.00    +0.000 OA
ATOM     16  N   UNL     1       1.046  10.542  20.076  0.00  0.00    +0.000 N 
ATOM     17  H   UNL     1       1.641  10.462  16.907  0.00  0.00    +0.000 HD
BRANCH  16  18
ATOM     18  C   UNL     1       0.484  11.132  21.240  0.00  0.00    +0.000 C 
ATOM     19  C   UNL     1      -0.672  10.431  21.916  0.00  0.00    +0.000 C 
ATOM     20  C   UNL     1      -0.861  11.795  21.328  0.00  0.00    +0.000 C 
ENDBRANCH  16  18
ENDBRANCH   2   7
BRANCH   5  21
ATOM     21  C   UNL     1       6.099   5.881  16.310  0.00  0.00    +0.000 C 
BRANCH  21  22
ATOM     22  O   UNL     1       7.256   5.474  15.578  0.00  0.00    +0.000 OA
BRANCH  22  23
ATOM     23  C   UNL     1       7.019   4.881  14.363  0.00  0.00    +0.000 A 
ATOM     24  C   UNL     1       6.060   3.896  14.104  0.00  0.00    +0.000 A 
ATOM     25  C   UNL     1       5.902   3.385  12.813  0.00  0.00    +0.000 A 
ATOM     26  C   UNL     1       6.702   3.852  11.772  0.00  0.00    +0.000 A 
ATOM     27  C   UNL     1       7.664   4.826  12.024  0.00  0.00    +0.000 A 
ATOM     28  C   UNL     1       7.821   5.337  13.314  0.00  0.00    +0.000 A 
ENDBRANCH  22  23
ENDBRANCH  21  22
ENDBRANCH   5  21
TORSDOF 5
ENDMDL
MODEL 3
REMARK VINA RESULT:      -7.9      1.415      2.237
REMARK  Name = 
REMARK  5 active torsions:
REMARK  status: ('A' for Active; 'I' for Inactive)
REMARK    1  A    between atoms: C_2  and  C_3
REMARK    2  A    between atoms: N_12  and  C_13
REMARK    3  A    between atoms: C_18  and  C_19
REMARK    4  A    between atoms: C_19  and  O_20
REMARK    5  A    between atoms: O_20  and  C_21
REMARK                            x       y       z     vdW  Elec       q    Type
REMARK                         _______ _______ _______ _____ _____    ______ ____
ROOT
ATOM      1  O   UNL     1       3.164   3.761  18.686  0.00  0.00    +0.000 OA
ATOM      2  C   UNL     1       3.740   4.839  18.816  0.00  0.00    +0.000 C 
ATOM      3  N   UNL     1       5.082   4.993  18.566  0.00  0.00    +0.000 N 
ATOM      4  C   UNL     1       6.009   4.052  17.952  0.00  0.00    +0.000 C 
ATOM      5  C   UNL     1       6.858   5.301  17.621  0.00  0.00    +0.000 C 
ATOM      6  C   UNL     1       6.121   5.983  18.796  0.00  0.00    +0.000 C 
ENDROOT
BRANCH   2   7
ATOM      7  C   UNL     1       2.942   6.028  19.223  0.00  0.00    +0.000 A 
ATOM      8  C   UNL     1       2.227   6.023  20.450  0.00  0.00    +0.000 A 
ATOM      9  C   UNL     1       1.433   7.121  20.842  0.00  0.00    +0.000 A 
ATOM     10  C   UNL     1       1.397   8.210  19.997  0.00  0.00    +0.000 A 
ATOM     11  C   UNL     1       2.090   8.186  18.788  0.00  0.00    +0.000 A 
ATOM     12  C   UNL     1       2.810   7.106  18.350  0.00  0.00    +0.000 A 
ATOM     13  N   UNL     1       1.890   9.382  18.124  0.00  0.00    +0.000 N 
ATOM     14  C   UNL     1       1.040  10.183  18.889  0.00  0.00    +0.000 A 
ATOM     15  O   UNL     1       0.632  11.280  18.556  0.00  0.00    +0.000 OA
ATOM     16  N   UNL     1       0.743   9.451  20.070  0.00  0.00    +0.000 N 
ATOM     17  H   UNL     1       2.254   9.663  17.229  0.00  0.00    +0.000 HD
BRANCH  16  18
ATOM     18  C   UNL     1      -0.239   9.864  21.011  0.00  0.00    +0.000 C 
ATOM     19  C   UNL     1       0.025  11.109  21.826  0.00  0.00    +0.000 C 
ATOM     20  C   UNL     1      -0.115   9.782  22.505  0.00  0.00    +0.000 C 
ENDBRANCH  16  18
ENDBRANCH   2   7
BRANCH   5  21
ATOM     21  C   UNL     1       6.586   5.988  16.281  0.00  0.00    +0.000 C 
BRANCH  21  22
ATOM     22  O   UNL     1       7.556   5.559  15.325  0.00  0.00    +0.000 OA
BRANCH  22  23
ATOM     23  C   UNL     1       7.062   4.915  14.217  0.00  0.00    +0.000 A 
ATOM     24  C   UNL     1       7.709   4.793  12.984  0.00  0.00    +0.000 A 
ATOM     25  C   UNL     1       7.107   4.091  11.935  0.00  0.00    +0.000 A 
ATOM     26  C   UNL     1       5.853   3.509  12.111  0.00  0.00    +0.000 A 
ATOM     27  C   UNL     1       5.200   3.634  13.334  0.00  0.00    +0.000 A 
ATOM     28  C   UNL     1       5.802   4.335  14.382  0.00  0.00    +0.000 A 
ENDBRANCH  22  23
ENDBRANCH  21  22
ENDBRANCH   5  21
TORSDOF 5
ENDMDL
MODEL 4
REMARK VINA RESULT:      -7.7      1.048      1.507
REMARK  Name = 
REMARK  5 active torsions:
REMARK  status: ('A' for Active; 'I' for Inactive)
REMARK    1  A    between atoms: C_2  and  C_3
REMARK    2  A    between atoms: N_12  and  C_13
REMARK    3  A    between atoms: C_18  and  C_19
REMARK    4  A    between atoms: C_19  and  O_20
REMARK    5  A    between atoms: O_20  and  C_21
REMARK                            x       y       z     vdW  Elec       q    Type
REMARK                         _______ _______ _______ _____ _____    ______ ____
ROOT
ATOM      1  O   UNL     1       1.853   4.419  19.637  0.00  0.00    +0.000 OA
ATOM      2  C   UNL     1       2.665   5.293  19.338  0.00  0.00    +0.000 C 
ATOM      3  N   UNL     1       3.956   5.006  18.969  0.00  0.00    +0.000 N 
ATOM      4  C   UNL     1       4.554   3.711  18.675  0.00  0.00    +0.000 C 
ATOM      5  C   UNL     1       5.598   4.517  17.870  0.00  0.00    +0.000 C 
ATOM      6  C   UNL     1       5.209   5.714  18.767  0.00  0.00    +0.000 C 
ENDROOT
BRANCH   2   7
ATOM      7  C   UNL     1       2.216   6.713  19.343  0.00  0.00    +0.000 A 
ATOM      8  C   UNL     1       2.239   7.474  18.144  0.00  0.00    +0.000 A 
ATOM      9  C   UNL     1       1.856   8.832  18.128  0.00  0.00    +0.000 A 
ATOM     10  C   UNL     1       1.436   9.384  19.320  0.00  0.00    +0.000 A 
ATOM     11  C   UNL     1       1.440   8.625  20.488  0.00  0.00    +0.000 A 
ATOM     12  C   UNL     1       1.875   7.328  20.546  0.00  0.00    +0.000 A 
ATOM     13  N   UNL     1       0.988   9.402  21.539  0.00  0.00    +0.000 N 
ATOM     14  C   UNL     1       0.710  10.685  21.060  0.00  0.00    +0.000 A 
ATOM     15  O   UNL     1       0.340  11.618  21.748  0.00  0.00    +0.000 OA
ATOM     16  N   UNL     1       0.979  10.667  19.665  0.00  0.00    +0.000 N 
ATOM     17  H   UNL     1       0.883   9.140  22.505  0.00  0.00    +0.000 HD
BRANCH  16  18
ATOM     18  C   UNL     1       0.988  11.840  18.864  0.00  0.00    +0.000 C 
ATOM     19  C   UNL     1       2.318  12.366  18.374  0.00  0.00    +0.000 C 
ATOM     20  C   UNL     1       1.474  13.195  19.292  0.00  0.00    +0.000 C 
ENDBRANCH  16  18
ENDBRANCH   2   7
BRANCH   5  21
ATOM     21  C   UNL     1       5.290   4.769  16.392  0.00  0.00    +0.000 C 
BRANCH  21  22
ATOM     22  O   UNL     1       5.784   3.678  15.615  0.00  0.00    +0.000 OA
BRANCH  22  23
ATOM     23  C   UNL     1       6.331   4.006  14.399  0.00  0.00    +0.000 A 
ATOM     24  C   UNL     1       7.283   5.005  14.172  0.00  0.00    +0.000 A 
ATOM     25  C   UNL     1       7.779   5.229  12.884  0.00  0.00    +0.000 A 
ATOM     26  C   UNL     1       7.326   4.460  11.815  0.00  0.00    +0.000 A 
ATOM     27  C   UNL     1       6.371   3.470  12.032  0.00  0.00    +0.000 A 
ATOM     28  C   UNL     1       5.876   3.246  13.319  0.00  0.00    +0.000 A 
ENDBRANCH  22  23
ENDBRANCH  21  22
ENDBRANCH   5  21
TORSDOF 5
ENDMDL
MODEL 5
REMARK VINA RESULT:      -7.4      4.328      6.690
REMARK  Name = 
REMARK  5 active torsions:
REMARK  status: ('A' for Active; 'I' for Inactive)
REMARK    1  A    between atoms: C_2  and  C_3
REMARK    2  A    between atoms: N_12  and  C_13
REMARK    3  A    between atoms: C_18  and  C_19
REMARK    4  A    between atoms: C_19  and  O_20
REMARK    5  A    between atoms: O_20  and  C_21
REMARK                            x       y       z     vdW  Elec       q    Type
REMARK                         _______ _______ _______ _____ _____    ______ ____
ROOT
ATOM      1  O   UNL     1       1.856  12.728  19.322  0.00  0.00    +0.000 OA
ATOM      2  C   UNL     1       1.001  11.850  19.234  0.00  0.00    +0.000 C 
ATOM      3  N   UNL     1       1.216  10.674  18.557  0.00  0.00    +0.000 N 
ATOM      4  C   UNL     1       2.460  10.153  18.009  0.00  0.00    +0.000 C 
ATOM      5  C   UNL     1       1.775   8.770  18.101  0.00  0.00    +0.000 C 
ATOM      6  C   UNL     1       0.439   9.549  18.063  0.00  0.00    +0.000 C 
ENDROOT
BRANCH   2   7
ATOM      7  C   UNL     1      -0.305  12.057  19.920  0.00  0.00    +0.000 A 
ATOM      8  C   UNL     1      -1.411  12.586  19.205  0.00  0.00    +0.000 A 
ATOM      9  C   UNL     1      -2.648  12.829  19.839  0.00  0.00    +0.000 A 
ATOM     10  C   UNL     1      -2.746  12.509  21.177  0.00  0.00    +0.000 A 
ATOM     11  C   UNL     1      -1.642  12.009  21.864  0.00  0.00    +0.000 A 
ATOM     12  C   UNL     1      -0.411  11.832  21.291  0.00  0.00    +0.000 A 
ATOM     13  N   UNL     1      -1.990  11.778  23.182  0.00  0.00    +0.000 N 
ATOM     14  C   UNL     1      -3.324  12.153  23.365  0.00  0.00    +0.000 A 
ATOM     15  O   UNL     1      -3.915  12.117  24.427  0.00  0.00    +0.000 OA
ATOM     16  N   UNL     1      -3.799  12.598  22.103  0.00  0.00    +0.000 N 
ATOM     17  H   UNL     1      -1.411  11.424  23.925  0.00  0.00    +0.000 HD
BRANCH  16  18
ATOM     18  C   UNL     1      -5.059  13.231  21.930  0.00  0.00    +0.000 C 
ATOM     19  C   UNL     1      -6.165  12.459  21.246  0.00  0.00    +0.000 C 
ATOM     20  C   UNL     1      -5.630  13.714  20.627  0.00  0.00    +0.000 C 
ENDBRANCH  16  18
ENDBRANCH   2   7
BRANCH   5  21
ATOM     21  C   UNL     1       1.961   7.990  19.404  0.00  0.00    +0.000 C 
BRANCH  21  22
ATOM     22  O   UNL     1       2.822   6.875  19.168  0.00  0.00    +0.000 OA
BRANCH  22  23
ATOM     23  C   UNL     1       2.224   5.640  19.194  0.00  0.00    +0.000 A 
ATOM     24  C   UNL     1       2.014   4.807  18.091  0.00  0.00    +0.000 A 
ATOM     25  C   UNL     1       1.410   3.557  18.253  0.00  0.00    +0.000 A 
ATOM     26  C   UNL     1       1.008   3.131  19.518  0.00  0.00    +0.000 A 
ATOM     27  C   UNL     1       1.206   3.960  20.620  0.00  0.00    +0.000 A 
ATOM     28  C   UNL     1       1.810   5.209  20.457  0.00  0.00    +0.000 A 
ENDBRANCH  22  23
ENDBRANCH  21  22
ENDBRANCH   5  21
TORSDOF 5
ENDMDL
MODEL 6
REMARK VINA RESULT:      -7.3      4.342      7.030
REMARK  Name = 
REMARK  5 active torsions:
REMARK  status: ('A' for Active; 'I' for Inactive)
REMARK    1  A    between atoms: C_2  and  C_3
REMARK    2  A    between atoms: N_12  and  C_13
REMARK    3  A    between atoms: C_18  and  C_19
REMARK    4  A    between atoms: C_19  and  O_20
REMARK    5  A    between atoms: O_20  and  C_21
REMARK                            x       y       z     vdW  Elec       q    Type
REMARK                         _______ _______ _______ _____ _____    ______ ____
ROOT
ATOM      1  O   UNL     1       1.856  12.815  19.358  0.00  0.00    +0.000 OA
ATOM      2  C   UNL     1       0.986  11.948  19.310  0.00  0.00    +0.000 C 
ATOM      3  N   UNL     1       1.158  10.767  18.631  0.00  0.00    +0.000 N 
ATOM      4  C   UNL     1       2.371  10.227  18.034  0.00  0.00    +0.000 C 
ATOM      5  C   UNL     1       1.673   8.854  18.161  0.00  0.00    +0.000 C 
ATOM      6  C   UNL     1       0.347   9.650  18.175  0.00  0.00    +0.000 C 
ENDROOT
BRANCH   2   7
ATOM      7  C   UNL     1      -0.287  12.175  20.049  0.00  0.00    +0.000 A 
ATOM      8  C   UNL     1      -0.326  12.046  21.462  0.00  0.00    +0.000 A 
ATOM      9  C   UNL     1      -1.527  12.218  22.183  0.00  0.00    +0.000 A 
ATOM     10  C   UNL     1      -2.658  12.539  21.461  0.00  0.00    +0.000 A 
ATOM     11  C   UNL     1      -2.601  12.641  20.072  0.00  0.00    +0.000 A 
ATOM     12  C   UNL     1      -1.466  12.408  19.342  0.00  0.00    +0.000 A 
ATOM     13  N   UNL     1      -3.856  12.961  19.586  0.00  0.00    +0.000 N 
ATOM     14  C   UNL     1      -4.744  13.044  20.661  0.00  0.00    +0.000 A 
ATOM     15  O   UNL     1      -5.937  13.262  20.561  0.00  0.00    +0.000 OA
ATOM     16  N   UNL     1      -3.988  12.792  21.837  0.00  0.00    +0.000 N 
ATOM     17  H   UNL     1      -4.134  13.097  18.629  0.00  0.00    +0.000 HD
BRANCH  16  18
ATOM     18  C   UNL     1      -4.580  12.611  23.115  0.00  0.00    +0.000 C 
ATOM     19  C   UNL     1      -4.950  13.838  23.917  0.00  0.00    +0.000 C 
ATOM     20  C   UNL     1      -3.921  12.881  24.437  0.00  0.00    +0.000 C 
ENDBRANCH  16  18
ENDBRANCH   2   7
BRANCH   5  21
ATOM     21  C   UNL     1       1.903   8.077  19.459  0.00  0.00    +0.000 C 
BRANCH  21  22
ATOM     22  O   UNL     1       2.783   6.982  19.204  0.00  0.00    +0.000 OA
BRANCH  22  23
ATOM     23  C   UNL     1       2.205   5.736  19.205  0.00  0.00    +0.000 A 
ATOM     24  C   UNL     1       2.017   4.919  18.085  0.00  0.00    +0.000 A 
ATOM     25  C   UNL     1       1.433   3.656  18.222  0.00  0.00    +0.000 A 
ATOM     26  C   UNL     1       1.030   3.202  19.476  0.00  0.00    +0.000 A 
ATOM     27  C   UNL     1       1.207   4.014  20.593  0.00  0.00    +0.000 A 
ATOM     28  C   UNL     1       1.791   5.276  20.457  0.00  0.00    +0.000 A 
ENDBRANCH  22  23
ENDBRANCH  21  22
ENDBRANCH   5  21
TORSDOF 5
ENDMDL
MODEL 7
REMARK VINA RESULT:      -7.3      3.635      9.655
REMARK  Name = 
REMARK  5 active torsions:
REMARK  status: ('A' for Active; 'I' for Inactive)
REMARK    1  A    between atoms: C_2  and  C_3
REMARK    2  A    between atoms: N_12  and  C_13
REMARK    3  A    between atoms: C_18  and  C_19
REMARK    4  A    between atoms: C_19  and  O_20
REMARK    5  A    between atoms: O_20  and  C_21
REMARK                            x       y       z     vdW  Elec       q    Type
REMARK                         _______ _______ _______ _____ _____    ______ ____
ROOT
ATOM      1  O   UNL     1       2.327  10.905  17.955  0.00  0.00    +0.000 OA
ATOM      2  C   UNL     1       1.480  10.200  18.500  0.00  0.00    +0.000 C 
ATOM      3  N   UNL     1       0.223  10.661  18.808  0.00  0.00    +0.000 N 
ATOM      4  C   UNL     1      -0.411  11.911  18.413  0.00  0.00    +0.000 C 
ATOM      5  C   UNL     1      -1.743  11.173  18.678  0.00  0.00    +0.000 C 
ATOM      6  C   UNL     1      -0.921  10.243  19.601  0.00  0.00    +0.000 C 
ENDROOT
BRANCH   2   7
ATOM      7  C   UNL     1       1.822   8.783  18.806  0.00  0.00    +0.000 A 
ATOM      8  C   UNL     1       1.490   8.224  20.068  0.00  0.00    +0.000 A 
ATOM      9  C   UNL     1       1.836   6.896  20.397  0.00  0.00    +0.000 A 
ATOM     10  C   UNL     1       2.490   6.156  19.435  0.00  0.00    +0.000 A 
ATOM     11  C   UNL     1       2.825   6.731  18.211  0.00  0.00    +0.000 A 
ATOM     12  C   UNL     1       2.565   8.038  17.892  0.00  0.00    +0.000 A 
ATOM     13  N   UNL     1       3.477   5.795  17.429  0.00  0.00    +0.000 N 
ATOM     14  C   UNL     1       3.593   4.608  18.156  0.00  0.00    +0.000 A 
ATOM     15  O   UNL     1       4.162   3.607  17.765  0.00  0.00    +0.000 OA
ATOM     16  N   UNL     1       2.962   4.832  19.409  0.00  0.00    +0.000 N 
ATOM     17  H   UNL     1       3.845   5.910  16.500  0.00  0.00    +0.000 HD
BRANCH  16  18
ATOM     18  C   UNL     1       3.036   3.914  20.489  0.00  0.00    +0.000 C 
ATOM     19  C   UNL     1       2.211   2.649  20.417  0.00  0.00    +0.000 C 
ATOM     20  C   UNL     1       1.955   3.653  21.499  0.00  0.00    +0.000 C 
ENDBRANCH  16  18
ENDBRANCH   2   7
BRANCH   5  21
ATOM     21  C   UNL     1      -2.366  10.423  17.498  0.00  0.00    +0.000 C 
BRANCH  21  22
ATOM     22  O   UNL     1      -3.308  11.273  16.843  0.00  0.00    +0.000 OA
BRANCH  22  23
ATOM     23  C   UNL     1      -4.572  11.293  17.379  0.00  0.00    +0.000 A 
ATOM     24  C   UNL     1      -5.092  10.365  18.287  0.00  0.00    +0.000 A 
ATOM     25  C   UNL     1      -6.393  10.508  18.777  0.00  0.00    +0.000 A 
ATOM     26  C   UNL     1      -7.184  11.577  18.363  0.00  0.00    +0.000 A 
ATOM     27  C   UNL     1      -6.676  12.500  17.453  0.00  0.00    +0.000 A 
ATOM     28  C   UNL     1      -5.375  12.357  16.964  0.00  0.00    +0.000 A 
ENDBRANCH  22  23
ENDBRANCH  21  22
ENDBRANCH   5  21
TORSDOF 5
ENDMDL
MODEL 8
REMARK VINA RESULT:      -7.2      2.467      5.073
REMARK  Name = 
REMARK  5 active torsions:
REMARK  status: ('A' for Active; 'I' for Inactive)
REMARK    1  A    between atoms: C_2  and  C_3
REMARK    2  A    between atoms: N_12  and  C_13
REMARK    3  A    between atoms: C_18  and  C_19
REMARK    4  A    between atoms: C_19  and  O_20
REMARK    5  A    between atoms: O_20  and  C_21
REMARK                            x       y       z     vdW  Elec       q    Type
REMARK                         _______ _______ _______ _____ _____    ______ ____
ROOT
ATOM      1  O   UNL     1       5.401   7.386  16.541  0.00  0.00    +0.000 OA
ATOM      2  C   UNL     1       4.478   6.738  17.032  0.00  0.00    +0.000 C 
ATOM      3  N   UNL     1       4.380   5.375  16.897  0.00  0.00    +0.000 N 
ATOM      4  C   UNL     1       5.361   4.439  16.364  0.00  0.00    +0.000 C 
ATOM      5  C   UNL     1       4.606   3.373  17.191  0.00  0.00    +0.000 C 
ATOM      6  C   UNL     1       3.394   4.331  17.121  0.00  0.00    +0.000 C 
ENDROOT
BRANCH   2   7
ATOM      7  C   UNL     1       3.450   7.458  17.833  0.00  0.00    +0.000 A 
ATOM      8  C   UNL     1       2.973   6.901  19.049  0.00  0.00    +0.000 A 
ATOM      9  C   UNL     1       1.971   7.543  19.808  0.00  0.00    +0.000 A 
ATOM     10  C   UNL     1       1.491   8.745  19.334  0.00  0.00    +0.000 A 
ATOM     11  C   UNL     1       1.959   9.264  18.128  0.00  0.00    +0.000 A 
ATOM     12  C   UNL     1       2.877   8.627  17.336  0.00  0.00    +0.000 A 
ATOM     13  N   UNL     1       1.322  10.464  17.869  0.00  0.00    +0.000 N 
ATOM     14  C   UNL     1       0.412  10.719  18.898  0.00  0.00    +0.000 A 
ATOM     15  O   UNL     1      -0.339  11.674  18.939  0.00  0.00    +0.000 OA
ATOM     16  N   UNL     1       0.530   9.647  19.822  0.00  0.00    +0.000 N 
ATOM     17  H   UNL     1       1.442  11.072  17.076  0.00  0.00    +0.000 HD
BRANCH  16  18
ATOM     18  C   UNL     1      -0.364   9.460  20.910  0.00  0.00    +0.000 C 
ATOM     19  C   UNL     1       0.097   9.851  22.296  0.00  0.00    +0.000 C 
ATOM     20  C   UNL     1      -0.234   8.424  21.989  0.00  0.00    +0.000 C 
ENDBRANCH  16  18
ENDBRANCH   2   7
BRANCH   5  21
ATOM     21  C   UNL     1       5.086   3.142  18.626  0.00  0.00    +0.000 C 
BRANCH  21  22
ATOM     22  O   UNL     1       4.274   2.140  19.240  0.00  0.00    +0.000 OA
BRANCH  22  23
ATOM     23  C   UNL     1       3.003   2.527  19.585  0.00  0.00    +0.000 A 
ATOM     24  C   UNL     1       1.817   2.034  19.033  0.00  0.00    +0.000 A 
ATOM     25  C   UNL     1       0.579   2.497  19.488  0.00  0.00    +0.000 A 
ATOM     26  C   UNL     1       0.517   3.456  20.496  0.00  0.00    +0.000 A 
ATOM     27  C   UNL     1       1.694   3.958  21.045  0.00  0.00    +0.000 A 
ATOM     28  C   UNL     1       2.931   3.495  20.590  0.00  0.00    +0.000 A 
ENDBRANCH  22  23
ENDBRANCH  21  22
ENDBRANCH   5  21
TORSDOF 5
ENDMDL
MODEL 9
REMARK VINA RESULT:      -7.2      1.564      2.188
REMARK  Name = 
REMARK  5 active torsions:
REMARK  status: ('A' for Active; 'I' for Inactive)
REMARK    1  A    between atoms: C_2  and  C_3
REMARK    2  A    between atoms: N_12  and  C_13
REMARK    3  A    between atoms: C_18  and  C_19
REMARK    4  A    between atoms: C_19  and  O_20
REMARK    5  A    between atoms: O_20  and  C_21
REMARK                            x       y       z     vdW  Elec       q    Type
REMARK                         _______ _______ _______ _____ _____    ______ ____
ROOT
ATOM      1  O   UNL     1       2.020   3.973  19.896  0.00  0.00    +0.000 OA
ATOM      2  C   UNL     1       2.778   4.909  19.648  0.00  0.00    +0.000 C 
ATOM      3  N   UNL     1       4.073   4.720  19.233  0.00  0.00    +0.000 N 
ATOM      4  C   UNL     1       4.731   3.484  18.832  0.00  0.00    +0.000 C 
ATOM      5  C   UNL     1       5.713   4.402  18.069  0.00  0.00    +0.000 C 
ATOM      6  C   UNL     1       5.283   5.508  19.061  0.00  0.00    +0.000 C 
ENDROOT
BRANCH   2   7
ATOM      7  C   UNL     1       2.256   6.299  19.767  0.00  0.00    +0.000 A 
ATOM      8  C   UNL     1       1.477   6.675  20.894  0.00  0.00    +0.000 A 
ATOM      9  C   UNL     1       0.938   7.974  21.013  0.00  0.00    +0.000 A 
ATOM     10  C   UNL     1       1.217   8.870  20.003  0.00  0.00    +0.000 A 
ATOM     11  C   UNL     1       1.966   8.473  18.897  0.00  0.00    +0.000 A 
ATOM     12  C   UNL     1       2.440   7.200  18.721  0.00  0.00    +0.000 A 
ATOM     13  N   UNL     1       2.098   9.541  18.028  0.00  0.00    +0.000 N 
ATOM     14  C   UNL     1       1.410  10.636  18.557  0.00  0.00    +0.000 A 
ATOM     15  O   UNL     1       1.295  11.715  18.007  0.00  0.00    +0.000 OA
ATOM     16  N   UNL     1       0.869  10.216  19.802  0.00  0.00    +0.000 N 
ATOM     17  H   UNL     1       2.578   9.567  17.144  0.00  0.00    +0.000 HD
BRANCH  16  18
ATOM     18  C   UNL     1      -0.050  10.999  20.550  0.00  0.00    +0.000 C 
ATOM     19  C   UNL     1       0.480  12.180  21.331  0.00  0.00    +0.000 C 
ATOM     20  C   UNL     1      -0.162  11.033  22.047  0.00  0.00    +0.000 C 
ENDBRANCH  16  18
ENDBRANCH   2   7
BRANCH   5  21
ATOM     21  C   UNL     1       5.357   4.745  16.621  0.00  0.00    +0.000 C 
BRANCH  21  22
ATOM     22  O   UNL     1       5.689   3.640  15.779  0.00  0.00    +0.000 OA
BRANCH  22  23
ATOM     23  C   UNL     1       6.222   3.957  14.555  0.00  0.00    +0.000 A 
ATOM     24  C   UNL     1       5.830   3.419  13.325  0.00  0.00    +0.000 A 
ATOM     25  C   UNL     1       6.440   3.843  12.141  0.00  0.00    +0.000 A 
ATOM     26  C   UNL     1       7.448   4.804  12.176  0.00  0.00    +0.000 A 
ATOM     27  C   UNL     1       7.849   5.338  13.398  0.00  0.00    +0.000 A 
ATOM     28  C   UNL     1       7.239   4.915  14.581  0.00  0.00    +0.000 A 
ENDBRANCH  22  23
ENDBRANCH  21  22
ENDBRANCH   5  21
TORSDOF 5
ENDMDL
