MODEL 1
REMARK VINA RESULT:      -8.5      0.000      0.000
REMARK  Name = 
REMARK  6 active torsions:
REMARK  status: ('A' for Active; 'I' for Inactive)
REMARK    1  A    between atoms: S_2  and  N_4
REMARK    2  A    between atoms: S_2  and  C_11
REMARK    3  A    between atoms: N_4  and  C_5
REMARK    4  A    between atoms: C_14  and  N_15
REMARK    5  A    between atoms: N_15  and  S_16
REMARK    6  A    between atoms: S_16  and  C_19
REMARK                            x       y       z     vdW  Elec       q    Type
REMARK                         _______ _______ _______ _____ _____    ______ ____
ROOT
ATOM      1  C   UNL     1       1.446   7.863  20.615  0.00  0.00    +0.000 A 
ATOM      2  C   UNL     1       1.360   6.572  21.150  0.00  0.00    +0.000 A 
ATOM      3  C   UNL     1       1.941   5.498  20.466  0.00  0.00    +0.000 A 
ATOM      4  C   UNL     1       2.606   5.727  19.259  0.00  0.00    +0.000 A 
ATOM      5  C   UNL     1       2.653   7.010  18.713  0.00  0.00    +0.000 A 
ATOM      6  C   UNL     1       2.058   8.079  19.381  0.00  0.00    +0.000 A 
ENDROOT
BRANCH   1   8
ATOM      7  O   UNL     1       1.719   9.631  22.510  0.00  0.00    +0.000 OA
ATOM      8  S   UNL     1       0.760   9.250  21.495  0.00  0.00    +0.000 S 
ATOM      9  O   UNL     1      -0.609   8.928  21.835  0.00  0.00    +0.000 OA
BRANCH   8  10
ATOM     10  N   UNL     1       0.781  10.475  20.350  0.00  0.00    +0.000 N 
ATOM     11  H   UNL     1       1.691  10.693  19.949  0.00  0.00    +0.000 HD
BRANCH  10  12
ATOM     12  C   UNL     1      -0.391  10.869  19.660  0.00  0.00    +0.000 A 
ATOM     13  C   UNL     1      -0.763  10.190  18.500  0.00  0.00    +0.000 A 
ATOM     14  C   UNL     1      -1.958  10.513  17.856  0.00  0.00    +0.000 A 
ATOM     15  C   UNL     1      -2.772  11.525  18.364  0.00  0.00    +0.000 A 
ATOM     16  C   UNL     1      -2.390  12.216  19.514  0.00  0.00    +0.000 A 
ATOM     17  C   UNL     1      -1.204  11.879  20.171  0.00  0.00    +0.000 A 
ENDBRANCH  10  12
ENDBRANCH   8  10
ENDBRANCH   1   8
BRANCH   4  18
ATOM     18  N   UNL     1       3.245   4.672  18.557  0.00  0.00    +0.000 N 
ATOM     19  H   UNL     1       3.014   4.548  17.571  0.00  0.00    +0.000 HD
BRANCH  18  20
ATOM     20  S   UNL     1       4.883   4.375  18.833  0.00  0.00    +0.000 S 
ATOM     21  O   UNL     1       5.367   5.440  19.685  0.00  0.00    +0.000 OA
ATOM     22  O   UNL     1       5.024   2.993  19.239  0.00  0.00    +0.000 OA
BRANCH  20  23
ATOM     23  C   UNL     1       5.651   4.567  17.258  0.00  0.00    +0.000 A 
ATOM     24  C   UNL     1       6.950   5.087  17.177  0.00  0.00    +0.000 A 
ATOM     25  C   UNL     1       7.560   5.230  15.929  0.00  0.00    +0.000 A 
ATOM     26  C   UNL     1       6.870   4.852  14.780  0.00  0.00    +0.000 A 
ATOM     27  F   UNL     1       7.466   4.980  13.587  0.00  0.00    +0.000 F 
ATOM     28  C   UNL     1       5.579   4.341  14.865  0.00  0.00    +0.000 A 
ATOM     29  F   UNL     1       4.936   3.961  13.753  0.00  0.00    +0.000 F 
ATOM     30  C   UNL     1       4.964   4.202  16.106  0.00  0.00    +0.000 A 
ATOM     31  F   UNL     1       3.731   3.677  16.170  0.00  0.00    +0.000 F 
ENDBRANCH  20  23
ENDBRANCH  18  20
ENDBRANCH   4  18
TORSDOF 6
ENDMDL
MODEL 2
REMARK VINA RESULT:      -8.4      2.209      2.726
REMARK  Name = 
REMARK  6 active torsions:
REMARK  status: ('A' for Active; 'I' for Inactive)
REMARK    1  A    between atoms: S_2  and  N_4
REMARK    2  A    between atoms: S_2  and  C_11
REMARK    3  A    between atoms: N_4  and  C_5
REMARK    4  A    between atoms: C_14  and  N_15
REMARK    5  A    between atoms: N_15  and  S_16
REMARK    6  A    between atoms: S_16  and  C_19
REMARK                            x       y       z     vdW  Elec       q    Type
REMARK                         _______ _______ _______ _____ _____    ______ ____
ROOT
ATOM      1  C   UNL     1       1.063   9.128  19.264  0.00  0.00    +0.000 A 
ATOM      2  C   UNL     1       0.945   8.505  20.512  0.00  0.00    +0.000 A 
ATOM      3  C   UNL     1       1.713   7.369  20.794  0.00  0.00    +0.000 A 
ATOM      4  C   UNL     1       2.592   6.873  19.829  0.00  0.00    +0.000 A 
ATOM      5  C   UNL     1       2.674   7.476  18.574  0.00  0.00    +0.000 A 
ATOM      6  C   UNL     1       1.897   8.596  18.281  0.00  0.00    +0.000 A 
ENDROOT
BRANCH   1   8
ATOM      7  O   UNL     1       1.087  11.627  18.522  0.00  0.00    +0.000 OA
ATOM      8  S   UNL     1       0.136  10.605  18.904  0.00  0.00    +0.000 S 
ATOM      9  O   UNL     1      -0.803  10.815  19.984  0.00  0.00    +0.000 OA
BRANCH   8  10
ATOM     10  N   UNL     1      -0.699  10.199  17.506  0.00  0.00    +0.000 N 
ATOM     11  H   UNL     1      -0.366   9.372  17.015  0.00  0.00    +0.000 HD
BRANCH  10  12
ATOM     12  C   UNL     1      -2.011  10.669  17.261  0.00  0.00    +0.000 A 
ATOM     13  C   UNL     1      -2.561  10.530  15.987  0.00  0.00    +0.000 A 
ATOM     14  C   UNL     1      -3.882  10.915  15.752  0.00  0.00    +0.000 A 
ATOM     15  C   UNL     1      -4.646  11.454  16.787  0.00  0.00    +0.000 A 
ATOM     16  C   UNL     1      -4.089  11.609  18.056  0.00  0.00    +0.000 A 
ATOM     17  C   UNL     1      -2.774  11.205  18.297  0.00  0.00    +0.000 A 
ENDBRANCH  10  12
ENDBRANCH   8  10
ENDBRANCH   1   8
BRANCH   4  18
ATOM     18  N   UNL     1       3.418   5.749  20.092  0.00  0.00    +0.000 N 
ATOM     19  H   UNL     1       3.628   5.531  21.067  0.00  0.00    +0.000 HD
BRANCH  18  20
ATOM     20  S   UNL     1       3.199   4.338  19.193  0.00  0.00    +0.000 S 
ATOM     21  O   UNL     1       3.462   3.227  20.082  0.00  0.00    +0.000 OA
ATOM     22  O   UNL     1       1.929   4.440  18.506  0.00  0.00    +0.000 OA
BRANCH  20  23
ATOM     23  C   UNL     1       4.482   4.366  17.984  0.00  0.00    +0.000 A 
ATOM     24  C   UNL     1       4.167   4.178  16.632  0.00  0.00    +0.000 A 
ATOM     25  C   UNL     1       5.183   4.209  15.675  0.00  0.00    +0.000 A 
ATOM     26  C   UNL     1       6.499   4.428  16.078  0.00  0.00    +0.000 A 
ATOM     27  F   UNL     1       7.467   4.469  15.153  0.00  0.00    +0.000 F 
ATOM     28  C   UNL     1       6.807   4.609  17.422  0.00  0.00    +0.000 A 
ATOM     29  F   UNL     1       8.074   4.841  17.791  0.00  0.00    +0.000 F 
ATOM     30  C   UNL     1       5.798   4.573  18.380  0.00  0.00    +0.000 A 
ATOM     31  F   UNL     1       6.112   4.783  19.667  0.00  0.00    +0.000 F 
ENDBRANCH  20  23
ENDBRANCH  18  20
ENDBRANCH   4  18
TORSDOF 6
ENDMDL
MODEL 3
REMARK VINA RESULT:      -8.4      4.226      8.678
REMARK  Name = 
REMARK  6 active torsions:
REMARK  status: ('A' for Active; 'I' for Inactive)
REMARK    1  A    between atoms: S_2  and  N_4
REMARK    2  A    between atoms: S_2  and  C_11
REMARK    3  A    between atoms: N_4  and  C_5
REMARK    4  A    between atoms: C_14  and  N_15
REMARK    5  A    between atoms: N_15  and  S_16
REMARK    6  A    between atoms: S_16  and  C_19
REMARK                            x       y       z     vdW  Elec       q    Type
REMARK                         _______ _______ _______ _____ _____    ______ ____
ROOT
ATOM      1  C   UNL     1       4.617   5.862  18.583  0.00  0.00    +0.000 A 
ATOM      2  C   UNL     1       3.646   5.971  19.586  0.00  0.00    +0.000 A 
ATOM      3  C   UNL     1       2.544   6.812  19.394  0.00  0.00    +0.000 A 
ATOM      4  C   UNL     1       2.422   7.529  18.202  0.00  0.00    +0.000 A 
ATOM      5  C   UNL     1       3.413   7.445  17.224  0.00  0.00    +0.000 A 
ATOM      6  C   UNL     1       4.523   6.624  17.419  0.00  0.00    +0.000 A 
ENDROOT
BRANCH   1   8
ATOM      7  O   UNL     1       6.843   5.312  19.821  0.00  0.00    +0.000 OA
ATOM      8  S   UNL     1       5.999   4.758  18.785  0.00  0.00    +0.000 S 
ATOM      9  O   UNL     1       6.520   4.454  17.470  0.00  0.00    +0.000 OA
BRANCH   8  10
ATOM     10  N   UNL     1       5.295   3.384  19.442  0.00  0.00    +0.000 N 
ATOM     11  H   UNL     1       5.753   3.002  20.267  0.00  0.00    +0.000 HD
BRANCH  10  12
ATOM     12  C   UNL     1       3.949   3.038  19.174  0.00  0.00    +0.000 A 
ATOM     13  C   UNL     1       3.554   2.790  17.860  0.00  0.00    +0.000 A 
ATOM     14  C   UNL     1       2.251   2.370  17.591  0.00  0.00    +0.000 A 
ATOM     15  C   UNL     1       1.339   2.212  18.634  0.00  0.00    +0.000 A 
ATOM     16  C   UNL     1       1.730   2.478  19.947  0.00  0.00    +0.000 A 
ATOM     17  C   UNL     1       3.039   2.880  20.219  0.00  0.00    +0.000 A 
ENDBRANCH  10  12
ENDBRANCH   8  10
ENDBRANCH   1   8
BRANCH   4  18
ATOM     18  N   UNL     1       1.297   8.359  17.952  0.00  0.00    +0.000 N 
ATOM     19  H   UNL     1       0.389   7.907  17.834  0.00  0.00    +0.000 HD
BRANCH  18  20
ATOM     20  S   UNL     1       1.142   9.811  18.798  0.00  0.00    +0.000 S 
ATOM     21  O   UNL     1       1.200   9.486  20.207  0.00  0.00    +0.000 OA
ATOM     22  O   UNL     1       2.074  10.761  18.228  0.00  0.00    +0.000 OA
BRANCH  20  23
ATOM     23  C   UNL     1      -0.494  10.367  18.449  0.00  0.00    +0.000 A 
ATOM     24  C   UNL     1      -1.231   9.757  17.426  0.00  0.00    +0.000 A 
ATOM     25  C   UNL     1      -2.531  10.193  17.157  0.00  0.00    +0.000 A 
ATOM     26  C   UNL     1      -3.077  11.228  17.912  0.00  0.00    +0.000 A 
ATOM     27  F   UNL     1      -4.329  11.633  17.657  0.00  0.00    +0.000 F 
ATOM     28  C   UNL     1      -2.339  11.834  18.923  0.00  0.00    +0.000 A 
ATOM     29  F   UNL     1      -2.887  12.813  19.655  0.00  0.00    +0.000 F 
ATOM     30  C   UNL     1      -1.042  11.407  19.191  0.00  0.00    +0.000 A 
ATOM     31  F   UNL     1      -0.359  11.981  20.193  0.00  0.00    +0.000 F 
ENDBRANCH  20  23
ENDBRANCH  18  20
ENDBRANCH   4  18
TORSDOF 6
ENDMDL
MODEL 4
REMARK VINA RESULT:      -8.4      1.221      1.782
REMARK  Name = 
REMARK  6 active torsions:
REMARK  status: ('A' for Active; 'I' for Inactive)
REMARK    1  A    between atoms: S_2  and  N_4
REMARK    2  A    between atoms: S_2  and  C_11
REMARK    3  A    between atoms: N_4  and  C_5
REMARK    4  A    between atoms: C_14  and  N_15
REMARK    5  A    between atoms: N_15  and  S_16
REMARK    6  A    between atoms: S_16  and  C_19
REMARK                            x       y       z     vdW  Elec       q    Type
REMARK                         _______ _______ _______ _____ _____    ______ ____
ROOT
ATOM      1  C   UNL     1       1.463   7.524  20.478  0.00  0.00    +0.000 A 
ATOM      2  C   UNL     1       2.105   7.616  19.238  0.00  0.00    +0.000 A 
ATOM      3  C   UNL     1       2.455   6.447  18.552  0.00  0.00    +0.000 A 
ATOM      4  C   UNL     1       2.156   5.202  19.110  0.00  0.00    +0.000 A 
ATOM      5  C   UNL     1       1.551   5.120  20.364  0.00  0.00    +0.000 A 
ATOM      6  C   UNL     1       1.218   6.281  21.060  0.00  0.00    +0.000 A 
ENDROOT
BRANCH   1   8
ATOM      7  O   UNL     1       2.006   9.316  22.292  0.00  0.00    +0.000 OA
ATOM      8  S   UNL     1       0.961   8.998  21.343  0.00  0.00    +0.000 S 
ATOM      9  O   UNL     1      -0.412   8.820  21.765  0.00  0.00    +0.000 OA
BRANCH   8  10
ATOM     10  N   UNL     1       1.035  10.180  20.155  0.00  0.00    +0.000 N 
ATOM     11  H   UNL     1       1.947  10.323  19.728  0.00  0.00    +0.000 HD
BRANCH  10  12
ATOM     12  C   UNL     1      -0.125  10.625  19.477  0.00  0.00    +0.000 A 
ATOM     13  C   UNL     1      -0.495  10.014  18.279  0.00  0.00    +0.000 A 
ATOM     14  C   UNL     1      -1.680  10.388  17.643  0.00  0.00    +0.000 A 
ATOM     15  C   UNL     1      -2.485  11.384  18.196  0.00  0.00    +0.000 A 
ATOM     16  C   UNL     1      -2.105  12.007  19.385  0.00  0.00    +0.000 A 
ATOM     17  C   UNL     1      -0.930  11.619  20.033  0.00  0.00    +0.000 A 
ENDBRANCH  10  12
ENDBRANCH   8  10
ENDBRANCH   1   8
BRANCH   4  18
ATOM     18  N   UNL     1       2.456   3.996  18.426  0.00  0.00    +0.000 N 
ATOM     19  H   UNL     1       2.190   3.927  17.443  0.00  0.00    +0.000 HD
BRANCH  18  20
ATOM     20  S   UNL     1       3.941   3.241  18.701  0.00  0.00    +0.000 S 
ATOM     21  O   UNL     1       4.084   3.105  20.135  0.00  0.00    +0.000 OA
ATOM     22  O   UNL     1       4.014   2.077  17.846  0.00  0.00    +0.000 OA
BRANCH  20  23
ATOM     23  C   UNL     1       5.149   4.403  18.156  0.00  0.00    +0.000 A 
ATOM     24  C   UNL     1       5.974   5.038  19.093  0.00  0.00    +0.000 A 
ATOM     25  C   UNL     1       6.937   5.952  18.658  0.00  0.00    +0.000 A 
ATOM     26  C   UNL     1       7.065   6.219  17.297  0.00  0.00    +0.000 A 
ATOM     27  F   UNL     1       7.999   7.086  16.886  0.00  0.00    +0.000 F 
ATOM     28  C   UNL     1       6.239   5.589  16.371  0.00  0.00    +0.000 A 
ATOM     29  F   UNL     1       6.390   5.839  15.063  0.00  0.00    +0.000 F 
ATOM     30  C   UNL     1       5.274   4.682  16.800  0.00  0.00    +0.000 A 
ATOM     31  F   UNL     1       4.511   4.061  15.889  0.00  0.00    +0.000 F 
ENDBRANCH  20  23
ENDBRANCH  18  20
ENDBRANCH   4  18
TORSDOF 6
ENDMDL
MODEL 5
REMARK VINA RESULT:      -8.3      2.180      2.781
REMARK  Name = 
REMARK  6 active torsions:
REMARK  status: ('A' for Active; 'I' for Inactive)
REMARK    1  A    between atoms: S_2  and  N_4
REMARK    2  A    between atoms: S_2  and  C_11
REMARK    3  A    between atoms: N_4  and  C_5
REMARK    4  A    between atoms: C_14  and  N_15
REMARK    5  A    between atoms: N_15  and  S_16
REMARK    6  A    between atoms: S_16  and  C_19
REMARK                            x       y       z     vdW  Elec       q    Type
REMARK                         _______ _______ _______ _____ _____    ______ ____
ROOT
ATOM      1  C   UNL     1       0.749   9.628  19.636  0.00  0.00    +0.000 A 
ATOM      2  C   UNL     1       1.542   9.105  18.608  0.00  0.00    +0.000 A 
ATOM      3  C   UNL     1       2.216   7.894  18.800  0.00  0.00    +0.000 A 
ATOM      4  C   UNL     1       2.087   7.217  20.015  0.00  0.00    +0.000 A 
ATOM      5  C   UNL     1       1.328   7.764  21.049  0.00  0.00    +0.000 A 
ATOM      6  C   UNL     1       0.670   8.980  20.869  0.00  0.00    +0.000 A 
ENDROOT
BRANCH   1   8
ATOM      7  O   UNL     1       0.230  11.672  18.106  0.00  0.00    +0.000 OA
ATOM      8  S   UNL     1      -0.159  11.139  19.393  0.00  0.00    +0.000 S 
ATOM      9  O   UNL     1      -0.043  11.927  20.601  0.00  0.00    +0.000 OA
BRANCH   8  10
ATOM     10  N   UNL     1      -1.741  10.608  19.219  0.00  0.00    +0.000 N 
ATOM     11  H   UNL     1      -2.290  10.560  20.074  0.00  0.00    +0.000 HD
BRANCH  10  12
ATOM     12  C   UNL     1      -2.406  10.654  17.970  0.00  0.00    +0.000 A 
ATOM     13  C   UNL     1      -1.963   9.839  16.928  0.00  0.00    +0.000 A 
ATOM     14  C   UNL     1      -2.659   9.814  15.719  0.00  0.00    +0.000 A 
ATOM     15  C   UNL     1      -3.787  10.614  15.546  0.00  0.00    +0.000 A 
ATOM     16  C   UNL     1      -4.220  11.442  16.582  0.00  0.00    +0.000 A 
ATOM     17  C   UNL     1      -3.536  11.453  17.800  0.00  0.00    +0.000 A 
ENDBRANCH  10  12
ENDBRANCH   8  10
ENDBRANCH   1   8
BRANCH   4  18
ATOM     18  N   UNL     1       2.720   5.966  20.234  0.00  0.00    +0.000 N 
ATOM     19  H   UNL     1       2.671   5.565  21.171  0.00  0.00    +0.000 HD
BRANCH  18  20
ATOM     20  S   UNL     1       2.591   4.763  19.057  0.00  0.00    +0.000 S 
ATOM     21  O   UNL     1       2.398   3.509  19.755  0.00  0.00    +0.000 OA
ATOM     22  O   UNL     1       1.629   5.206  18.070  0.00  0.00    +0.000 OA
BRANCH  20  23
ATOM     23  C   UNL     1       4.178   4.704  18.292  0.00  0.00    +0.000 A 
ATOM     24  C   UNL     1       5.266   5.343  18.900  0.00  0.00    +0.000 A 
ATOM     25  C   UNL     1       6.525   5.287  18.297  0.00  0.00    +0.000 A 
ATOM     26  C   UNL     1       6.682   4.596  17.098  0.00  0.00    +0.000 A 
ATOM     27  F   UNL     1       7.894   4.536  16.532  0.00  0.00    +0.000 F 
ATOM     28  C   UNL     1       5.597   3.968  16.496  0.00  0.00    +0.000 A 
ATOM     29  F   UNL     1       5.769   3.287  15.354  0.00  0.00    +0.000 F 
ATOM     30  C   UNL     1       4.339   4.025  17.090  0.00  0.00    +0.000 A 
ATOM     31  F   UNL     1       3.313   3.384  16.510  0.00  0.00    +0.000 F 
ENDBRANCH  20  23
ENDBRANCH  18  20
ENDBRANCH   4  18
TORSDOF 6
ENDMDL
MODEL 6
REMARK VINA RESULT:      -8.2      1.076      1.552
REMARK  Name = 
REMARK  6 active torsions:
REMARK  status: ('A' for Active; 'I' for Inactive)
REMARK    1  A    between atoms: S_2  and  N_4
REMARK    2  A    between atoms: S_2  and  C_11
REMARK    3  A    between atoms: N_4  and  C_5
REMARK    4  A    between atoms: C_14  and  N_15
REMARK    5  A    between atoms: N_15  and  S_16
REMARK    6  A    between atoms: S_16  and  C_19
REMARK                            x       y       z     vdW  Elec       q    Type
REMARK                         _______ _______ _______ _____ _____    ______ ____
ROOT
ATOM      1  C   UNL     1       1.580   8.571  19.662  0.00  0.00    +0.000 A 
ATOM      2  C   UNL     1       1.494   7.536  20.601  0.00  0.00    +0.000 A 
ATOM      3  C   UNL     1       2.005   6.272  20.287  0.00  0.00    +0.000 A 
ATOM      4  C   UNL     1       2.599   6.057  19.041  0.00  0.00    +0.000 A 
ATOM      5  C   UNL     1       2.645   7.082  18.096  0.00  0.00    +0.000 A 
ATOM      6  C   UNL     1       2.120   8.338  18.397  0.00  0.00    +0.000 A 
ENDROOT
BRANCH   1   8
ATOM      7  O   UNL     1       1.303  11.060  18.940  0.00  0.00    +0.000 OA
ATOM      8  S   UNL     1       0.984  10.201  20.060  0.00  0.00    +0.000 S 
ATOM      9  O   UNL     1       1.422  10.518  21.402  0.00  0.00    +0.000 OA
BRANCH   8  10
ATOM     10  N   UNL     1      -0.682  10.011  20.043  0.00  0.00    +0.000 N 
ATOM     11  H   UNL     1      -1.133   9.965  20.954  0.00  0.00    +0.000 HD
BRANCH  10  12
ATOM     12  C   UNL     1      -1.456  10.339  18.904  0.00  0.00    +0.000 A 
ATOM     13  C   UNL     1      -2.303  11.445  18.947  0.00  0.00    +0.000 A 
ATOM     14  C   UNL     1      -3.010  11.827  17.805  0.00  0.00    +0.000 A 
ATOM     15  C   UNL     1      -2.880  11.094  16.627  0.00  0.00    +0.000 A 
ATOM     16  C   UNL     1      -2.045   9.976  16.589  0.00  0.00    +0.000 A 
ATOM     17  C   UNL     1      -1.323   9.605  17.726  0.00  0.00    +0.000 A 
ENDBRANCH  10  12
ENDBRANCH   8  10
ENDBRANCH   1   8
BRANCH   4  18
ATOM     18  N   UNL     1       3.167   4.801  18.702  0.00  0.00    +0.000 N 
ATOM     19  H   UNL     1       2.871   4.366  17.827  0.00  0.00    +0.000 HD
BRANCH  18  20
ATOM     20  S   UNL     1       4.812   4.542  18.977  0.00  0.00    +0.000 S 
ATOM     21  O   UNL     1       5.279   5.633  19.804  0.00  0.00    +0.000 OA
ATOM     22  O   UNL     1       4.980   3.171  19.412  0.00  0.00    +0.000 OA
BRANCH  20  23
ATOM     23  C   UNL     1       5.570   4.714  17.395  0.00  0.00    +0.000 A 
ATOM     24  C   UNL     1       6.824   5.329  17.290  0.00  0.00    +0.000 A 
ATOM     25  C   UNL     1       7.428   5.458  16.036  0.00  0.00    +0.000 A 
ATOM     26  C   UNL     1       6.775   4.970  14.907  0.00  0.00    +0.000 A 
ATOM     27  F   UNL     1       7.365   5.085  13.710  0.00  0.00    +0.000 F 
ATOM     28  C   UNL     1       5.527   4.365  15.016  0.00  0.00    +0.000 A 
ATOM     29  F   UNL     1       4.921   3.881  13.923  0.00  0.00    +0.000 F 
ATOM     30  C   UNL     1       4.919   4.240  16.262  0.00  0.00    +0.000 A 
ATOM     31  F   UNL     1       3.731   3.624  16.351  0.00  0.00    +0.000 F 
ENDBRANCH  20  23
ENDBRANCH  18  20
ENDBRANCH   4  18
TORSDOF 6
ENDMDL
MODEL 7
REMARK VINA RESULT:      -8.2      2.077      2.845
REMARK  Name = 
REMARK  6 active torsions:
REMARK  status: ('A' for Active; 'I' for Inactive)
REMARK    1  A    between atoms: S_2  and  N_4
REMARK    2  A    between atoms: S_2  and  C_11
REMARK    3  A    between atoms: N_4  and  C_5
REMARK    4  A    between atoms: C_14  and  N_15
REMARK    5  A    between atoms: N_15  and  S_16
REMARK    6  A    between atoms: S_16  and  C_19
REMARK                            x       y       z     vdW  Elec       q    Type
REMARK                         _______ _______ _______ _____ _____    ______ ____
ROOT
ATOM      1  C   UNL     1       1.110   9.243  19.682  0.00  0.00    +0.000 A 
ATOM      2  C   UNL     1       1.850   8.811  18.575  0.00  0.00    +0.000 A 
ATOM      3  C   UNL     1       2.554   7.603  18.641  0.00  0.00    +0.000 A 
ATOM      4  C   UNL     1       2.507   6.840  19.810  0.00  0.00    +0.000 A 
ATOM      5  C   UNL     1       1.799   7.297  20.922  0.00  0.00    +0.000 A 
ATOM      6  C   UNL     1       1.113   8.508  20.867  0.00  0.00    +0.000 A 
ENDROOT
BRANCH   1   8
ATOM      7  O   UNL     1       1.089  11.847  19.783  0.00  0.00    +0.000 OA
ATOM      8  S   UNL     1       0.164  10.749  19.600  0.00  0.00    +0.000 S 
ATOM      9  O   UNL     1      -0.996  10.592  20.449  0.00  0.00    +0.000 OA
BRANCH   8  10
ATOM     10  N   UNL     1      -0.317  10.809  17.994  0.00  0.00    +0.000 N 
ATOM     11  H   UNL     1       0.384  10.535  17.310  0.00  0.00    +0.000 HD
BRANCH  10  12
ATOM     12  C   UNL     1      -1.685  10.798  17.628  0.00  0.00    +0.000 A 
ATOM     13  C   UNL     1      -2.557  11.717  18.210  0.00  0.00    +0.000 A 
ATOM     14  C   UNL     1      -3.889  11.771  17.798  0.00  0.00    +0.000 A 
ATOM     15  C   UNL     1      -4.352  10.895  16.817  0.00  0.00    +0.000 A 
ATOM     16  C   UNL     1      -3.484   9.963  16.248  0.00  0.00    +0.000 A 
ATOM     17  C   UNL     1      -2.145   9.922  16.645  0.00  0.00    +0.000 A 
ENDBRANCH  10  12
ENDBRANCH   8  10
ENDBRANCH   1   8
BRANCH   4  18
ATOM     18  N   UNL     1       3.171   5.589  19.901  0.00  0.00    +0.000 N 
ATOM     19  H   UNL     1       3.251   5.159  20.823  0.00  0.00    +0.000 HD
BRANCH  18  20
ATOM     20  S   UNL     1       2.894   4.422  18.714  0.00  0.00    +0.000 S 
ATOM     21  O   UNL     1       2.853   3.140  19.385  0.00  0.00    +0.000 OA
ATOM     22  O   UNL     1       1.775   4.862  17.909  0.00  0.00    +0.000 OA
BRANCH  20  23
ATOM     23  C   UNL     1       4.340   4.446  17.707  0.00  0.00    +0.000 A 
ATOM     24  C   UNL     1       4.217   4.379  16.313  0.00  0.00    +0.000 A 
ATOM     25  C   UNL     1       5.363   4.408  15.515  0.00  0.00    +0.000 A 
ATOM     26  C   UNL     1       6.616   4.504  16.117  0.00  0.00    +0.000 A 
ATOM     27  F   UNL     1       7.710   4.543  15.346  0.00  0.00    +0.000 F 
ATOM     28  C   UNL     1       6.733   4.564  17.502  0.00  0.00    +0.000 A 
ATOM     29  F   UNL     1       7.944   4.679  18.065  0.00  0.00    +0.000 F 
ATOM     30  C   UNL     1       5.594   4.530  18.301  0.00  0.00    +0.000 A 
ATOM     31  F   UNL     1       5.727   4.624  19.632  0.00  0.00    +0.000 F 
ENDBRANCH  20  23
ENDBRANCH  18  20
ENDBRANCH   4  18
TORSDOF 6
ENDMDL
MODEL 8
REMARK VINA RESULT:      -8.2      1.165      1.801
REMARK  Name = 
REMARK  6 active torsions:
REMARK  status: ('A' for Active; 'I' for Inactive)
REMARK    1  A    between atoms: S_2  and  N_4
REMARK    2  A    between atoms: S_2  and  C_11
REMARK    3  A    between atoms: N_4  and  C_5
REMARK    4  A    between atoms: C_14  and  N_15
REMARK    5  A    between atoms: N_15  and  S_16
REMARK    6  A    between atoms: S_16  and  C_19
REMARK                            x       y       z     vdW  Elec       q    Type
REMARK                         _______ _______ _______ _____ _____    ______ ____
ROOT
ATOM      1  C   UNL     1       1.515   7.574  20.426  0.00  0.00    +0.000 A 
ATOM      2  C   UNL     1       2.174   7.786  19.210  0.00  0.00    +0.000 A 
ATOM      3  C   UNL     1       2.574   6.690  18.438  0.00  0.00    +0.000 A 
ATOM      4  C   UNL     1       2.307   5.395  18.888  0.00  0.00    +0.000 A 
ATOM      5  C   UNL     1       1.685   5.191  20.120  0.00  0.00    +0.000 A 
ATOM      6  C   UNL     1       1.302   6.280  20.901  0.00  0.00    +0.000 A 
ENDROOT
BRANCH   1   8
ATOM      7  O   UNL     1       1.990   9.258  22.358  0.00  0.00    +0.000 OA
ATOM      8  S   UNL     1       0.950   8.955  21.397  0.00  0.00    +0.000 S 
ATOM      9  O   UNL     1      -0.406   8.679  21.817  0.00  0.00    +0.000 OA
BRANCH   8  10
ATOM     10  N   UNL     1       0.952  10.221  20.296  0.00  0.00    +0.000 N 
ATOM     11  H   UNL     1       1.849  10.437  19.869  0.00  0.00    +0.000 HD
BRANCH  10  12
ATOM     12  C   UNL     1      -0.238  10.658  19.666  0.00  0.00    +0.000 A 
ATOM     13  C   UNL     1      -0.640  10.061  18.472  0.00  0.00    +0.000 A 
ATOM     14  C   UNL     1      -1.851  10.425  17.883  0.00  0.00    +0.000 A 
ATOM     15  C   UNL     1      -2.652  11.398  18.480  0.00  0.00    +0.000 A 
ATOM     16  C   UNL     1      -2.241  12.009  19.665  0.00  0.00    +0.000 A 
ATOM     17  C   UNL     1      -1.039  11.630  20.266  0.00  0.00    +0.000 A 
ENDBRANCH  10  12
ENDBRANCH   8  10
ENDBRANCH   1   8
BRANCH   4  18
ATOM     18  N   UNL     1       2.658   4.258  18.114  0.00  0.00    +0.000 N 
ATOM     19  H   UNL     1       2.467   4.287  17.112  0.00  0.00    +0.000 HD
BRANCH  18  20
ATOM     20  S   UNL     1       4.118   3.470  18.425  0.00  0.00    +0.000 S 
ATOM     21  O   UNL     1       4.618   3.990  19.680  0.00  0.00    +0.000 OA
ATOM     22  O   UNL     1       3.902   2.049  18.258  0.00  0.00    +0.000 OA
BRANCH  20  23
ATOM     23  C   UNL     1       5.209   4.015  17.152  0.00  0.00    +0.000 A 
ATOM     24  C   UNL     1       5.238   3.338  15.926  0.00  0.00    +0.000 A 
ATOM     25  C   UNL     1       6.097   3.777  14.915  0.00  0.00    +0.000 A 
ATOM     26  C   UNL     1       6.912   4.884  15.140  0.00  0.00    +0.000 A 
ATOM     27  F   UNL     1       7.723   5.307  14.161  0.00  0.00    +0.000 F 
ATOM     28  C   UNL     1       6.882   5.549  16.360  0.00  0.00    +0.000 A 
ATOM     29  F   UNL     1       7.656   6.626  16.553  0.00  0.00    +0.000 F 
ATOM     30  C   UNL     1       6.033   5.112  17.373  0.00  0.00    +0.000 A 
ATOM     31  F   UNL     1       5.995   5.788  18.531  0.00  0.00    +0.000 F 
ENDBRANCH  20  23
ENDBRANCH  18  20
ENDBRANCH   4  18
TORSDOF 6
ENDMDL
MODEL 9
REMARK VINA RESULT:      -8.2      2.131      2.731
REMARK  Name = 
REMARK  6 active torsions:
REMARK  status: ('A' for Active; 'I' for Inactive)
REMARK    1  A    between atoms: S_2  and  N_4
REMARK    2  A    between atoms: S_2  and  C_11
REMARK    3  A    between atoms: N_4  and  C_5
REMARK    4  A    between atoms: C_14  and  N_15
REMARK    5  A    between atoms: N_15  and  S_16
REMARK    6  A    between atoms: S_16  and  C_19
REMARK                            x       y       z     vdW  Elec       q    Type
REMARK                         _______ _______ _______ _____ _____    ______ ____
ROOT
ATOM      1  C   UNL     1       1.428   9.136  19.244  0.00  0.00    +0.000 A 
ATOM      2  C   UNL     1       1.170   8.483  20.454  0.00  0.00    +0.000 A 
ATOM      3  C   UNL     1       1.754   7.237  20.707  0.00  0.00    +0.000 A 
ATOM      4  C   UNL     1       2.592   6.660  19.749  0.00  0.00    +0.000 A 
ATOM      5  C   UNL     1       2.812   7.299  18.529  0.00  0.00    +0.000 A 
ATOM      6  C   UNL     1       2.217   8.532  18.265  0.00  0.00    +0.000 A 
ENDROOT
BRANCH   1   8
ATOM      7  O   UNL     1       1.782  11.550  18.326  0.00  0.00    +0.000 OA
ATOM      8  S   UNL     1       0.738  10.747  18.925  0.00  0.00    +0.000 S 
ATOM      9  O   UNL     1       0.047  11.179  20.120  0.00  0.00    +0.000 OA
BRANCH   8  10
ATOM     10  N   UNL     1      -0.377  10.448  17.707  0.00  0.00    +0.000 N 
ATOM     11  H   UNL     1      -0.065   9.832  16.961  0.00  0.00    +0.000 HD
BRANCH  10  12
ATOM     12  C   UNL     1      -1.764  10.651  17.905  0.00  0.00    +0.000 A 
ATOM     13  C   UNL     1      -2.201  11.790  18.580  0.00  0.00    +0.000 A 
ATOM     14  C   UNL     1      -3.567  12.042  18.710  0.00  0.00    +0.000 A 
ATOM     15  C   UNL     1      -4.495  11.148  18.179  0.00  0.00    +0.000 A 
ATOM     16  C   UNL     1      -4.058   9.999  17.519  0.00  0.00    +0.000 A 
ATOM     17  C   UNL     1      -2.691   9.756  17.371  0.00  0.00    +0.000 A 
ENDBRANCH  10  12
ENDBRANCH   8  10
ENDBRANCH   1   8
BRANCH   4  18
ATOM     18  N   UNL     1       3.237   5.418  19.985  0.00  0.00    +0.000 N 
ATOM     19  H   UNL     1       3.252   5.064  20.942  0.00  0.00    +0.000 HD
BRANCH  18  20
ATOM     20  S   UNL     1       3.027   4.159  18.881  0.00  0.00    +0.000 S 
ATOM     21  O   UNL     1       3.159   2.922  19.621  0.00  0.00    +0.000 OA
ATOM     22  O   UNL     1       1.826   4.431  18.119  0.00  0.00    +0.000 OA
BRANCH  20  23
ATOM     23  C   UNL     1       4.408   4.275  17.792  0.00  0.00    +0.000 A 
ATOM     24  C   UNL     1       4.211   4.175  16.408  0.00  0.00    +0.000 A 
ATOM     25  C   UNL     1       5.305   4.276  15.546  0.00  0.00    +0.000 A 
ATOM     26  C   UNL     1       6.579   4.476  16.074  0.00  0.00    +0.000 A 
ATOM     27  F   UNL     1       7.622   4.585  15.240  0.00  0.00    +0.000 F 
ATOM     28  C   UNL     1       6.769   4.570  17.448  0.00  0.00    +0.000 A 
ATOM     29  F   UNL     1       7.997   4.785  17.939  0.00  0.00    +0.000 F 
ATOM     30  C   UNL     1       5.683   4.464  18.312  0.00  0.00    +0.000 A 
ATOM     31  F   UNL     1       5.883   4.590  19.632  0.00  0.00    +0.000 F 
ENDBRANCH  20  23
ENDBRANCH  18  20
ENDBRANCH   4  18
TORSDOF 6
ENDMDL
