MODEL 1
REMARK VINA RESULT:      -8.0      0.000      0.000
REMARK  Name = 
REMARK  2 active torsions:
REMARK  status: ('A' for Active; 'I' for Inactive)
REMARK    1  A    between atoms: C_7  and  S_8
REMARK    2  A    between atoms: S_8  and  N_11
REMARK                            x       y       z     vdW  Elec       q    Type
REMARK                         _______ _______ _______ _____ _____    ______ ____
ROOT
ATOM      1  S   UNL     1       2.446   4.874  19.520  0.00  0.00    +0.000 S 
ATOM      2  O   UNL     1       1.512   4.394  18.516  0.00  0.00    +0.000 OA
ATOM      3  O   UNL     1       2.697   4.108  20.720  0.00  0.00    +0.000 OA
ENDROOT
BRANCH   1   4
ATOM      4  N   UNL     1       1.993   6.419  19.954  0.00  0.00    +0.000 N 
ATOM      5  C   UNL     1       1.311   6.711  21.232  0.00  0.00    +0.000 C 
ATOM      6  C   UNL     1       0.965   8.237  21.192  0.00  0.00    +0.000 C 
ATOM      7  C   UNL     1       1.654   9.005  22.344  0.00  0.00    +0.000 C 
ATOM      8  C   UNL     1       0.531   9.648  23.156  0.00  0.00    +0.000 C 
ATOM      9  C   UNL     1      -0.705   8.826  22.842  0.00  0.00    +0.000 C 
ATOM     10  C   UNL     1      -0.544   8.494  21.368  0.00  0.00    +0.000 C 
ATOM     11  C   UNL     1       1.448   8.645  19.819  0.00  0.00    +0.000 A 
ATOM     12  C   UNL     1       1.438   9.917  19.251  0.00  0.00    +0.000 A 
ATOM     13  C   UNL     1       1.980  10.085  17.975  0.00  0.00    +0.000 A 
ATOM     14  C   UNL     1       2.514   8.993  17.280  0.00  0.00    +0.000 A 
ATOM     15  C   UNL     1       2.508   7.718  17.852  0.00  0.00    +0.000 A 
ATOM     16  C   UNL     1       1.979   7.560  19.121  0.00  0.00    +0.000 A 
ENDBRANCH   1   4
BRANCH   1  23
ATOM     17  O   UNL     1       7.603   5.178  14.252  0.00  0.00    +0.000 OA
ATOM     18  C   UNL     1       6.942   5.195  15.290  0.00  0.00    +0.000 A 
ATOM     19  N   UNL     1       7.453   5.465  16.533  0.00  0.00    +0.000 N 
ATOM     20  C   UNL     1       6.430   5.372  17.430  0.00  0.00    +0.000 A 
ATOM     21  C   UNL     1       6.421   5.525  18.794  0.00  0.00    +0.000 A 
ATOM     22  C   UNL     1       5.192   5.339  19.438  0.00  0.00    +0.000 A 
ATOM     23  C   UNL     1       4.020   5.057  18.694  0.00  0.00    +0.000 A 
ATOM     24  C   UNL     1       4.073   4.893  17.304  0.00  0.00    +0.000 A 
ATOM     25  C   UNL     1       5.300   5.056  16.701  0.00  0.00    +0.000 A 
ATOM     26  O   UNL     1       5.567   4.938  15.345  0.00  0.00    +0.000 OA
ATOM     27  H   UNL     1       8.423   5.669  16.711  0.00  0.00    +0.000 HD
ENDBRANCH   1  23
TORSDOF 2
ENDMDL
MODEL 2
REMARK VINA RESULT:      -8.0      3.353      4.805
REMARK  Name = 
REMARK  2 active torsions:
REMARK  status: ('A' for Active; 'I' for Inactive)
REMARK    1  A    between atoms: C_7  and  S_8
REMARK    2  A    between atoms: S_8  and  N_11
REMARK                            x       y       z     vdW  Elec       q    Type
REMARK                         _______ _______ _______ _____ _____    ______ ____
ROOT
ATOM      1  S   UNL     1       6.801   5.326  17.522  0.00  0.00    +0.000 S 
ATOM      2  O   UNL     1       7.614   4.302  18.156  0.00  0.00    +0.000 OA
ATOM      3  O   UNL     1       7.179   6.719  17.596  0.00  0.00    +0.000 OA
ENDROOT
BRANCH   1   4
ATOM      4  N   UNL     1       5.237   5.163  18.075  0.00  0.00    +0.000 N 
ATOM      5  C   UNL     1       4.714   3.882  18.595  0.00  0.00    +0.000 C 
ATOM      6  C   UNL     1       3.198   4.130  18.893  0.00  0.00    +0.000 C 
ATOM      7  C   UNL     1       2.872   3.911  20.388  0.00  0.00    +0.000 C 
ATOM      8  C   UNL     1       1.819   2.806  20.436  0.00  0.00    +0.000 C 
ATOM      9  C   UNL     1       1.975   2.054  19.127  0.00  0.00    +0.000 C 
ATOM     10  C   UNL     1       2.288   3.152  18.124  0.00  0.00    +0.000 C 
ATOM     11  C   UNL     1       3.004   5.558  18.434  0.00  0.00    +0.000 A 
ATOM     12  C   UNL     1       1.847   6.329  18.505  0.00  0.00    +0.000 A 
ATOM     13  C   UNL     1       1.897   7.653  18.063  0.00  0.00    +0.000 A 
ATOM     14  C   UNL     1       3.086   8.187  17.550  0.00  0.00    +0.000 A 
ATOM     15  C   UNL     1       4.238   7.401  17.470  0.00  0.00    +0.000 A 
ATOM     16  C   UNL     1       4.185   6.093  17.920  0.00  0.00    +0.000 A 
ENDBRANCH   1   4
BRANCH   1  23
ATOM     17  O   UNL     1       4.479   2.712  11.024  0.00  0.00    +0.000 OA
ATOM     18  C   UNL     1       5.071   3.237  11.967  0.00  0.00    +0.000 A 
ATOM     19  N   UNL     1       6.282   3.873  11.868  0.00  0.00    +0.000 N 
ATOM     20  C   UNL     1       6.625   4.304  13.115  0.00  0.00    +0.000 A 
ATOM     21  C   UNL     1       7.743   4.968  13.555  0.00  0.00    +0.000 A 
ATOM     22  C   UNL     1       7.807   5.253  14.924  0.00  0.00    +0.000 A 
ATOM     23  C   UNL     1       6.736   4.910  15.785  0.00  0.00    +0.000 A 
ATOM     24  C   UNL     1       5.617   4.220  15.300  0.00  0.00    +0.000 A 
ATOM     25  C   UNL     1       5.594   3.929  13.955  0.00  0.00    +0.000 A 
ATOM     26  O   UNL     1       4.586   3.258  13.280  0.00  0.00    +0.000 OA
ATOM     27  H   UNL     1       6.803   3.962  11.011  0.00  0.00    +0.000 HD
ENDBRANCH   1  23
TORSDOF 2
ENDMDL
MODEL 3
REMARK VINA RESULT:      -7.9      3.287      4.868
REMARK  Name = 
REMARK  2 active torsions:
REMARK  status: ('A' for Active; 'I' for Inactive)
REMARK    1  A    between atoms: C_7  and  S_8
REMARK    2  A    between atoms: S_8  and  N_11
REMARK                            x       y       z     vdW  Elec       q    Type
REMARK                         _______ _______ _______ _____ _____    ______ ____
ROOT
ATOM      1  S   UNL     1       5.824   5.336  16.486  0.00  0.00    +0.000 S 
ATOM      2  O   UNL     1       5.475   6.020  15.251  0.00  0.00    +0.000 OA
ATOM      3  O   UNL     1       6.486   4.052  16.456  0.00  0.00    +0.000 OA
ENDROOT
BRANCH   1   4
ATOM      4  N   UNL     1       4.446   5.209  17.416  0.00  0.00    +0.000 N 
ATOM      5  C   UNL     1       3.897   3.903  17.838  0.00  0.00    +0.000 C 
ATOM      6  C   UNL     1       2.559   4.224  18.583  0.00  0.00    +0.000 C 
ATOM      7  C   UNL     1       2.597   3.741  20.051  0.00  0.00    +0.000 C 
ATOM      8  C   UNL     1       1.445   2.750  20.203  0.00  0.00    +0.000 C 
ATOM      9  C   UNL     1       1.154   2.264  18.795  0.00  0.00    +0.000 C 
ATOM     10  C   UNL     1       1.353   3.506  17.943  0.00  0.00    +0.000 C 
ATOM     11  C   UNL     1       2.458   5.726  18.441  0.00  0.00    +0.000 A 
ATOM     12  C   UNL     1       1.479   6.570  18.959  0.00  0.00    +0.000 A 
ATOM     13  C   UNL     1       1.601   7.946  18.749  0.00  0.00    +0.000 A 
ATOM     14  C   UNL     1       2.683   8.460  18.024  0.00  0.00    +0.000 A 
ATOM     15  C   UNL     1       3.654   7.605  17.496  0.00  0.00    +0.000 A 
ATOM     16  C   UNL     1       3.532   6.244  17.717  0.00  0.00    +0.000 A 
ENDBRANCH   1   4
BRANCH   1  23
ATOM     17  O   UNL     1       9.451  11.403  18.601  0.00  0.00    +0.000 OA
ATOM     18  C   UNL     1       8.963  10.283  18.458  0.00  0.00    +0.000 A 
ATOM     19  N   UNL     1       9.231   9.209  19.267  0.00  0.00    +0.000 N 
ATOM     20  C   UNL     1       8.528   8.144  18.787  0.00  0.00    +0.000 A 
ATOM     21  C   UNL     1       8.471   6.843  19.220  0.00  0.00    +0.000 A 
ATOM     22  C   UNL     1       7.657   5.972  18.486  0.00  0.00    +0.000 A 
ATOM     23  C   UNL     1       6.901   6.443  17.385  0.00  0.00    +0.000 A 
ATOM     24  C   UNL     1       6.998   7.776  16.965  0.00  0.00    +0.000 A 
ATOM     25  C   UNL     1       7.826   8.603  17.690  0.00  0.00    +0.000 A 
ATOM     26  O   UNL     1       8.060   9.947  17.442  0.00  0.00    +0.000 OA
ATOM     27  H   UNL     1       9.861   9.238  20.052  0.00  0.00    +0.000 HD
ENDBRANCH   1  23
TORSDOF 2
ENDMDL
MODEL 4
REMARK VINA RESULT:      -7.9      2.361      7.037
REMARK  Name = 
REMARK  2 active torsions:
REMARK  status: ('A' for Active; 'I' for Inactive)
REMARK    1  A    between atoms: C_7  and  S_8
REMARK    2  A    between atoms: S_8  and  N_11
REMARK                            x       y       z     vdW  Elec       q    Type
REMARK                         _______ _______ _______ _____ _____    ______ ____
ROOT
ATOM      1  S   UNL     1       2.622   4.470  18.585  0.00  0.00    +0.000 S 
ATOM      2  O   UNL     1       2.951   3.723  19.787  0.00  0.00    +0.000 OA
ATOM      3  O   UNL     1       1.569   4.021  17.702  0.00  0.00    +0.000 OA
ENDROOT
BRANCH   1   4
ATOM      4  N   UNL     1       4.019   4.668  17.698  0.00  0.00    +0.000 N 
ATOM      5  C   UNL     1       4.084   4.375  16.251  0.00  0.00    +0.000 C 
ATOM      6  C   UNL     1       5.580   4.579  15.840  0.00  0.00    +0.000 C 
ATOM      7  C   UNL     1       5.728   5.688  14.773  0.00  0.00    +0.000 C 
ATOM      8  C   UNL     1       6.379   5.026  13.560  0.00  0.00    +0.000 C 
ATOM      9  C   UNL     1       6.078   3.546  13.709  0.00  0.00    +0.000 C 
ATOM     10  C   UNL     1       6.186   3.312  15.206  0.00  0.00    +0.000 C 
ATOM     11  C   UNL     1       6.237   4.917  17.159  0.00  0.00    +0.000 A 
ATOM     12  C   UNL     1       7.570   5.246  17.391  0.00  0.00    +0.000 A 
ATOM     13  C   UNL     1       7.963   5.572  18.691  0.00  0.00    +0.000 A 
ATOM     14  C   UNL     1       7.034   5.559  19.739  0.00  0.00    +0.000 A 
ATOM     15  C   UNL     1       5.702   5.214  19.500  0.00  0.00    +0.000 A 
ATOM     16  C   UNL     1       5.317   4.902  18.207  0.00  0.00    +0.000 A 
ENDBRANCH   1   4
BRANCH   1  23
ATOM     17  O   UNL     1       1.281  11.726  18.589  0.00  0.00    +0.000 OA
ATOM     18  C   UNL     1       1.417  10.529  18.837  0.00  0.00    +0.000 A 
ATOM     19  N   UNL     1       1.143   9.949  20.049  0.00  0.00    +0.000 N 
ATOM     20  C   UNL     1       1.434   8.621  19.947  0.00  0.00    +0.000 A 
ATOM     21  C   UNL     1       1.358   7.616  20.879  0.00  0.00    +0.000 A 
ATOM     22  C   UNL     1       1.756   6.340  20.460  0.00  0.00    +0.000 A 
ATOM     23  C   UNL     1       2.166   6.112  19.124  0.00  0.00    +0.000 A 
ATOM     24  C   UNL     1       2.244   7.168  18.206  0.00  0.00    +0.000 A 
ATOM     25  C   UNL     1       1.871   8.415  18.653  0.00  0.00    +0.000 A 
ATOM     26  O   UNL     1       1.875   9.585  17.909  0.00  0.00    +0.000 OA
ATOM     27  H   UNL     1       0.810  10.455  20.852  0.00  0.00    +0.000 HD
ENDBRANCH   1  23
TORSDOF 2
ENDMDL
MODEL 5
REMARK VINA RESULT:      -7.9      2.244      7.365
REMARK  Name = 
REMARK  2 active torsions:
REMARK  status: ('A' for Active; 'I' for Inactive)
REMARK    1  A    between atoms: C_7  and  S_8
REMARK    2  A    between atoms: S_8  and  N_11
REMARK                            x       y       z     vdW  Elec       q    Type
REMARK                         _______ _______ _______ _____ _____    ______ ____
ROOT
ATOM      1  S   UNL     1       2.703   4.575  18.764  0.00  0.00    +0.000 S 
ATOM      2  O   UNL     1       3.077   3.947  20.021  0.00  0.00    +0.000 OA
ATOM      3  O   UNL     1       1.644   4.024  17.950  0.00  0.00    +0.000 OA
ENDROOT
BRANCH   1   4
ATOM      4  N   UNL     1       4.076   4.725  17.831  0.00  0.00    +0.000 N 
ATOM      5  C   UNL     1       4.086   4.413  16.386  0.00  0.00    +0.000 C 
ATOM      6  C   UNL     1       5.573   4.572  15.925  0.00  0.00    +0.000 C 
ATOM      7  C   UNL     1       5.716   5.664  14.840  0.00  0.00    +0.000 C 
ATOM      8  C   UNL     1       6.309   4.971  13.615  0.00  0.00    +0.000 C 
ATOM      9  C   UNL     1       5.974   3.501  13.792  0.00  0.00    +0.000 C 
ATOM     10  C   UNL     1       6.124   3.281  15.288  0.00  0.00    +0.000 C 
ATOM     11  C   UNL     1       6.282   4.907  17.218  0.00  0.00    +0.000 A 
ATOM     12  C   UNL     1       7.630   5.203  17.403  0.00  0.00    +0.000 A 
ATOM     13  C   UNL     1       8.073   5.533  18.686  0.00  0.00    +0.000 A 
ATOM     14  C   UNL     1       7.178   5.557  19.763  0.00  0.00    +0.000 A 
ATOM     15  C   UNL     1       5.830   5.245  19.571  0.00  0.00    +0.000 A 
ATOM     16  C   UNL     1       5.395   4.929  18.295  0.00  0.00    +0.000 A 
ENDBRANCH   1   4
BRANCH   1  23
ATOM     17  O   UNL     1       0.382  10.492  22.512  0.00  0.00    +0.000 OA
ATOM     18  C   UNL     1       0.797   9.677  21.688  0.00  0.00    +0.000 A 
ATOM     19  N   UNL     1       1.106   9.975  20.387  0.00  0.00    +0.000 N 
ATOM     20  C   UNL     1       1.509   8.821  19.783  0.00  0.00    +0.000 A 
ATOM     21  C   UNL     1       1.899   8.579  18.489  0.00  0.00    +0.000 A 
ATOM     22  C   UNL     1       2.237   7.258  18.172  0.00  0.00    +0.000 A 
ATOM     23  C   UNL     1       2.218   6.248  19.165  0.00  0.00    +0.000 A 
ATOM     24  C   UNL     1       1.800   6.532  20.472  0.00  0.00    +0.000 A 
ATOM     25  C   UNL     1       1.449   7.834  20.747  0.00  0.00    +0.000 A 
ATOM     26  O   UNL     1       1.010   8.322  21.969  0.00  0.00    +0.000 OA
ATOM     27  H   UNL     1       1.015  10.893  19.982  0.00  0.00    +0.000 HD
ENDBRANCH   1  23
TORSDOF 2
ENDMDL
MODEL 6
REMARK VINA RESULT:      -7.8      3.416      4.957
REMARK  Name = 
REMARK  2 active torsions:
REMARK  status: ('A' for Active; 'I' for Inactive)
REMARK    1  A    between atoms: C_7  and  S_8
REMARK    2  A    between atoms: S_8  and  N_11
REMARK                            x       y       z     vdW  Elec       q    Type
REMARK                         _______ _______ _______ _____ _____    ______ ____
ROOT
ATOM      1  S   UNL     1       0.770   9.117  21.228  0.00  0.00    +0.000 S 
ATOM      2  O   UNL     1      -0.494   8.481  21.559  0.00  0.00    +0.000 OA
ATOM      3  O   UNL     1       1.711   9.473  22.265  0.00  0.00    +0.000 OA
ENDROOT
BRANCH   1   4
ATOM      4  N   UNL     1       0.445  10.470  20.310  0.00  0.00    +0.000 N 
ATOM      5  C   UNL     1       1.083  11.776  20.577  0.00  0.00    +0.000 C 
ATOM      6  C   UNL     1       0.426  12.785  19.577  0.00  0.00    +0.000 C 
ATOM      7  C   UNL     1       1.475  13.407  18.627  0.00  0.00    +0.000 C 
ATOM      8  C   UNL     1       1.411  14.916  18.854  0.00  0.00    +0.000 C 
ATOM      9  C   UNL     1       0.805  15.083  20.236  0.00  0.00    +0.000 C 
ATOM     10  C   UNL     1      -0.232  13.975  20.303  0.00  0.00    +0.000 C 
ATOM     11  C   UNL     1      -0.596  11.924  18.869  0.00  0.00    +0.000 A 
ATOM     12  C   UNL     1      -1.450  12.288  17.832  0.00  0.00    +0.000 A 
ATOM     13  C   UNL     1      -2.292  11.317  17.284  0.00  0.00    +0.000 A 
ATOM     14  C   UNL     1      -2.279  10.006  17.778  0.00  0.00    +0.000 A 
ATOM     15  C   UNL     1      -1.428   9.652  18.828  0.00  0.00    +0.000 A 
ATOM     16  C   UNL     1      -0.590  10.617  19.359  0.00  0.00    +0.000 A 
ENDBRANCH   1   4
BRANCH   1  23
ATOM     17  O   UNL     1       3.892   3.023  18.479  0.00  0.00    +0.000 OA
ATOM     18  C   UNL     1       3.435   4.143  18.702  0.00  0.00    +0.000 A 
ATOM     19  N   UNL     1       3.490   5.196  17.826  0.00  0.00    +0.000 N 
ATOM     20  C   UNL     1       2.903   6.268  18.430  0.00  0.00    +0.000 A 
ATOM     21  C   UNL     1       2.726   7.556  17.989  0.00  0.00    +0.000 A 
ATOM     22  C   UNL     1       2.094   8.440  18.871  0.00  0.00    +0.000 A 
ATOM     23  C   UNL     1       1.624   7.994  20.130  0.00  0.00    +0.000 A 
ATOM     24  C   UNL     1       1.836   6.674  20.550  0.00  0.00    +0.000 A 
ATOM     25  C   UNL     1       2.484   5.835  19.673  0.00  0.00    +0.000 A 
ATOM     26  O   UNL     1       2.790   4.500  19.893  0.00  0.00    +0.000 OA
ATOM     27  H   UNL     1       3.919   5.149  16.916  0.00  0.00    +0.000 HD
ENDBRANCH   1  23
TORSDOF 2
ENDMDL
MODEL 7
REMARK VINA RESULT:      -7.7      3.598      5.084
REMARK  Name = 
REMARK  2 active torsions:
REMARK  status: ('A' for Active; 'I' for Inactive)
REMARK    1  A    between atoms: C_7  and  S_8
REMARK    2  A    between atoms: S_8  and  N_11
REMARK                            x       y       z     vdW  Elec       q    Type
REMARK                         _______ _______ _______ _____ _____    ______ ____
ROOT
ATOM      1  S   UNL     1       0.486   9.250  21.114  0.00  0.00    +0.000 S 
ATOM      2  O   UNL     1      -0.502   8.362  21.704  0.00  0.00    +0.000 OA
ATOM      3  O   UNL     1       1.390  10.007  21.950  0.00  0.00    +0.000 OA
ENDROOT
BRANCH   1   4
ATOM      4  N   UNL     1      -0.307  10.301  20.091  0.00  0.00    +0.000 N 
ATOM      5  C   UNL     1      -1.509   9.903  19.329  0.00  0.00    +0.000 C 
ATOM      6  C   UNL     1      -1.863  11.126  18.419  0.00  0.00    +0.000 C 
ATOM      7  C   UNL     1      -3.270  11.681  18.738  0.00  0.00    +0.000 C 
ATOM      8  C   UNL     1      -4.071  11.579  17.441  0.00  0.00    +0.000 C 
ATOM      9  C   UNL     1      -3.366  10.511  16.624  0.00  0.00    +0.000 C 
ATOM     10  C   UNL     1      -1.896  10.748  16.925  0.00  0.00    +0.000 C 
ATOM     11  C   UNL     1      -0.745  12.097  18.729  0.00  0.00    +0.000 A 
ATOM     12  C   UNL     1      -0.572  13.387  18.236  0.00  0.00    +0.000 A 
ATOM     13  C   UNL     1       0.514  14.138  18.691  0.00  0.00    +0.000 A 
ATOM     14  C   UNL     1       1.414  13.597  19.618  0.00  0.00    +0.000 A 
ATOM     15  C   UNL     1       1.240  12.296  20.097  0.00  0.00    +0.000 A 
ATOM     16  C   UNL     1       0.155  11.561  19.650  0.00  0.00    +0.000 A 
ENDBRANCH   1   4
BRANCH   1  23
ATOM     17  O   UNL     1       4.493   3.607  18.558  0.00  0.00    +0.000 OA
ATOM     18  C   UNL     1       3.874   4.653  18.747  0.00  0.00    +0.000 A 
ATOM     19  N   UNL     1       3.780   5.676  17.839  0.00  0.00    +0.000 N 
ATOM     20  C   UNL     1       3.036   6.667  18.409  0.00  0.00    +0.000 A 
ATOM     21  C   UNL     1       2.675   7.901  17.929  0.00  0.00    +0.000 A 
ATOM     22  C   UNL     1       1.912   8.708  18.782  0.00  0.00    +0.000 A 
ATOM     23  C   UNL     1       1.504   8.234  20.053  0.00  0.00    +0.000 A 
ATOM     24  C   UNL     1       1.905   6.973  20.513  0.00  0.00    +0.000 A 
ATOM     25  C   UNL     1       2.676   6.213  19.663  0.00  0.00    +0.000 A 
ATOM     26  O   UNL     1       3.175   4.946  19.924  0.00  0.00    +0.000 OA
ATOM     27  H   UNL     1       4.217   5.667  16.933  0.00  0.00    +0.000 HD
ENDBRANCH   1  23
TORSDOF 2
ENDMDL
MODEL 8
REMARK VINA RESULT:      -7.6      3.043      4.220
REMARK  Name = 
REMARK  2 active torsions:
REMARK  status: ('A' for Active; 'I' for Inactive)
REMARK    1  A    between atoms: C_7  and  S_8
REMARK    2  A    between atoms: S_8  and  N_11
REMARK                            x       y       z     vdW  Elec       q    Type
REMARK                         _______ _______ _______ _____ _____    ______ ____
ROOT
ATOM      1  S   UNL     1       6.483   5.341  18.095  0.00  0.00    +0.000 S 
ATOM      2  O   UNL     1       7.218   4.306  18.803  0.00  0.00    +0.000 OA
ATOM      3  O   UNL     1       6.957   6.706  18.083  0.00  0.00    +0.000 OA
ENDROOT
BRANCH   1   4
ATOM      4  N   UNL     1       4.908   5.324  18.640  0.00  0.00    +0.000 N 
ATOM      5  C   UNL     1       4.327   4.156  19.336  0.00  0.00    +0.000 C 
ATOM      6  C   UNL     1       2.820   4.505  19.569  0.00  0.00    +0.000 C 
ATOM      7  C   UNL     1       2.469   4.525  21.075  0.00  0.00    +0.000 C 
ATOM      8  C   UNL     1       1.371   3.481  21.268  0.00  0.00    +0.000 C 
ATOM      9  C   UNL     1       1.509   2.537  20.088  0.00  0.00    +0.000 C 
ATOM     10  C   UNL     1       1.878   3.460  18.939  0.00  0.00    +0.000 C 
ATOM     11  C   UNL     1       2.689   5.855  18.900  0.00  0.00    +0.000 A 
ATOM     12  C   UNL     1       1.565   6.674  18.836  0.00  0.00    +0.000 A 
ATOM     13  C   UNL     1       1.673   7.914  18.203  0.00  0.00    +0.000 A 
ATOM     14  C   UNL     1       2.889   8.318  17.637  0.00  0.00    +0.000 A 
ATOM     15  C   UNL     1       4.009   7.484  17.693  0.00  0.00    +0.000 A 
ATOM     16  C   UNL     1       3.897   6.261  18.331  0.00  0.00    +0.000 A 
ENDBRANCH   1   4
BRANCH   1  23
ATOM     17  O   UNL     1       7.708   4.893  10.832  0.00  0.00    +0.000 OA
ATOM     18  C   UNL     1       7.347   4.759  12.001  0.00  0.00    +0.000 A 
ATOM     19  N   UNL     1       6.458   3.811  12.437  0.00  0.00    +0.000 N 
ATOM     20  C   UNL     1       6.293   3.987  13.780  0.00  0.00    +0.000 A 
ATOM     21  C   UNL     1       5.497   3.318  14.676  0.00  0.00    +0.000 A 
ATOM     22  C   UNL     1       5.537   3.762  16.003  0.00  0.00    +0.000 A 
ATOM     23  C   UNL     1       6.400   4.817  16.388  0.00  0.00    +0.000 A 
ATOM     24  C   UNL     1       7.186   5.485  15.440  0.00  0.00    +0.000 A 
ATOM     25  C   UNL     1       7.106   5.044  14.138  0.00  0.00    +0.000 A 
ATOM     26  O   UNL     1       7.798   5.564  13.055  0.00  0.00    +0.000 OA
ATOM     27  H   UNL     1       6.012   3.138  11.836  0.00  0.00    +0.000 HD
ENDBRANCH   1  23
TORSDOF 2
ENDMDL
MODEL 9
REMARK VINA RESULT:      -7.5      4.225      6.141
REMARK  Name = 
REMARK  2 active torsions:
REMARK  status: ('A' for Active; 'I' for Inactive)
REMARK    1  A    between atoms: C_7  and  S_8
REMARK    2  A    between atoms: S_8  and  N_11
REMARK                            x       y       z     vdW  Elec       q    Type
REMARK                         _______ _______ _______ _____ _____    ______ ____
ROOT
ATOM      1  S   UNL     1       0.602  10.579  20.508  0.00  0.00    +0.000 S 
ATOM      2  O   UNL     1       0.272  10.113  21.845  0.00  0.00    +0.000 OA
ATOM      3  O   UNL     1       1.438  11.742  20.318  0.00  0.00    +0.000 OA
ENDROOT
BRANCH   1   4
ATOM      4  N   UNL     1      -0.822  10.796  19.669  0.00  0.00    +0.000 N 
ATOM      5  C   UNL     1      -1.028  10.249  18.311  0.00  0.00    +0.000 C 
ATOM      6  C   UNL     1      -2.429  10.772  17.850  0.00  0.00    +0.000 C 
ATOM      7  C   UNL     1      -3.403   9.605  17.562  0.00  0.00    +0.000 C 
ATOM      8  C   UNL     1      -3.821   9.751  16.100  0.00  0.00    +0.000 C 
ATOM      9  C   UNL     1      -2.720  10.573  15.455  0.00  0.00    +0.000 C 
ATOM     10  C   UNL     1      -2.345  11.573  16.535  0.00  0.00    +0.000 C 
ATOM     11  C   UNL     1      -2.853  11.641  19.012  0.00  0.00    +0.000 A 
ATOM     12  C   UNL     1      -4.052  12.332  19.171  0.00  0.00    +0.000 A 
ATOM     13  C   UNL     1      -4.262  13.045  20.353  0.00  0.00    +0.000 A 
ATOM     14  C   UNL     1      -3.280  13.070  21.352  0.00  0.00    +0.000 A 
ATOM     15  C   UNL     1      -2.075  12.386  21.178  0.00  0.00    +0.000 A 
ATOM     16  C   UNL     1      -1.877  11.672  20.008  0.00  0.00    +0.000 A 
ENDBRANCH   1   4
BRANCH   1  23
ATOM     17  O   UNL     1       3.563   3.948  19.201  0.00  0.00    +0.000 OA
ATOM     18  C   UNL     1       3.136   5.102  19.168  0.00  0.00    +0.000 A 
ATOM     19  N   UNL     1       3.226   5.934  18.082  0.00  0.00    +0.000 N 
ATOM     20  C   UNL     1       2.666   7.128  18.429  0.00  0.00    +0.000 A 
ATOM     21  C   UNL     1       2.529   8.291  17.714  0.00  0.00    +0.000 A 
ATOM     22  C   UNL     1       1.918   9.365  18.373  0.00  0.00    +0.000 A 
ATOM     23  C   UNL     1       1.428   9.219  19.694  0.00  0.00    +0.000 A 
ATOM     24  C   UNL     1       1.601   8.019  20.396  0.00  0.00    +0.000 A 
ATOM     25  C   UNL     1       2.229   6.990  19.732  0.00  0.00    +0.000 A 
ATOM     26  O   UNL     1       2.496   5.729  20.243  0.00  0.00    +0.000 OA
ATOM     27  H   UNL     1       3.658   5.677  17.210  0.00  0.00    +0.000 HD
ENDBRANCH   1  23
TORSDOF 2
ENDMDL
