MODEL 1
REMARK VINA RESULT:      -8.9      0.000      0.000
REMARK  Name = 
REMARK  2 active torsions:
REMARK  status: ('A' for Active; 'I' for Inactive)
REMARK    1  A    between atoms: C_2  and  C_3
REMARK    2  A    between atoms: C_6  and  C_7
REMARK                            x       y       z     vdW  Elec       q    Type
REMARK                         _______ _______ _______ _____ _____    ______ ____
ROOT
ATOM      1  O   UNL     1       6.199   3.965  18.876  0.00  0.00    +0.000 OA
ATOM      2  C   UNL     1       5.690   5.027  18.524  0.00  0.00    +0.000 C 
ATOM      3  N   UNL     1       4.312   5.269  18.367  0.00  0.00    +0.000 N 
ATOM      4  C   UNL     1       3.695   6.473  17.775  0.00  0.00    +0.000 C 
ATOM      5  C   UNL     1       2.930   7.213  18.862  0.00  0.00    +0.000 C 
ATOM      6  O   UNL     1       1.851   6.415  19.353  0.00  0.00    +0.000 OA
ATOM      7  C   UNL     1       2.222   5.118  19.626  0.00  0.00    +0.000 A 
ATOM      8  C   UNL     1       1.406   4.454  20.538  0.00  0.00    +0.000 A 
ATOM      9  C   UNL     1       1.698   3.143  20.880  0.00  0.00    +0.000 A 
ATOM     10  F   UNL     1       0.971   2.530  21.821  0.00  0.00    +0.000 F 
ATOM     11  C   UNL     1       2.743   2.458  20.273  0.00  0.00    +0.000 A 
ATOM     12  C   UNL     1       3.572   3.126  19.371  0.00  0.00    +0.000 A 
ATOM     13  C   UNL     1       3.362   4.480  19.092  0.00  0.00    +0.000 A 
ENDROOT
BRANCH   2  14
ATOM     14  C   UNL     1       6.640   6.120  18.287  0.00  0.00    +0.000 A 
ATOM     15  C   UNL     1       6.421   7.048  17.301  0.00  0.00    +0.000 A 
ATOM     16  N   UNL     1       7.140   8.185  17.198  0.00  0.00    +0.000 NA
ATOM     17  C   UNL     1       8.124   8.364  18.107  0.00  0.00    +0.000 A 
ATOM     18  N   UNL     1       8.530   7.423  18.978  0.00  0.00    +0.000 NA
ATOM     19  C   UNL     1       7.801   6.295  19.001  0.00  0.00    +0.000 A 
BRANCH  17  20
ATOM     20  C   UNL     1       8.661   9.725  18.280  0.00  0.00    +0.000 A 
ATOM     21  C   UNL     1       8.180  10.779  17.484  0.00  0.00    +0.000 A 
ATOM     22  C   UNL     1       8.629  12.087  17.674  0.00  0.00    +0.000 A 
ATOM     23  C   UNL     1       9.570  12.363  18.667  0.00  0.00    +0.000 A 
ATOM     24  C   UNL     1      10.056  11.337  19.471  0.00  0.00    +0.000 A 
ATOM     25  C   UNL     1       9.596  10.034  19.285  0.00  0.00    +0.000 A 
ENDBRANCH  17  20
ENDBRANCH   2  14
TORSDOF 2
ENDMDL
MODEL 2
REMARK VINA RESULT:      -8.6      1.142      1.516
REMARK  Name = 
REMARK  2 active torsions:
REMARK  status: ('A' for Active; 'I' for Inactive)
REMARK    1  A    between atoms: C_2  and  C_3
REMARK    2  A    between atoms: C_6  and  C_7
REMARK                            x       y       z     vdW  Elec       q    Type
REMARK                         _______ _______ _______ _____ _____    ______ ____
ROOT
ATOM      1  O   UNL     1       6.678   4.108  17.914  0.00  0.00    +0.000 OA
ATOM      2  C   UNL     1       6.177   5.209  17.691  0.00  0.00    +0.000 C 
ATOM      3  N   UNL     1       4.830   5.448  17.355  0.00  0.00    +0.000 N 
ATOM      4  C   UNL     1       4.254   6.733  16.909  0.00  0.00    +0.000 C 
ATOM      5  C   UNL     1       3.287   7.229  17.974  0.00  0.00    +0.000 C 
ATOM      6  O   UNL     1       2.187   6.328  18.117  0.00  0.00    +0.000 OA
ATOM      7  C   UNL     1       2.577   5.011  18.195  0.00  0.00    +0.000 A 
ATOM      8  C   UNL     1       1.662   4.163  18.814  0.00  0.00    +0.000 A 
ATOM      9  C   UNL     1       1.964   2.816  18.943  0.00  0.00    +0.000 A 
ATOM     10  F   UNL     1       1.129   2.016  19.615  0.00  0.00    +0.000 F 
ATOM     11  C   UNL     1       3.127   2.286  18.400  0.00  0.00    +0.000 A 
ATOM     12  C   UNL     1       4.053   3.135  17.793  0.00  0.00    +0.000 A 
ATOM     13  C   UNL     1       3.820   4.513  17.747  0.00  0.00    +0.000 A 
ENDROOT
BRANCH   2  14
ATOM     14  C   UNL     1       7.093   6.346  17.829  0.00  0.00    +0.000 A 
ATOM     15  C   UNL     1       7.109   7.360  16.905  0.00  0.00    +0.000 A 
ATOM     16  N   UNL     1       7.765   8.522  17.110  0.00  0.00    +0.000 NA
ATOM     17  C   UNL     1       8.443   8.638  18.273  0.00  0.00    +0.000 A 
ATOM     18  N   UNL     1       8.639   7.628  19.139  0.00  0.00    +0.000 NA
ATOM     19  C   UNL     1       7.996   6.483  18.856  0.00  0.00    +0.000 A 
BRANCH  17  20
ATOM     20  C   UNL     1       8.835   9.990  18.708  0.00  0.00    +0.000 A 
ATOM     21  C   UNL     1       9.324  10.198  20.009  0.00  0.00    +0.000 A 
ATOM     22  C   UNL     1       9.760  11.459  20.421  0.00  0.00    +0.000 A 
ATOM     23  C   UNL     1       9.715  12.535  19.534  0.00  0.00    +0.000 A 
ATOM     24  C   UNL     1       9.241  12.352  18.239  0.00  0.00    +0.000 A 
ATOM     25  C   UNL     1       8.817  11.088  17.829  0.00  0.00    +0.000 A 
ENDBRANCH  17  20
ENDBRANCH   2  14
TORSDOF 2
ENDMDL
MODEL 3
REMARK VINA RESULT:      -8.2      4.062      7.025
REMARK  Name = 
REMARK  2 active torsions:
REMARK  status: ('A' for Active; 'I' for Inactive)
REMARK    1  A    between atoms: C_2  and  C_3
REMARK    2  A    between atoms: C_6  and  C_7
REMARK                            x       y       z     vdW  Elec       q    Type
REMARK                         _______ _______ _______ _____ _____    ______ ____
ROOT
ATOM      1  O   UNL     1       2.810   4.764  17.106  0.00  0.00    +0.000 OA
ATOM      2  C   UNL     1       3.662   5.455  17.662  0.00  0.00    +0.000 C 
ATOM      3  N   UNL     1       5.055   5.337  17.494  0.00  0.00    +0.000 N 
ATOM      4  C   UNL     1       6.094   6.030  18.283  0.00  0.00    +0.000 C 
ATOM      5  C   UNL     1       6.829   7.002  17.373  0.00  0.00    +0.000 C 
ATOM      6  O   UNL     1       7.519   6.302  16.336  0.00  0.00    +0.000 OA
ATOM      7  C   UNL     1       6.743   5.344  15.725  0.00  0.00    +0.000 A 
ATOM      8  C   UNL     1       7.147   4.992  14.441  0.00  0.00    +0.000 A 
ATOM      9  C   UNL     1       6.427   4.036  13.740  0.00  0.00    +0.000 A 
ATOM     10  F   UNL     1       6.759   3.758  12.474  0.00  0.00    +0.000 F 
ATOM     11  C   UNL     1       5.358   3.371  14.326  0.00  0.00    +0.000 A 
ATOM     12  C   UNL     1       4.940   3.733  15.607  0.00  0.00    +0.000 A 
ATOM     13  C   UNL     1       5.584   4.769  16.291  0.00  0.00    +0.000 A 
ENDROOT
BRANCH   2  14
ATOM     14  C   UNL     1       3.133   6.500  18.545  0.00  0.00    +0.000 A 
ATOM     15  C   UNL     1       2.985   7.791  18.106  0.00  0.00    +0.000 A 
ATOM     16  N   UNL     1       2.298   8.722  18.800  0.00  0.00    +0.000 NA
ATOM     17  C   UNL     1       1.777   8.333  19.984  0.00  0.00    +0.000 A 
ATOM     18  N   UNL     1       2.039   7.153  20.576  0.00  0.00    +0.000 NA
ATOM     19  C   UNL     1       2.765   6.286  19.851  0.00  0.00    +0.000 A 
BRANCH  17  20
ATOM     20  C   UNL     1       0.718   9.168  20.577  0.00  0.00    +0.000 A 
ATOM     21  C   UNL     1       0.407   9.049  21.943  0.00  0.00    +0.000 A 
ATOM     22  C   UNL     1      -0.548   9.875  22.538  0.00  0.00    +0.000 A 
ATOM     23  C   UNL     1      -1.210  10.837  21.774  0.00  0.00    +0.000 A 
ATOM     24  C   UNL     1      -0.914  10.978  20.422  0.00  0.00    +0.000 A 
ATOM     25  C   UNL     1       0.049  10.158  19.835  0.00  0.00    +0.000 A 
ENDBRANCH  17  20
ENDBRANCH   2  14
TORSDOF 2
ENDMDL
MODEL 4
REMARK VINA RESULT:      -8.0      5.892      8.696
REMARK  Name = 
REMARK  2 active torsions:
REMARK  status: ('A' for Active; 'I' for Inactive)
REMARK    1  A    between atoms: C_2  and  C_3
REMARK    2  A    between atoms: C_6  and  C_7
REMARK                            x       y       z     vdW  Elec       q    Type
REMARK                         _______ _______ _______ _____ _____    ______ ____
ROOT
ATOM      1  O   UNL     1      -1.292  10.203  19.347  0.00  0.00    +0.000 OA
ATOM      2  C   UNL     1      -0.147  10.648  19.385  0.00  0.00    +0.000 C 
ATOM      3  N   UNL     1       0.214  11.968  19.720  0.00  0.00    +0.000 N 
ATOM      4  C   UNL     1       1.558  12.567  19.595  0.00  0.00    +0.000 C 
ATOM      5  C   UNL     1       2.084  12.876  20.989  0.00  0.00    +0.000 C 
ATOM      6  O   UNL     1       1.269  13.858  21.631  0.00  0.00    +0.000 OA
ATOM      7  C   UNL     1      -0.077  13.598  21.518  0.00  0.00    +0.000 A 
ATOM      8  C   UNL     1      -0.874  14.190  22.494  0.00  0.00    +0.000 A 
ATOM      9  C   UNL     1      -2.245  13.985  22.467  0.00  0.00    +0.000 A 
ATOM     10  F   UNL     1      -3.004  14.479  23.452  0.00  0.00    +0.000 F 
ATOM     11  C   UNL     1      -2.843  13.264  21.443  0.00  0.00    +0.000 A 
ATOM     12  C   UNL     1      -2.046  12.656  20.472  0.00  0.00    +0.000 A 
ATOM     13  C   UNL     1      -0.653  12.759  20.539  0.00  0.00    +0.000 A 
ENDROOT
BRANCH   2  14
ATOM     14  C   UNL     1       0.907   9.674  19.077  0.00  0.00    +0.000 A 
ATOM     15  C   UNL     1       1.328   8.765  20.014  0.00  0.00    +0.000 A 
ATOM     16  N   UNL     1       2.121   7.718  19.707  0.00  0.00    +0.000 NA
ATOM     17  C   UNL     1       2.516   7.614  18.419  0.00  0.00    +0.000 A 
ATOM     18  N   UNL     1       2.312   8.561  17.486  0.00  0.00    +0.000 NA
ATOM     19  C   UNL     1       1.552   9.601  17.866  0.00  0.00    +0.000 A 
BRANCH  17  20
ATOM     20  C   UNL     1       3.039   6.314  17.963  0.00  0.00    +0.000 A 
ATOM     21  C   UNL     1       2.240   5.161  18.053  0.00  0.00    +0.000 A 
ATOM     22  C   UNL     1       2.692   3.933  17.569  0.00  0.00    +0.000 A 
ATOM     23  C   UNL     1       3.955   3.837  16.984  0.00  0.00    +0.000 A 
ATOM     24  C   UNL     1       4.762   4.965  16.878  0.00  0.00    +0.000 A 
ATOM     25  C   UNL     1       4.301   6.193  17.353  0.00  0.00    +0.000 A 
ENDBRANCH  17  20
ENDBRANCH   2  14
TORSDOF 2
ENDMDL
MODEL 5
REMARK VINA RESULT:      -7.9      4.107      6.932
REMARK  Name = 
REMARK  2 active torsions:
REMARK  status: ('A' for Active; 'I' for Inactive)
REMARK    1  A    between atoms: C_2  and  C_3
REMARK    2  A    between atoms: C_6  and  C_7
REMARK                            x       y       z     vdW  Elec       q    Type
REMARK                         _______ _______ _______ _____ _____    ______ ____
ROOT
ATOM      1  O   UNL     1       2.698   5.009  17.187  0.00  0.00    +0.000 OA
ATOM      2  C   UNL     1       3.540   5.754  17.685  0.00  0.00    +0.000 C 
ATOM      3  N   UNL     1       4.937   5.612  17.571  0.00  0.00    +0.000 N 
ATOM      4  C   UNL     1       5.959   6.385  18.305  0.00  0.00    +0.000 C 
ATOM      5  C   UNL     1       6.727   7.244  17.312  0.00  0.00    +0.000 C 
ATOM      6  O   UNL     1       7.439   6.426  16.381  0.00  0.00    +0.000 OA
ATOM      7  C   UNL     1       6.672   5.409  15.861  0.00  0.00    +0.000 A 
ATOM      8  C   UNL     1       7.109   4.911  14.637  0.00  0.00    +0.000 A 
ATOM      9  C   UNL     1       6.402   3.884  14.030  0.00  0.00    +0.000 A 
ATOM     10  F   UNL     1       6.766   3.463  12.814  0.00  0.00    +0.000 F 
ATOM     11  C   UNL     1       5.312   3.296  14.657  0.00  0.00    +0.000 A 
ATOM     12  C   UNL     1       4.861   3.803  15.876  0.00  0.00    +0.000 A 
ATOM     13  C   UNL     1       5.494   4.908  16.456  0.00  0.00    +0.000 A 
ENDROOT
BRANCH   2  14
ATOM     14  C   UNL     1       2.995   6.896  18.428  0.00  0.00    +0.000 A 
ATOM     15  C   UNL     1       2.922   8.142  17.859  0.00  0.00    +0.000 A 
ATOM     16  N   UNL     1       2.228   9.156  18.415  0.00  0.00    +0.000 NA
ATOM     17  C   UNL     1       1.619   8.900  19.594  0.00  0.00    +0.000 A 
ATOM     18  N   UNL     1       1.800   7.776  20.310  0.00  0.00    +0.000 NA
ATOM     19  C   UNL     1       2.538   6.820  19.721  0.00  0.00    +0.000 A 
BRANCH  17  20
ATOM     20  C   UNL     1       0.556   9.820  20.033  0.00  0.00    +0.000 A 
ATOM     21  C   UNL     1      -0.303  10.409  19.089  0.00  0.00    +0.000 A 
ATOM     22  C   UNL     1      -1.355  11.233  19.488  0.00  0.00    +0.000 A 
ATOM     23  C   UNL     1      -1.568  11.483  20.845  0.00  0.00    +0.000 A 
ATOM     24  C   UNL     1      -0.735  10.907  21.798  0.00  0.00    +0.000 A 
ATOM     25  C   UNL     1       0.308  10.075  21.395  0.00  0.00    +0.000 A 
ENDBRANCH  17  20
ENDBRANCH   2  14
TORSDOF 2
ENDMDL
MODEL 6
REMARK VINA RESULT:      -7.9      4.467      7.054
REMARK  Name = 
REMARK  2 active torsions:
REMARK  status: ('A' for Active; 'I' for Inactive)
REMARK    1  A    between atoms: C_2  and  C_3
REMARK    2  A    between atoms: C_6  and  C_7
REMARK                            x       y       z     vdW  Elec       q    Type
REMARK                         _______ _______ _______ _____ _____    ______ ____
ROOT
ATOM      1  O   UNL     1       3.518   8.446  17.102  0.00  0.00    +0.000 OA
ATOM      2  C   UNL     1       2.863   7.714  17.841  0.00  0.00    +0.000 C 
ATOM      3  N   UNL     1       2.997   6.316  17.946  0.00  0.00    +0.000 N 
ATOM      4  C   UNL     1       2.102   5.403  18.687  0.00  0.00    +0.000 C 
ATOM      5  C   UNL     1       2.876   4.804  19.852  0.00  0.00    +0.000 C 
ATOM      6  O   UNL     1       3.960   4.001  19.379  0.00  0.00    +0.000 OA
ATOM      7  C   UNL     1       4.697   4.618  18.394  0.00  0.00    +0.000 A 
ATOM      8  C   UNL     1       5.998   4.144  18.251  0.00  0.00    +0.000 A 
ATOM      9  C   UNL     1       6.821   4.703  17.286  0.00  0.00    +0.000 A 
ATOM     10  F   UNL     1       8.098   4.313  17.203  0.00  0.00    +0.000 F 
ATOM     11  C   UNL     1       6.347   5.673  16.412  0.00  0.00    +0.000 A 
ATOM     12  C   UNL     1       5.049   6.161  16.564  0.00  0.00    +0.000 A 
ATOM     13  C   UNL     1       4.236   5.689  17.598  0.00  0.00    +0.000 A 
ENDROOT
BRANCH   2  14
ATOM     14  C   UNL     1       1.890   8.406  18.694  0.00  0.00    +0.000 A 
ATOM     15  C   UNL     1       1.839   8.174  20.045  0.00  0.00    +0.000 A 
ATOM     16  N   UNL     1       1.125   8.945  20.890  0.00  0.00    +0.000 NA
ATOM     17  C   UNL     1       0.422   9.959  20.338  0.00  0.00    +0.000 A 
ATOM     18  N   UNL     1       0.261  10.136  19.014  0.00  0.00    +0.000 NA
ATOM     19  C   UNL     1       0.965   9.307  18.225  0.00  0.00    +0.000 A 
BRANCH  17  20
ATOM     20  C   UNL     1      -0.042  11.037  21.227  0.00  0.00    +0.000 A 
ATOM     21  C   UNL     1       0.303  12.373  20.958  0.00  0.00    +0.000 A 
ATOM     22  C   UNL     1      -0.178  13.416  21.751  0.00  0.00    +0.000 A 
ATOM     23  C   UNL     1      -1.018  13.138  22.830  0.00  0.00    +0.000 A 
ATOM     24  C   UNL     1      -1.380  11.825  23.113  0.00  0.00    +0.000 A 
ATOM     25  C   UNL     1      -0.905  10.788  22.311  0.00  0.00    +0.000 A 
ENDBRANCH  17  20
ENDBRANCH   2  14
TORSDOF 2
ENDMDL
MODEL 7
REMARK VINA RESULT:      -7.8      5.498      8.533
REMARK  Name = 
REMARK  2 active torsions:
REMARK  status: ('A' for Active; 'I' for Inactive)
REMARK    1  A    between atoms: C_2  and  C_3
REMARK    2  A    between atoms: C_6  and  C_7
REMARK                            x       y       z     vdW  Elec       q    Type
REMARK                         _______ _______ _______ _____ _____    ______ ____
ROOT
ATOM      1  O   UNL     1       0.382  10.594  18.648  0.00  0.00    +0.000 OA
ATOM      2  C   UNL     1       0.818  10.050  19.661  0.00  0.00    +0.000 C 
ATOM      3  N   UNL     1       0.678  10.528  20.978  0.00  0.00    +0.000 N 
ATOM      4  C   UNL     1       1.345   9.990  22.181  0.00  0.00    +0.000 C 
ATOM      5  C   UNL     1       0.288   9.387  23.094  0.00  0.00    +0.000 C 
ATOM      6  O   UNL     1      -0.615  10.393  23.558  0.00  0.00    +0.000 OA
ATOM      7  C   UNL     1      -1.060  11.219  22.552  0.00  0.00    +0.000 A 
ATOM      8  C   UNL     1      -2.266  11.864  22.813  0.00  0.00    +0.000 A 
ATOM      9  C   UNL     1      -2.800  12.717  21.860  0.00  0.00    +0.000 A 
ATOM     10  F   UNL     1      -4.001  13.270  22.069  0.00  0.00    +0.000 F 
ATOM     11  C   UNL     1      -2.116  12.998  20.684  0.00  0.00    +0.000 A 
ATOM     12  C   UNL     1      -0.915  12.342  20.412  0.00  0.00    +0.000 A 
ATOM     13  C   UNL     1      -0.411  11.396  21.310  0.00  0.00    +0.000 A 
ENDROOT
BRANCH   2  14
ATOM     14  C   UNL     1       1.512   8.778  19.431  0.00  0.00    +0.000 A 
ATOM     15  C   UNL     1       1.530   7.797  20.389  0.00  0.00    +0.000 A 
ATOM     16  N   UNL     1       1.954   6.541  20.137  0.00  0.00    +0.000 NA
ATOM     17  C   UNL     1       2.398   6.291  18.886  0.00  0.00    +0.000 A 
ATOM     18  N   UNL     1       2.597   7.236  17.950  0.00  0.00    +0.000 NA
ATOM     19  C   UNL     1       2.194   8.475  18.277  0.00  0.00    +0.000 A 
BRANCH  17  20
ATOM     20  C   UNL     1       2.498   4.884  18.461  0.00  0.00    +0.000 A 
ATOM     21  C   UNL     1       3.659   4.422  17.816  0.00  0.00    +0.000 A 
ATOM     22  C   UNL     1       3.800   3.080  17.462  0.00  0.00    +0.000 A 
ATOM     23  C   UNL     1       2.779   2.173  17.749  0.00  0.00    +0.000 A 
ATOM     24  C   UNL     1       1.624   2.605  18.393  0.00  0.00    +0.000 A 
ATOM     25  C   UNL     1       1.492   3.945  18.754  0.00  0.00    +0.000 A 
ENDBRANCH  17  20
ENDBRANCH   2  14
TORSDOF 2
ENDMDL
MODEL 8
REMARK VINA RESULT:      -7.7      5.833      8.552
REMARK  Name = 
REMARK  2 active torsions:
REMARK  status: ('A' for Active; 'I' for Inactive)
REMARK    1  A    between atoms: C_2  and  C_3
REMARK    2  A    between atoms: C_6  and  C_7
REMARK                            x       y       z     vdW  Elec       q    Type
REMARK                         _______ _______ _______ _____ _____    ______ ____
ROOT
ATOM      1  O   UNL     1      -0.984  10.929  18.123  0.00  0.00    +0.000 OA
ATOM      2  C   UNL     1      -0.214  10.806  19.074  0.00  0.00    +0.000 C 
ATOM      3  N   UNL     1      -0.284  11.515  20.289  0.00  0.00    +0.000 N 
ATOM      4  C   UNL     1       0.730  11.515  21.363  0.00  0.00    +0.000 C 
ATOM      5  C   UNL     1       0.134  10.847  22.593  0.00  0.00    +0.000 C 
ATOM      6  O   UNL     1      -0.973  11.601  23.092  0.00  0.00    +0.000 OA
ATOM      7  C   UNL     1      -1.852  11.982  22.105  0.00  0.00    +0.000 A 
ATOM      8  C   UNL     1      -3.143  12.260  22.544  0.00  0.00    +0.000 A 
ATOM      9  C   UNL     1      -4.104  12.651  21.623  0.00  0.00    +0.000 A 
ATOM     10  F   UNL     1      -5.366  12.834  22.027  0.00  0.00    +0.000 F 
ATOM     11  C   UNL     1      -3.781  12.844  20.287  0.00  0.00    +0.000 A 
ATOM     12  C   UNL     1      -2.492  12.551  19.841  0.00  0.00    +0.000 A 
ATOM     13  C   UNL     1      -1.535  12.052  20.730  0.00  0.00    +0.000 A 
ENDROOT
BRANCH   2  14
ATOM     14  C   UNL     1       0.838   9.799  18.893  0.00  0.00    +0.000 A 
ATOM     15  C   UNL     1       1.042   8.812  19.824  0.00  0.00    +0.000 A 
ATOM     16  N   UNL     1       1.834   7.745  19.592  0.00  0.00    +0.000 NA
ATOM     17  C   UNL     1       2.454   7.699  18.392  0.00  0.00    +0.000 A 
ATOM     18  N   UNL     1       2.463   8.711  17.506  0.00  0.00    +0.000 NA
ATOM     19  C   UNL     1       1.690   9.765  17.815  0.00  0.00    +0.000 A 
BRANCH  17  20
ATOM     20  C   UNL     1       2.997   6.404  17.948  0.00  0.00    +0.000 A 
ATOM     21  C   UNL     1       4.333   6.308  17.522  0.00  0.00    +0.000 A 
ATOM     22  C   UNL     1       4.886   5.080  17.157  0.00  0.00    +0.000 A 
ATOM     23  C   UNL     1       4.109   3.922  17.215  0.00  0.00    +0.000 A 
ATOM     24  C   UNL     1       2.787   3.990  17.641  0.00  0.00    +0.000 A 
ATOM     25  C   UNL     1       2.242   5.218  18.014  0.00  0.00    +0.000 A 
ENDBRANCH  17  20
ENDBRANCH   2  14
TORSDOF 2
ENDMDL
MODEL 9
REMARK VINA RESULT:      -7.6      6.236      8.773
REMARK  Name = 
REMARK  2 active torsions:
REMARK  status: ('A' for Active; 'I' for Inactive)
REMARK    1  A    between atoms: C_2  and  C_3
REMARK    2  A    between atoms: C_6  and  C_7
REMARK                            x       y       z     vdW  Elec       q    Type
REMARK                         _______ _______ _______ _____ _____    ______ ____
ROOT
ATOM      1  O   UNL     1      -1.831  10.517  18.191  0.00  0.00    +0.000 OA
ATOM      2  C   UNL     1      -0.927  10.831  18.963  0.00  0.00    +0.000 C 
ATOM      3  N   UNL     1      -0.979  11.865  19.917  0.00  0.00    +0.000 N 
ATOM      4  C   UNL     1       0.150  12.373  20.722  0.00  0.00    +0.000 C 
ATOM      5  C   UNL     1      -0.104  12.038  22.184  0.00  0.00    +0.000 C 
ATOM      6  O   UNL     1      -1.268  12.715  22.663  0.00  0.00    +0.000 OA
ATOM      7  C   UNL     1      -2.340  12.613  21.806  0.00  0.00    +0.000 A 
ATOM      8  C   UNL     1      -3.586  12.795  22.399  0.00  0.00    +0.000 A 
ATOM      9  C   UNL     1      -4.729  12.710  21.619  0.00  0.00    +0.000 A 
ATOM     10  F   UNL     1      -5.931  12.797  22.200  0.00  0.00    +0.000 F 
ATOM     11  C   UNL     1      -4.647  12.521  20.246  0.00  0.00    +0.000 A 
ATOM     12  C   UNL     1      -3.402  12.323  19.650  0.00  0.00    +0.000 A 
ATOM     13  C   UNL     1      -2.243  12.297  20.433  0.00  0.00    +0.000 A 
ENDROOT
BRANCH   2  14
ATOM     14  C   UNL     1       0.284  10.008  18.865  0.00  0.00    +0.000 A 
ATOM     15  C   UNL     1       0.623   9.125  19.857  0.00  0.00    +0.000 A 
ATOM     16  N   UNL     1       1.590   8.196  19.707  0.00  0.00    +0.000 NA
ATOM     17  C   UNL     1       2.245   8.190  18.525  0.00  0.00    +0.000 A 
ATOM     18  N   UNL     1       2.112   9.138  17.580  0.00  0.00    +0.000 NA
ATOM     19  C   UNL     1       1.162  10.060  17.809  0.00  0.00    +0.000 A 
BRANCH  17  20
ATOM     20  C   UNL     1       3.013   6.983  18.171  0.00  0.00    +0.000 A 
ATOM     21  C   UNL     1       2.546   5.713  18.553  0.00  0.00    +0.000 A 
ATOM     22  C   UNL     1       3.224   4.553  18.174  0.00  0.00    +0.000 A 
ATOM     23  C   UNL     1       4.384   4.645  17.403  0.00  0.00    +0.000 A 
ATOM     24  C   UNL     1       4.861   5.891  17.007  0.00  0.00    +0.000 A 
ATOM     25  C   UNL     1       4.174   7.045  17.379  0.00  0.00    +0.000 A 
ENDBRANCH  17  20
ENDBRANCH   2  14
TORSDOF 2
ENDMDL
