MODEL 1
REMARK VINA RESULT:      -8.1      0.000      0.000
REMARK  Name = 
REMARK  7 active torsions:
REMARK  status: ('A' for Active; 'I' for Inactive)
REMARK    1  A    between atoms: C_2  and  C_16
REMARK    2  A    between atoms: N_3  and  C_4
REMARK    3  A    between atoms: C_9  and  C_10
REMARK    4  A    between atoms: C_19  and  C_20
REMARK    5  A    between atoms: C_20  and  O_21
REMARK    6  A    between atoms: O_21  and  C_22
REMARK    7  A    between atoms: C_22  and  C_23
REMARK                            x       y       z     vdW  Elec       q    Type
REMARK                         _______ _______ _______ _____ _____    ______ ____
ROOT
ATOM      1  O   UNL     1       2.171   6.003  20.524  0.00  0.00    +0.000 OA
ATOM      2  C   UNL     1       2.138   6.621  19.463  0.00  0.00    +0.000 C 
ATOM      3  N   UNL     1       2.432   6.091  18.219  0.00  0.00    +0.000 N 
ATOM      4  H   UNL     1       2.143   6.593  17.382  0.00  0.00    +0.000 HD
ENDROOT
BRANCH   3   5
ATOM      5  C   UNL     1       2.747   4.724  18.048  0.00  0.00    +0.000 A 
ATOM      6  C   UNL     1       1.672   3.823  18.030  0.00  0.00    +0.000 A 
ATOM      7  C   UNL     1       1.892   2.449  17.973  0.00  0.00    +0.000 A 
ATOM      8  C   UNL     1       3.190   1.971  17.857  0.00  0.00    +0.000 A 
ATOM      9  C   UNL     1       4.264   2.865  17.846  0.00  0.00    +0.000 A 
ATOM     10  C   UNL     1       4.084   4.261  17.992  0.00  0.00    +0.000 A 
BRANCH  10  11
ATOM     11  C   UNL     1       5.281   5.144  18.087  0.00  0.00    +0.000 A 
ATOM     12  C   UNL     1       6.133   5.154  19.205  0.00  0.00    +0.000 A 
ATOM     13  C   UNL     1       7.319   5.898  19.216  0.00  0.00    +0.000 A 
ATOM     14  C   UNL     1       7.648   6.701  18.131  0.00  0.00    +0.000 A 
ATOM     15  C   UNL     1       6.783   6.776  17.044  0.00  0.00    +0.000 A 
ATOM     16  C   UNL     1       5.621   6.003  17.024  0.00  0.00    +0.000 A 
ENDBRANCH  10  11
ENDBRANCH   3   5
BRANCH   2  17
ATOM     17  C   UNL     1       1.738   8.056  19.495  0.00  0.00    +0.000 A 
ATOM     18  C   UNL     1       1.916   8.804  18.329  0.00  0.00    +0.000 A 
ATOM     19  C   UNL     1       1.545  10.148  18.291  0.00  0.00    +0.000 A 
ATOM     20  C   UNL     1       0.998  10.771  19.424  0.00  0.00    +0.000 A 
ATOM     21  C   UNL     1       0.852  10.025  20.599  0.00  0.00    +0.000 A 
ATOM     22  C   UNL     1       1.220   8.674  20.639  0.00  0.00    +0.000 A 
BRANCH  20  23
ATOM     23  C   UNL     1       0.601  12.223  19.368  0.00  0.00    +0.000 C 
BRANCH  23  24
ATOM     24  O   UNL     1      -0.323  12.405  18.298  0.00  0.00    +0.000 OA
BRANCH  24  25
ATOM     25  C   UNL     1      -1.669  12.100  18.693  0.00  0.00    +0.000 C 
BRANCH  25  26
ATOM     26  C   UNL     1      -2.335  11.056  17.794  0.00  0.00    +0.000 C 
ATOM     27  F   UNL     1      -1.815   9.819  17.938  0.00  0.00    +0.000 F 
ATOM     28  F   UNL     1      -3.661  10.973  18.060  0.00  0.00    +0.000 F 
ATOM     29  F   UNL     1      -2.212  11.400  16.489  0.00  0.00    +0.000 F 
ENDBRANCH  25  26
ENDBRANCH  24  25
ENDBRANCH  23  24
ENDBRANCH  20  23
ENDBRANCH   2  17
TORSDOF 7
ENDMDL
MODEL 2
REMARK VINA RESULT:      -8.1      0.610      1.420
REMARK  Name = 
REMARK  7 active torsions:
REMARK  status: ('A' for Active; 'I' for Inactive)
REMARK    1  A    between atoms: C_2  and  C_16
REMARK    2  A    between atoms: N_3  and  C_4
REMARK    3  A    between atoms: C_9  and  C_10
REMARK    4  A    between atoms: C_19  and  C_20
REMARK    5  A    between atoms: C_20  and  O_21
REMARK    6  A    between atoms: O_21  and  C_22
REMARK    7  A    between atoms: C_22  and  C_23
REMARK                            x       y       z     vdW  Elec       q    Type
REMARK                         _______ _______ _______ _____ _____    ______ ____
ROOT
ATOM      1  O   UNL     1       2.738   6.139  20.315  0.00  0.00    +0.000 OA
ATOM      2  C   UNL     1       2.383   6.559  19.218  0.00  0.00    +0.000 C 
ATOM      3  N   UNL     1       2.321   5.810  18.056  0.00  0.00    +0.000 N 
ATOM      4  H   UNL     1       1.789   6.162  17.263  0.00  0.00    +0.000 HD
ENDROOT
BRANCH   3   5
ATOM      5  C   UNL     1       2.612   4.427  18.046  0.00  0.00    +0.000 A 
ATOM      6  C   UNL     1       1.534   3.551  18.246  0.00  0.00    +0.000 A 
ATOM      7  C   UNL     1       1.740   2.179  18.358  0.00  0.00    +0.000 A 
ATOM      8  C   UNL     1       3.020   1.666  18.196  0.00  0.00    +0.000 A 
ATOM      9  C   UNL     1       4.094   2.531  17.968  0.00  0.00    +0.000 A 
ATOM     10  C   UNL     1       3.935   3.937  17.938  0.00  0.00    +0.000 A 
BRANCH  10  11
ATOM     11  C   UNL     1       5.141   4.803  17.806  0.00  0.00    +0.000 A 
ATOM     12  C   UNL     1       5.459   5.491  16.622  0.00  0.00    +0.000 A 
ATOM     13  C   UNL     1       6.525   6.397  16.563  0.00  0.00    +0.000 A 
ATOM     14  C   UNL     1       7.338   6.589  17.674  0.00  0.00    +0.000 A 
ATOM     15  C   UNL     1       7.098   5.861  18.834  0.00  0.00    +0.000 A 
ATOM     16  C   UNL     1       6.011   4.987  18.897  0.00  0.00    +0.000 A 
ENDBRANCH  10  11
ENDBRANCH   3   5
BRANCH   2  17
ATOM     17  C   UNL     1       1.969   7.987  19.109  0.00  0.00    +0.000 A 
ATOM     18  C   UNL     1       1.329   8.562  20.208  0.00  0.00    +0.000 A 
ATOM     19  C   UNL     1       0.933   9.899  20.173  0.00  0.00    +0.000 A 
ATOM     20  C   UNL     1       1.163  10.683  19.031  0.00  0.00    +0.000 A 
ATOM     21  C   UNL     1       1.776  10.093  17.920  0.00  0.00    +0.000 A 
ATOM     22  C   UNL     1       2.178   8.751  17.954  0.00  0.00    +0.000 A 
BRANCH  20  23
ATOM     23  C   UNL     1       0.732  12.126  19.008  0.00  0.00    +0.000 C 
BRANCH  23  24
ATOM     24  O   UNL     1      -0.679  12.186  19.204  0.00  0.00    +0.000 OA
BRANCH  24  25
ATOM     25  C   UNL     1      -1.398  12.085  17.966  0.00  0.00    +0.000 C 
BRANCH  25  26
ATOM     26  C   UNL     1      -2.081  10.727  17.779  0.00  0.00    +0.000 C 
ATOM     27  F   UNL     1      -2.035   9.951  18.882  0.00  0.00    +0.000 F 
ATOM     28  F   UNL     1      -3.384  10.889  17.448  0.00  0.00    +0.000 F 
ATOM     29  F   UNL     1      -1.498  10.034  16.770  0.00  0.00    +0.000 F 
ENDBRANCH  25  26
ENDBRANCH  24  25
ENDBRANCH  23  24
ENDBRANCH  20  23
ENDBRANCH   2  17
TORSDOF 7
ENDMDL
MODEL 3
REMARK VINA RESULT:      -8.1      0.225      1.204
REMARK  Name = 
REMARK  7 active torsions:
REMARK  status: ('A' for Active; 'I' for Inactive)
REMARK    1  A    between atoms: C_2  and  C_16
REMARK    2  A    between atoms: N_3  and  C_4
REMARK    3  A    between atoms: C_9  and  C_10
REMARK    4  A    between atoms: C_19  and  C_20
REMARK    5  A    between atoms: C_20  and  O_21
REMARK    6  A    between atoms: O_21  and  C_22
REMARK    7  A    between atoms: C_22  and  C_23
REMARK                            x       y       z     vdW  Elec       q    Type
REMARK                         _______ _______ _______ _____ _____    ______ ____
ROOT
ATOM      1  O   UNL     1       2.516   6.201  20.356  0.00  0.00    +0.000 OA
ATOM      2  C   UNL     1       2.296   6.712  19.261  0.00  0.00    +0.000 C 
ATOM      3  N   UNL     1       2.411   6.069  18.041  0.00  0.00    +0.000 N 
ATOM      4  H   UNL     1       1.977   6.481  17.218  0.00  0.00    +0.000 HD
ENDROOT
BRANCH   3   5
ATOM      5  C   UNL     1       2.745   4.699  17.950  0.00  0.00    +0.000 A 
ATOM      6  C   UNL     1       1.680   3.785  17.947  0.00  0.00    +0.000 A 
ATOM      7  C   UNL     1       1.916   2.413  17.968  0.00  0.00    +0.000 A 
ATOM      8  C   UNL     1       3.222   1.945  17.916  0.00  0.00    +0.000 A 
ATOM      9  C   UNL     1       4.287   2.850  17.890  0.00  0.00    +0.000 A 
ATOM     10  C   UNL     1       4.088   4.249  17.959  0.00  0.00    +0.000 A 
BRANCH  10  11
ATOM     11  C   UNL     1       5.272   5.150  18.044  0.00  0.00    +0.000 A 
ATOM     12  C   UNL     1       6.164   5.135  19.130  0.00  0.00    +0.000 A 
ATOM     13  C   UNL     1       7.337   5.900  19.127  0.00  0.00    +0.000 A 
ATOM     14  C   UNL     1       7.612   6.749  18.062  0.00  0.00    +0.000 A 
ATOM     15  C   UNL     1       6.707   6.848  17.010  0.00  0.00    +0.000 A 
ATOM     16  C   UNL     1       5.558   6.055  17.003  0.00  0.00    +0.000 A 
ENDBRANCH  10  11
ENDBRANCH   3   5
BRANCH   2  17
ATOM     17  C   UNL     1       1.854   8.134  19.222  0.00  0.00    +0.000 A 
ATOM     18  C   UNL     1       1.249   8.657  20.367  0.00  0.00    +0.000 A 
ATOM     19  C   UNL     1       0.830   9.987  20.397  0.00  0.00    +0.000 A 
ATOM     20  C   UNL     1       1.000  10.816  19.277  0.00  0.00    +0.000 A 
ATOM     21  C   UNL     1       1.577  10.278  18.121  0.00  0.00    +0.000 A 
ATOM     22  C   UNL     1       2.002   8.944  18.089  0.00  0.00    +0.000 A 
BRANCH  20  23
ATOM     23  C   UNL     1       0.543  12.250  19.325  0.00  0.00    +0.000 C 
BRANCH  23  24
ATOM     24  O   UNL     1      -0.425  12.458  18.299  0.00  0.00    +0.000 OA
BRANCH  24  25
ATOM     25  C   UNL     1      -1.750  12.120  18.735  0.00  0.00    +0.000 C 
BRANCH  25  26
ATOM     26  C   UNL     1      -2.361  10.956  17.950  0.00  0.00    +0.000 C 
ATOM     27  F   UNL     1      -3.710  10.974  17.935  0.00  0.00    +0.000 F 
ATOM     28  F   UNL     1      -1.938  10.974  16.664  0.00  0.00    +0.000 F 
ATOM     29  F   UNL     1      -1.975   9.769  18.479  0.00  0.00    +0.000 F 
ENDBRANCH  25  26
ENDBRANCH  24  25
ENDBRANCH  23  24
ENDBRANCH  20  23
ENDBRANCH   2  17
TORSDOF 7
ENDMDL
MODEL 4
REMARK VINA RESULT:      -8.1      0.371      1.228
REMARK  Name = 
REMARK  7 active torsions:
REMARK  status: ('A' for Active; 'I' for Inactive)
REMARK    1  A    between atoms: C_2  and  C_16
REMARK    2  A    between atoms: N_3  and  C_4
REMARK    3  A    between atoms: C_9  and  C_10
REMARK    4  A    between atoms: C_19  and  C_20
REMARK    5  A    between atoms: C_20  and  O_21
REMARK    6  A    between atoms: O_21  and  C_22
REMARK    7  A    between atoms: C_22  and  C_23
REMARK                            x       y       z     vdW  Elec       q    Type
REMARK                         _______ _______ _______ _____ _____    ______ ____
ROOT
ATOM      1  O   UNL     1       2.637   6.113  20.408  0.00  0.00    +0.000 OA
ATOM      2  C   UNL     1       2.317   6.617  19.335  0.00  0.00    +0.000 C 
ATOM      3  N   UNL     1       2.332   5.970  18.111  0.00  0.00    +0.000 N 
ATOM      4  H   UNL     1       1.824   6.375  17.328  0.00  0.00    +0.000 HD
ENDROOT
BRANCH   3   5
ATOM      5  C   UNL     1       2.669   4.602  17.997  0.00  0.00    +0.000 A 
ATOM      6  C   UNL     1       1.621   3.678  18.132  0.00  0.00    +0.000 A 
ATOM      7  C   UNL     1       1.874   2.309  18.141  0.00  0.00    +0.000 A 
ATOM      8  C   UNL     1       3.169   1.854  17.938  0.00  0.00    +0.000 A 
ATOM      9  C   UNL     1       4.213   2.769  17.774  0.00  0.00    +0.000 A 
ATOM     10  C   UNL     1       4.008   4.167  17.849  0.00  0.00    +0.000 A 
BRANCH  10  11
ATOM     11  C   UNL     1       5.182   5.081  17.781  0.00  0.00    +0.000 A 
ATOM     12  C   UNL     1       5.337   6.049  16.774  0.00  0.00    +0.000 A 
ATOM     13  C   UNL     1       6.384   6.979  16.803  0.00  0.00    +0.000 A 
ATOM     14  C   UNL     1       7.338   6.921  17.811  0.00  0.00    +0.000 A 
ATOM     15  C   UNL     1       7.259   5.922  18.776  0.00  0.00    +0.000 A 
ATOM     16  C   UNL     1       6.192   5.021  18.761  0.00  0.00    +0.000 A 
ENDBRANCH  10  11
ENDBRANCH   3   5
BRANCH   2  17
ATOM     17  C   UNL     1       1.861   8.036  19.329  0.00  0.00    +0.000 A 
ATOM     18  C   UNL     1       2.071   8.779  18.166  0.00  0.00    +0.000 A 
ATOM     19  C   UNL     1       1.651  10.107  18.093  0.00  0.00    +0.000 A 
ATOM     20  C   UNL     1       1.022  10.719  19.188  0.00  0.00    +0.000 A 
ATOM     21  C   UNL     1       0.843   9.979  20.363  0.00  0.00    +0.000 A 
ATOM     22  C   UNL     1       1.260   8.644  20.438  0.00  0.00    +0.000 A 
BRANCH  20  23
ATOM     23  C   UNL     1       0.572  12.153  19.095  0.00  0.00    +0.000 C 
BRANCH  23  24
ATOM     24  O   UNL     1      -0.370  12.271  18.031  0.00  0.00    +0.000 OA
BRANCH  24  25
ATOM     25  C   UNL     1      -1.658  11.752  18.395  0.00  0.00    +0.000 C 
BRANCH  25  26
ATOM     26  C   UNL     1      -2.234  10.792  17.351  0.00  0.00    +0.000 C 
ATOM     27  F   UNL     1      -2.296  11.326  16.113  0.00  0.00    +0.000 F 
ATOM     28  F   UNL     1      -1.485   9.667  17.272  0.00  0.00    +0.000 F 
ATOM     29  F   UNL     1      -3.489  10.412  17.693  0.00  0.00    +0.000 F 
ENDBRANCH  25  26
ENDBRANCH  24  25
ENDBRANCH  23  24
ENDBRANCH  20  23
ENDBRANCH   2  17
TORSDOF 7
ENDMDL
MODEL 5
REMARK VINA RESULT:      -7.8      2.143      2.759
REMARK  Name = 
REMARK  7 active torsions:
REMARK  status: ('A' for Active; 'I' for Inactive)
REMARK    1  A    between atoms: C_2  and  C_16
REMARK    2  A    between atoms: N_3  and  C_4
REMARK    3  A    between atoms: C_9  and  C_10
REMARK    4  A    between atoms: C_19  and  C_20
REMARK    5  A    between atoms: C_20  and  O_21
REMARK    6  A    between atoms: O_21  and  C_22
REMARK    7  A    between atoms: C_22  and  C_23
REMARK                            x       y       z     vdW  Elec       q    Type
REMARK                         _______ _______ _______ _____ _____    ______ ____
ROOT
ATOM      1  O   UNL     1       2.306   5.893  20.717  0.00  0.00    +0.000 OA
ATOM      2  C   UNL     1       2.140   6.516  19.672  0.00  0.00    +0.000 C 
ATOM      3  N   UNL     1       2.282   5.993  18.398  0.00  0.00    +0.000 N 
ATOM      4  H   UNL     1       1.890   6.497  17.606  0.00  0.00    +0.000 HD
ENDROOT
BRANCH   3   5
ATOM      5  C   UNL     1       2.582   4.629  18.183  0.00  0.00    +0.000 A 
ATOM      6  C   UNL     1       1.522   3.718  18.316  0.00  0.00    +0.000 A 
ATOM      7  C   UNL     1       1.744   2.347  18.228  0.00  0.00    +0.000 A 
ATOM      8  C   UNL     1       3.017   1.880  17.929  0.00  0.00    +0.000 A 
ATOM      9  C   UNL     1       4.071   2.783  17.766  0.00  0.00    +0.000 A 
ATOM     10  C   UNL     1       3.901   4.178  17.938  0.00  0.00    +0.000 A 
BRANCH  10  11
ATOM     11  C   UNL     1       5.091   5.071  17.863  0.00  0.00    +0.000 A 
ATOM     12  C   UNL     1       5.289   5.990  16.817  0.00  0.00    +0.000 A 
ATOM     13  C   UNL     1       6.349   6.906  16.836  0.00  0.00    +0.000 A 
ATOM     14  C   UNL     1       7.273   6.881  17.874  0.00  0.00    +0.000 A 
ATOM     15  C   UNL     1       7.150   5.928  18.880  0.00  0.00    +0.000 A 
ATOM     16  C   UNL     1       6.071   5.043  18.874  0.00  0.00    +0.000 A 
ENDBRANCH  10  11
ENDBRANCH   3   5
BRANCH   2  17
ATOM     17  C   UNL     1       1.739   7.948  19.759  0.00  0.00    +0.000 A 
ATOM     18  C   UNL     1       1.317   8.429  21.001  0.00  0.00    +0.000 A 
ATOM     19  C   UNL     1       0.946   9.765  21.150  0.00  0.00    +0.000 A 
ATOM     20  C   UNL     1       0.980  10.643  20.056  0.00  0.00    +0.000 A 
ATOM     21  C   UNL     1       1.373  10.149  18.806  0.00  0.00    +0.000 A 
ATOM     22  C   UNL     1       1.750   8.808  18.655  0.00  0.00    +0.000 A 
BRANCH  20  23
ATOM     23  C   UNL     1       0.578  12.083  20.232  0.00  0.00    +0.000 C 
BRANCH  23  24
ATOM     24  O   UNL     1       0.760  12.447  21.598  0.00  0.00    +0.000 OA
BRANCH  24  25
ATOM     25  C   UNL     1      -0.325  13.248  22.090  0.00  0.00    +0.000 C 
BRANCH  25  26
ATOM     26  C   UNL     1      -1.432  12.419  22.747  0.00  0.00    +0.000 C 
ATOM     27  F   UNL     1      -2.117  13.099  23.691  0.00  0.00    +0.000 F 
ATOM     28  F   UNL     1      -2.325  11.996  21.821  0.00  0.00    +0.000 F 
ATOM     29  F   UNL     1      -0.916  11.313  23.336  0.00  0.00    +0.000 F 
ENDBRANCH  25  26
ENDBRANCH  24  25
ENDBRANCH  23  24
ENDBRANCH  20  23
ENDBRANCH   2  17
TORSDOF 7
ENDMDL
MODEL 6
REMARK VINA RESULT:      -7.7      2.237      2.528
REMARK  Name = 
REMARK  7 active torsions:
REMARK  status: ('A' for Active; 'I' for Inactive)
REMARK    1  A    between atoms: C_2  and  C_16
REMARK    2  A    between atoms: N_3  and  C_4
REMARK    3  A    between atoms: C_9  and  C_10
REMARK    4  A    between atoms: C_19  and  C_20
REMARK    5  A    between atoms: C_20  and  O_21
REMARK    6  A    between atoms: O_21  and  C_22
REMARK    7  A    between atoms: C_22  and  C_23
REMARK                            x       y       z     vdW  Elec       q    Type
REMARK                         _______ _______ _______ _____ _____    ______ ____
ROOT
ATOM      1  O   UNL     1       2.283   5.847  20.758  0.00  0.00    +0.000 OA
ATOM      2  C   UNL     1       2.139   6.526  19.746  0.00  0.00    +0.000 C 
ATOM      3  N   UNL     1       2.325   6.079  18.449  0.00  0.00    +0.000 N 
ATOM      4  H   UNL     1       1.949   6.623  17.676  0.00  0.00    +0.000 HD
ENDROOT
BRANCH   3   5
ATOM      5  C   UNL     1       2.648   4.732  18.166  0.00  0.00    +0.000 A 
ATOM      6  C   UNL     1       1.589   3.811  18.174  0.00  0.00    +0.000 A 
ATOM      7  C   UNL     1       1.827   2.449  18.012  0.00  0.00    +0.000 A 
ATOM      8  C   UNL     1       3.119   2.007  17.764  0.00  0.00    +0.000 A 
ATOM      9  C   UNL     1       4.174   2.923  17.725  0.00  0.00    +0.000 A 
ATOM     10  C   UNL     1       3.983   4.303  17.975  0.00  0.00    +0.000 A 
BRANCH  10  11
ATOM     11  C   UNL     1       5.169   5.204  18.032  0.00  0.00    +0.000 A 
ATOM     12  C   UNL     1       6.174   5.078  19.007  0.00  0.00    +0.000 A 
ATOM     13  C   UNL     1       7.340   5.854  18.963  0.00  0.00    +0.000 A 
ATOM     14  C   UNL     1       7.497   6.820  17.976  0.00  0.00    +0.000 A 
ATOM     15  C   UNL     1       6.482   7.024  17.047  0.00  0.00    +0.000 A 
ATOM     16  C   UNL     1       5.339   6.222  17.075  0.00  0.00    +0.000 A 
ENDBRANCH  10  11
ENDBRANCH   3   5
BRANCH   2  17
ATOM     17  C   UNL     1       1.718   7.947  19.903  0.00  0.00    +0.000 A 
ATOM     18  C   UNL     1       1.765   8.765  18.773  0.00  0.00    +0.000 A 
ATOM     19  C   UNL     1       1.367  10.100  18.852  0.00  0.00    +0.000 A 
ATOM     20  C   UNL     1       0.923  10.642  20.068  0.00  0.00    +0.000 A 
ATOM     21  C   UNL     1       0.908   9.826  21.205  0.00  0.00    +0.000 A 
ATOM     22  C   UNL     1       1.304   8.485  21.127  0.00  0.00    +0.000 A 
BRANCH  20  23
ATOM     23  C   UNL     1       0.495  12.084  20.139  0.00  0.00    +0.000 C 
BRANCH  23  24
ATOM     24  O   UNL     1       0.450  12.483  21.507  0.00  0.00    +0.000 OA
BRANCH  24  25
ATOM     25  C   UNL     1      -0.759  13.190  21.821  0.00  0.00    +0.000 C 
BRANCH  25  26
ATOM     26  C   UNL     1      -1.574  12.520  22.930  0.00  0.00    +0.000 C 
ATOM     27  F   UNL     1      -2.829  12.200  22.549  0.00  0.00    +0.000 F 
ATOM     28  F   UNL     1      -0.971  11.380  23.344  0.00  0.00    +0.000 F 
ATOM     29  F   UNL     1      -1.672  13.333  24.009  0.00  0.00    +0.000 F 
ENDBRANCH  25  26
ENDBRANCH  24  25
ENDBRANCH  23  24
ENDBRANCH  20  23
ENDBRANCH   2  17
TORSDOF 7
ENDMDL
MODEL 7
REMARK VINA RESULT:      -7.7      2.170      2.589
REMARK  Name = 
REMARK  7 active torsions:
REMARK  status: ('A' for Active; 'I' for Inactive)
REMARK    1  A    between atoms: C_2  and  C_16
REMARK    2  A    between atoms: N_3  and  C_4
REMARK    3  A    between atoms: C_9  and  C_10
REMARK    4  A    between atoms: C_19  and  C_20
REMARK    5  A    between atoms: C_20  and  O_21
REMARK    6  A    between atoms: O_21  and  C_22
REMARK    7  A    between atoms: C_22  and  C_23
REMARK                            x       y       z     vdW  Elec       q    Type
REMARK                         _______ _______ _______ _____ _____    ______ ____
ROOT
ATOM      1  O   UNL     1       2.479   6.006  20.503  0.00  0.00    +0.000 OA
ATOM      2  C   UNL     1       2.255   6.556  19.429  0.00  0.00    +0.000 C 
ATOM      3  N   UNL     1       2.378   5.963  18.184  0.00  0.00    +0.000 N 
ATOM      4  H   UNL     1       1.940   6.403  17.377  0.00  0.00    +0.000 HD
ENDROOT
BRANCH   3   5
ATOM      5  C   UNL     1       2.724   4.601  18.040  0.00  0.00    +0.000 A 
ATOM      6  C   UNL     1       1.670   3.674  18.053  0.00  0.00    +0.000 A 
ATOM      7  C   UNL     1       1.923   2.305  18.025  0.00  0.00    +0.000 A 
ATOM      8  C   UNL     1       3.230   1.855  17.907  0.00  0.00    +0.000 A 
ATOM      9  C   UNL     1       4.283   2.774  17.865  0.00  0.00    +0.000 A 
ATOM     10  C   UNL     1       4.071   4.168  17.982  0.00  0.00    +0.000 A 
BRANCH  10  11
ATOM     11  C   UNL     1       5.246   5.082  18.045  0.00  0.00    +0.000 A 
ATOM     12  C   UNL     1       6.118   5.126  19.147  0.00  0.00    +0.000 A 
ATOM     13  C   UNL     1       7.285   5.900  19.129  0.00  0.00    +0.000 A 
ATOM     14  C   UNL     1       7.575   6.697  18.029  0.00  0.00    +0.000 A 
ATOM     15  C   UNL     1       6.689   6.738  16.957  0.00  0.00    +0.000 A 
ATOM     16  C   UNL     1       5.546   5.936  16.967  0.00  0.00    +0.000 A 
ENDBRANCH  10  11
ENDBRANCH   3   5
BRANCH   2  17
ATOM     17  C   UNL     1       1.801   7.976  19.445  0.00  0.00    +0.000 A 
ATOM     18  C   UNL     1       1.309   8.486  20.648  0.00  0.00    +0.000 A 
ATOM     19  C   UNL     1       0.885   9.812  20.730  0.00  0.00    +0.000 A 
ATOM     20  C   UNL     1       0.937  10.650  19.605  0.00  0.00    +0.000 A 
ATOM     21  C   UNL     1       1.401  10.125  18.394  0.00  0.00    +0.000 A 
ATOM     22  C   UNL     1       1.831   8.794  18.309  0.00  0.00    +0.000 A 
BRANCH  20  23
ATOM     23  C   UNL     1       0.476  12.080  19.709  0.00  0.00    +0.000 C 
BRANCH  23  24
ATOM     24  O   UNL     1       0.380  12.433  21.087  0.00  0.00    +0.000 OA
BRANCH  24  25
ATOM     25  C   UNL     1      -0.928  12.915  21.428  0.00  0.00    +0.000 C 
BRANCH  25  26
ATOM     26  C   UNL     1      -1.398  12.451  22.809  0.00  0.00    +0.000 C 
ATOM     27  F   UNL     1      -1.246  13.391  23.766  0.00  0.00    +0.000 F 
ATOM     28  F   UNL     1      -2.708  12.109  22.779  0.00  0.00    +0.000 F 
ATOM     29  F   UNL     1      -0.709  11.353  23.205  0.00  0.00    +0.000 F 
ENDBRANCH  25  26
ENDBRANCH  24  25
ENDBRANCH  23  24
ENDBRANCH  20  23
ENDBRANCH   2  17
TORSDOF 7
ENDMDL
MODEL 8
REMARK VINA RESULT:      -7.7      0.925      1.675
REMARK  Name = 
REMARK  7 active torsions:
REMARK  status: ('A' for Active; 'I' for Inactive)
REMARK    1  A    between atoms: C_2  and  C_16
REMARK    2  A    between atoms: N_3  and  C_4
REMARK    3  A    between atoms: C_9  and  C_10
REMARK    4  A    between atoms: C_19  and  C_20
REMARK    5  A    between atoms: C_20  and  O_21
REMARK    6  A    between atoms: O_21  and  C_22
REMARK    7  A    between atoms: C_22  and  C_23
REMARK                            x       y       z     vdW  Elec       q    Type
REMARK                         _______ _______ _______ _____ _____    ______ ____
ROOT
ATOM      1  O   UNL     1       2.203   6.096  20.416  0.00  0.00    +0.000 OA
ATOM      2  C   UNL     1       2.190   6.635  19.313  0.00  0.00    +0.000 C 
ATOM      3  N   UNL     1       2.433   5.999  18.108  0.00  0.00    +0.000 N 
ATOM      4  H   UNL     1       2.162   6.455  17.240  0.00  0.00    +0.000 HD
ENDROOT
BRANCH   3   5
ATOM      5  C   UNL     1       2.662   4.606  18.035  0.00  0.00    +0.000 A 
ATOM      6  C   UNL     1       1.537   3.772  18.127  0.00  0.00    +0.000 A 
ATOM      7  C   UNL     1       1.676   2.388  18.172  0.00  0.00    +0.000 A 
ATOM      8  C   UNL     1       2.939   1.825  18.049  0.00  0.00    +0.000 A 
ATOM      9  C   UNL     1       4.061   2.650  17.929  0.00  0.00    +0.000 A 
ATOM     10  C   UNL     1       3.967   4.061  17.970  0.00  0.00    +0.000 A 
BRANCH  10  11
ATOM     11  C   UNL     1       5.215   4.875  17.953  0.00  0.00    +0.000 A 
ATOM     12  C   UNL     1       5.623   5.620  16.832  0.00  0.00    +0.000 A 
ATOM     13  C   UNL     1       6.730   6.477  16.884  0.00  0.00    +0.000 A 
ATOM     14  C   UNL     1       7.494   6.559  18.042  0.00  0.00    +0.000 A 
ATOM     15  C   UNL     1       7.164   5.771  19.140  0.00  0.00    +0.000 A 
ATOM     16  C   UNL     1       6.037   4.947  19.094  0.00  0.00    +0.000 A 
ENDBRANCH  10  11
ENDBRANCH   3   5
BRANCH   2  17
ATOM     17  C   UNL     1       1.879   8.091  19.243  0.00  0.00    +0.000 A 
ATOM     18  C   UNL     1       1.290   8.683  20.362  0.00  0.00    +0.000 A 
ATOM     19  C   UNL     1       0.991  10.045  20.364  0.00  0.00    +0.000 A 
ATOM     20  C   UNL     1       1.266  10.838  19.239  0.00  0.00    +0.000 A 
ATOM     21  C   UNL     1       1.826  10.234  18.108  0.00  0.00    +0.000 A 
ATOM     22  C   UNL     1       2.132   8.867  18.105  0.00  0.00    +0.000 A 
BRANCH  20  23
ATOM     23  C   UNL     1       0.938  12.308  19.255  0.00  0.00    +0.000 C 
BRANCH  23  24
ATOM     24  O   UNL     1      -0.142  12.548  18.356  0.00  0.00    +0.000 OA
BRANCH  24  25
ATOM     25  C   UNL     1      -1.288  13.093  19.026  0.00  0.00    +0.000 C 
BRANCH  25  26
ATOM     26  C   UNL     1      -2.152  12.025  19.701  0.00  0.00    +0.000 C 
ATOM     27  F   UNL     1      -1.812  11.800  20.988  0.00  0.00    +0.000 F 
ATOM     28  F   UNL     1      -3.458  12.385  19.682  0.00  0.00    +0.000 F 
ATOM     29  F   UNL     1      -2.055  10.845  19.042  0.00  0.00    +0.000 F 
ENDBRANCH  25  26
ENDBRANCH  24  25
ENDBRANCH  23  24
ENDBRANCH  20  23
ENDBRANCH   2  17
TORSDOF 7
ENDMDL
MODEL 9
REMARK VINA RESULT:      -7.7      2.210      2.779
REMARK  Name = 
REMARK  7 active torsions:
REMARK  status: ('A' for Active; 'I' for Inactive)
REMARK    1  A    between atoms: C_2  and  C_16
REMARK    2  A    between atoms: N_3  and  C_4
REMARK    3  A    between atoms: C_9  and  C_10
REMARK    4  A    between atoms: C_19  and  C_20
REMARK    5  A    between atoms: C_20  and  O_21
REMARK    6  A    between atoms: O_21  and  C_22
REMARK    7  A    between atoms: C_22  and  C_23
REMARK                            x       y       z     vdW  Elec       q    Type
REMARK                         _______ _______ _______ _____ _____    ______ ____
ROOT
ATOM      1  O   UNL     1       2.346   5.978  20.617  0.00  0.00    +0.000 OA
ATOM      2  C   UNL     1       2.181   6.567  19.553  0.00  0.00    +0.000 C 
ATOM      3  N   UNL     1       2.349   6.012  18.296  0.00  0.00    +0.000 N 
ATOM      4  H   UNL     1       1.958   6.487  17.485  0.00  0.00    +0.000 HD
ENDROOT
BRANCH   3   5
ATOM      5  C   UNL     1       2.677   4.649  18.123  0.00  0.00    +0.000 A 
ATOM      6  C   UNL     1       1.614   3.733  18.148  0.00  0.00    +0.000 A 
ATOM      7  C   UNL     1       1.851   2.362  18.093  0.00  0.00    +0.000 A 
ATOM      8  C   UNL     1       3.151   1.901  17.934  0.00  0.00    +0.000 A 
ATOM      9  C   UNL     1       4.211   2.809  17.880  0.00  0.00    +0.000 A 
ATOM     10  C   UNL     1       4.017   4.204  18.023  0.00  0.00    +0.000 A 
BRANCH  10  11
ATOM     11  C   UNL     1       5.204   5.103  18.071  0.00  0.00    +0.000 A 
ATOM     12  C   UNL     1       6.103   5.121  19.151  0.00  0.00    +0.000 A 
ATOM     13  C   UNL     1       7.279   5.883  19.115  0.00  0.00    +0.000 A 
ATOM     14  C   UNL     1       7.549   6.695  18.021  0.00  0.00    +0.000 A 
ATOM     15  C   UNL     1       6.637   6.762  16.973  0.00  0.00    +0.000 A 
ATOM     16  C   UNL     1       5.486   5.972  16.999  0.00  0.00    +0.000 A 
ENDBRANCH  10  11
ENDBRANCH   3   5
BRANCH   2  17
ATOM     17  C   UNL     1       1.752   7.994  19.595  0.00  0.00    +0.000 A 
ATOM     18  C   UNL     1       1.274   8.491  20.809  0.00  0.00    +0.000 A 
ATOM     19  C   UNL     1       0.874   9.823  20.917  0.00  0.00    +0.000 A 
ATOM     20  C   UNL     1       0.936  10.680  19.807  0.00  0.00    +0.000 A 
ATOM     21  C   UNL     1       1.386  10.168  18.584  0.00  0.00    +0.000 A 
ATOM     22  C   UNL     1       1.792   8.832  18.475  0.00  0.00    +0.000 A 
BRANCH  20  23
ATOM     23  C   UNL     1       0.502  12.116  19.938  0.00  0.00    +0.000 C 
BRANCH  23  24
ATOM     24  O   UNL     1       0.574  12.736  18.656  0.00  0.00    +0.000 OA
BRANCH  24  25
ATOM     25  C   UNL     1       1.229  14.011  18.711  0.00  0.00    +0.000 C 
BRANCH  25  26
ATOM     26  C   UNL     1       2.741  13.919  18.485  0.00  0.00    +0.000 C 
ATOM     27  F   UNL     1       3.228  14.922  17.724  0.00  0.00    +0.000 F 
ATOM     28  F   UNL     1       3.403  13.945  19.666  0.00  0.00    +0.000 F 
ATOM     29  F   UNL     1       3.062  12.753  17.874  0.00  0.00    +0.000 F 
ENDBRANCH  25  26
ENDBRANCH  24  25
ENDBRANCH  23  24
ENDBRANCH  20  23
ENDBRANCH   2  17
TORSDOF 7
ENDMDL
