MODEL 1
REMARK VINA RESULT:      -8.4      0.000      0.000
REMARK  Name = 
REMARK  9 active torsions:
REMARK  status: ('A' for Active; 'I' for Inactive)
REMARK    1  A    between atoms: C_1  and  C_2
REMARK    2  A    between atoms: N_10  and  C_11
REMARK    3  A    between atoms: C_11  and  C_12
REMARK    4  A    between atoms: C_12  and  N_13
REMARK    5  A    between atoms: C_14  and  C_16
REMARK    6  A    between atoms: C_20  and  S_21
REMARK    7  A    between atoms: S_21  and  N_24
REMARK    8  A    between atoms: N_24  and  C_25
REMARK    9  A    between atoms: C_25  and  C_26
REMARK                            x       y       z     vdW  Elec       q    Type
REMARK                         _______ _______ _______ _____ _____    ______ ____
ROOT
ATOM      1  C   UNL     1       3.068   6.981  18.910  0.00  0.00    +0.000 A 
ATOM      2  C   UNL     1       2.983   7.533  17.624  0.00  0.00    +0.000 A 
ATOM      3  C   UNL     1       3.958   7.249  16.665  0.00  0.00    +0.000 A 
ATOM      4  C   UNL     1       5.032   6.419  16.987  0.00  0.00    +0.000 A 
ATOM      5  C   UNL     1       5.125   5.877  18.272  0.00  0.00    +0.000 A 
ATOM      6  C   UNL     1       4.150   6.155  19.235  0.00  0.00    +0.000 A 
ENDROOT
BRANCH   1   8
ATOM      7  N   UNL     1       1.486   8.591  19.872  0.00  0.00    +0.000 N 
ATOM      8  C   UNL     1       2.011   7.309  19.908  0.00  0.00    +0.000 C 
ATOM      9  O   UNL     1       1.654   6.465  20.721  0.00  0.00    +0.000 OA
ATOM     10  H   UNL     1       1.986   9.311  19.368  0.00  0.00    +0.000 HD
BRANCH   7  11
ATOM     11  C   UNL     1       0.489   8.981  20.859  0.00  0.00    +0.000 C 
BRANCH  11  12
ATOM     12  C   UNL     1      -0.427  10.106  20.386  0.00  0.00    +0.000 C 
BRANCH  12  22
ATOM     13  C   UNL     1      -1.161  11.710  22.903  0.00  0.00    +0.000 C 
ATOM     14  C   UNL     1      -0.218  12.154  21.845  0.00  0.00    +0.000 A 
ATOM     15  N   UNL     1       0.423  13.304  21.844  0.00  0.00    +0.000 NA
ATOM     16  C   UNL     1       1.174  13.314  20.700  0.00  0.00    +0.000 A 
ATOM     17  C   UNL     1       2.037  14.310  20.214  0.00  0.00    +0.000 A 
ATOM     18  C   UNL     1       2.707  14.091  19.004  0.00  0.00    +0.000 A 
ATOM     19  C   UNL     1       2.523  12.904  18.294  0.00  0.00    +0.000 A 
ATOM     20  C   UNL     1       1.663  11.901  18.762  0.00  0.00    +0.000 A 
ATOM     21  C   UNL     1       1.002  12.138  19.975  0.00  0.00    +0.000 A 
ATOM     22  N   UNL     1       0.099  11.416  20.725  0.00  0.00    +0.000 N 
ENDBRANCH  12  22
ENDBRANCH  11  12
ENDBRANCH   7  11
ENDBRANCH   1   8
BRANCH   5  23
ATOM     23  S   UNL     1       6.422   4.718  18.659  0.00  0.00    +0.000 S 
ATOM     24  O   UNL     1       7.168   4.517  17.437  0.00  0.00    +0.000 OA
ATOM     25  O   UNL     1       7.046   5.172  19.881  0.00  0.00    +0.000 OA
BRANCH  23  26
ATOM     26  N   UNL     1       5.592   3.299  19.034  0.00  0.00    +0.000 NA
ATOM     27  H   UNL     1       5.525   3.122  20.036  0.00  0.00    +0.000 HD
BRANCH  26  28
ATOM     28  C   UNL     1       4.348   3.051  18.293  0.00  0.00    +0.000 C 
BRANCH  28  29
ATOM     29  C   UNL     1       3.146   3.008  19.202  0.00  0.00    +0.000 A 
ATOM     30  C   UNL     1       3.294   2.782  20.578  0.00  0.00    +0.000 A 
ATOM     31  C   UNL     1       2.178   2.771  21.416  0.00  0.00    +0.000 A 
ATOM     32  C   UNL     1       0.907   2.986  20.889  0.00  0.00    +0.000 A 
ATOM     33  C   UNL     1       0.747   3.213  19.524  0.00  0.00    +0.000 A 
ATOM     34  C   UNL     1       1.862   3.224  18.682  0.00  0.00    +0.000 A 
ENDBRANCH  28  29
ENDBRANCH  26  28
ENDBRANCH  23  26
ENDBRANCH   5  23
TORSDOF 8
ENDMDL
MODEL 2
REMARK VINA RESULT:      -8.3      3.193      8.322
REMARK  Name = 
REMARK  9 active torsions:
REMARK  status: ('A' for Active; 'I' for Inactive)
REMARK    1  A    between atoms: C_1  and  C_2
REMARK    2  A    between atoms: N_10  and  C_11
REMARK    3  A    between atoms: C_11  and  C_12
REMARK    4  A    between atoms: C_12  and  N_13
REMARK    5  A    between atoms: C_14  and  C_16
REMARK    6  A    between atoms: C_20  and  S_21
REMARK    7  A    between atoms: S_21  and  N_24
REMARK    8  A    between atoms: N_24  and  C_25
REMARK    9  A    between atoms: C_25  and  C_26
REMARK                            x       y       z     vdW  Elec       q    Type
REMARK                         _______ _______ _______ _____ _____    ______ ____
ROOT
ATOM      1  C   UNL     1       1.859   7.342  19.646  0.00  0.00    +0.000 A 
ATOM      2  C   UNL     1       2.302   7.621  18.345  0.00  0.00    +0.000 A 
ATOM      3  C   UNL     1       2.186   8.911  17.819  0.00  0.00    +0.000 A 
ATOM      4  C   UNL     1       1.615   9.928  18.585  0.00  0.00    +0.000 A 
ATOM      5  C   UNL     1       1.162   9.648  19.877  0.00  0.00    +0.000 A 
ATOM      6  C   UNL     1       1.280   8.361  20.410  0.00  0.00    +0.000 A 
ENDROOT
BRANCH   1   8
ATOM      7  N   UNL     1       3.273   5.416  20.204  0.00  0.00    +0.000 N 
ATOM      8  C   UNL     1       1.997   5.954  20.172  0.00  0.00    +0.000 C 
ATOM      9  O   UNL     1       1.003   5.338  20.538  0.00  0.00    +0.000 OA
ATOM     10  H   UNL     1       4.004   5.855  19.660  0.00  0.00    +0.000 HD
BRANCH   7  11
ATOM     11  C   UNL     1       3.457   4.044  20.657  0.00  0.00    +0.000 C 
BRANCH  11  12
ATOM     12  C   UNL     1       4.357   3.218  19.744  0.00  0.00    +0.000 C 
BRANCH  12  22
ATOM     13  C   UNL     1       2.811   2.939  17.103  0.00  0.00    +0.000 C 
ATOM     14  C   UNL     1       3.998   3.806  17.318  0.00  0.00    +0.000 A 
ATOM     15  N   UNL     1       4.550   4.566  16.395  0.00  0.00    +0.000 NA
ATOM     16  C   UNL     1       5.607   5.187  17.003  0.00  0.00    +0.000 A 
ATOM     17  C   UNL     1       6.531   6.098  16.465  0.00  0.00    +0.000 A 
ATOM     18  C   UNL     1       7.539   6.606  17.293  0.00  0.00    +0.000 A 
ATOM     19  C   UNL     1       7.624   6.216  18.631  0.00  0.00    +0.000 A 
ATOM     20  C   UNL     1       6.713   5.306  19.184  0.00  0.00    +0.000 A 
ATOM     21  C   UNL     1       5.711   4.809  18.340  0.00  0.00    +0.000 A 
ATOM     22  N   UNL     1       4.674   3.918  18.513  0.00  0.00    +0.000 N 
ENDBRANCH  12  22
ENDBRANCH  11  12
ENDBRANCH   7  11
ENDBRANCH   1   8
BRANCH   5  23
ATOM     23  S   UNL     1       0.547  10.963  20.910  0.00  0.00    +0.000 S 
ATOM     24  O   UNL     1       0.775  10.550  22.276  0.00  0.00    +0.000 OA
ATOM     25  O   UNL     1       1.070  12.201  20.378  0.00  0.00    +0.000 OA
BRANCH  23  26
ATOM     26  N   UNL     1      -1.112  10.966  20.609  0.00  0.00    +0.000 NA
ATOM     27  H   UNL     1      -1.677  10.842  21.449  0.00  0.00    +0.000 HD
BRANCH  26  28
ATOM     28  C   UNL     1      -1.611  12.000  19.693  0.00  0.00    +0.000 C 
BRANCH  28  29
ATOM     29  C   UNL     1      -2.319  11.409  18.501  0.00  0.00    +0.000 A 
ATOM     30  C   UNL     1      -1.674  10.481  17.671  0.00  0.00    +0.000 A 
ATOM     31  C   UNL     1      -2.346   9.918  16.585  0.00  0.00    +0.000 A 
ATOM     32  C   UNL     1      -3.666  10.275  16.319  0.00  0.00    +0.000 A 
ATOM     33  C   UNL     1      -4.318  11.195  17.138  0.00  0.00    +0.000 A 
ATOM     34  C   UNL     1      -3.648  11.761  18.225  0.00  0.00    +0.000 A 
ENDBRANCH  28  29
ENDBRANCH  26  28
ENDBRANCH  23  26
ENDBRANCH   5  23
TORSDOF 8
ENDMDL
MODEL 3
REMARK VINA RESULT:      -8.3      2.323      4.345
REMARK  Name = 
REMARK  9 active torsions:
REMARK  status: ('A' for Active; 'I' for Inactive)
REMARK    1  A    between atoms: C_1  and  C_2
REMARK    2  A    between atoms: N_10  and  C_11
REMARK    3  A    between atoms: C_11  and  C_12
REMARK    4  A    between atoms: C_12  and  N_13
REMARK    5  A    between atoms: C_14  and  C_16
REMARK    6  A    between atoms: C_20  and  S_21
REMARK    7  A    between atoms: S_21  and  N_24
REMARK    8  A    between atoms: N_24  and  C_25
REMARK    9  A    between atoms: C_25  and  C_26
REMARK                            x       y       z     vdW  Elec       q    Type
REMARK                         _______ _______ _______ _____ _____    ______ ____
ROOT
ATOM      1  C   UNL     1       2.184   6.818  18.868  0.00  0.00    +0.000 A 
ATOM      2  C   UNL     1       1.874   6.796  20.236  0.00  0.00    +0.000 A 
ATOM      3  C   UNL     1       1.784   5.582  20.922  0.00  0.00    +0.000 A 
ATOM      4  C   UNL     1       1.991   4.380  20.244  0.00  0.00    +0.000 A 
ATOM      5  C   UNL     1       2.288   4.401  18.878  0.00  0.00    +0.000 A 
ATOM      6  C   UNL     1       2.384   5.613  18.188  0.00  0.00    +0.000 A 
ENDROOT
BRANCH   1   8
ATOM      7  N   UNL     1       1.601   9.200  18.750  0.00  0.00    +0.000 N 
ATOM      8  C   UNL     1       2.268   8.133  18.170  0.00  0.00    +0.000 C 
ATOM      9  O   UNL     1       2.896   8.229  17.122  0.00  0.00    +0.000 OA
ATOM     10  H   UNL     1       0.899   9.014  19.454  0.00  0.00    +0.000 HD
BRANCH   7  11
ATOM     11  C   UNL     1       1.606  10.493  18.080  0.00  0.00    +0.000 C 
BRANCH  11  12
ATOM     12  C   UNL     1       1.826  11.667  19.028  0.00  0.00    +0.000 C 
BRANCH  12  22
ATOM     13  C   UNL     1      -0.224  13.886  18.466  0.00  0.00    +0.000 C 
ATOM     14  C   UNL     1      -0.278  12.933  19.605  0.00  0.00    +0.000 A 
ATOM     15  N   UNL     1      -1.213  12.922  20.532  0.00  0.00    +0.000 NA
ATOM     16  C   UNL     1      -0.885  11.902  21.383  0.00  0.00    +0.000 A 
ATOM     17  C   UNL     1      -1.548  11.467  22.543  0.00  0.00    +0.000 A 
ATOM     18  C   UNL     1      -1.016  10.388  23.259  0.00  0.00    +0.000 A 
ATOM     19  C   UNL     1       0.151   9.754  22.827  0.00  0.00    +0.000 A 
ATOM     20  C   UNL     1       0.827  10.177  21.675  0.00  0.00    +0.000 A 
ATOM     21  C   UNL     1       0.279  11.258  20.972  0.00  0.00    +0.000 A 
ATOM     22  N   UNL     1       0.652  11.943  19.836  0.00  0.00    +0.000 N 
ENDBRANCH  12  22
ENDBRANCH  11  12
ENDBRANCH   7  11
ENDBRANCH   1   8
BRANCH   5  23
ATOM     23  S   UNL     1       2.678   2.884  18.028  0.00  0.00    +0.000 S 
ATOM     24  O   UNL     1       2.234   1.809  18.887  0.00  0.00    +0.000 OA
ATOM     25  O   UNL     1       2.214   3.029  16.666  0.00  0.00    +0.000 OA
BRANCH  23  26
ATOM     26  N   UNL     1       4.363   2.879  17.970  0.00  0.00    +0.000 NA
ATOM     27  H   UNL     1       4.736   3.004  17.030  0.00  0.00    +0.000 HD
BRANCH  26  28
ATOM     28  C   UNL     1       5.057   3.659  19.003  0.00  0.00    +0.000 C 
BRANCH  28  29
ATOM     29  C   UNL     1       5.881   4.774  18.413  0.00  0.00    +0.000 A 
ATOM     30  C   UNL     1       6.845   5.440  19.185  0.00  0.00    +0.000 A 
ATOM     31  C   UNL     1       7.623   6.453  18.623  0.00  0.00    +0.000 A 
ATOM     32  C   UNL     1       7.447   6.811  17.289  0.00  0.00    +0.000 A 
ATOM     33  C   UNL     1       6.493   6.156  16.512  0.00  0.00    +0.000 A 
ATOM     34  C   UNL     1       5.713   5.142  17.071  0.00  0.00    +0.000 A 
ENDBRANCH  28  29
ENDBRANCH  26  28
ENDBRANCH  23  26
ENDBRANCH   5  23
TORSDOF 8
ENDMDL
MODEL 4
REMARK VINA RESULT:      -8.2      3.529      9.210
REMARK  Name = 
REMARK  9 active torsions:
REMARK  status: ('A' for Active; 'I' for Inactive)
REMARK    1  A    between atoms: C_1  and  C_2
REMARK    2  A    between atoms: N_10  and  C_11
REMARK    3  A    between atoms: C_11  and  C_12
REMARK    4  A    between atoms: C_12  and  N_13
REMARK    5  A    between atoms: C_14  and  C_16
REMARK    6  A    between atoms: C_20  and  S_21
REMARK    7  A    between atoms: S_21  and  N_24
REMARK    8  A    between atoms: N_24  and  C_25
REMARK    9  A    between atoms: C_25  and  C_26
REMARK                            x       y       z     vdW  Elec       q    Type
REMARK                         _______ _______ _______ _____ _____    ______ ____
ROOT
ATOM      1  C   UNL     1       0.751   9.390  20.365  0.00  0.00    +0.000 A 
ATOM      2  C   UNL     1       0.288   8.472  21.319  0.00  0.00    +0.000 A 
ATOM      3  C   UNL     1      -0.385   8.916  22.461  0.00  0.00    +0.000 A 
ATOM      4  C   UNL     1      -0.589  10.281  22.665  0.00  0.00    +0.000 A 
ATOM      5  C   UNL     1      -0.116  11.198  21.720  0.00  0.00    +0.000 A 
ATOM      6  C   UNL     1       0.553  10.759  20.574  0.00  0.00    +0.000 A 
ENDROOT
BRANCH   1   8
ATOM      7  N   UNL     1       2.312   7.797  19.341  0.00  0.00    +0.000 N 
ATOM      8  C   UNL     1       1.466   8.879  19.161  0.00  0.00    +0.000 C 
ATOM      9  O   UNL     1       1.303   9.425  18.076  0.00  0.00    +0.000 OA
ATOM     10  H   UNL     1       2.606   7.556  20.279  0.00  0.00    +0.000 HD
BRANCH   7  11
ATOM     11  C   UNL     1       3.076   7.293  18.209  0.00  0.00    +0.000 C 
BRANCH  11  12
ATOM     12  C   UNL     1       2.644   5.902  17.755  0.00  0.00    +0.000 C 
BRANCH  12  22
ATOM     13  C   UNL     1       5.503   4.867  17.311  0.00  0.00    +0.000 C 
ATOM     14  C   UNL     1       4.560   4.372  18.347  0.00  0.00    +0.000 A 
ATOM     15  N   UNL     1       4.826   3.412  19.208  0.00  0.00    +0.000 NA
ATOM     16  C   UNL     1       3.698   3.268  19.969  0.00  0.00    +0.000 A 
ATOM     17  C   UNL     1       3.448   2.377  21.026  0.00  0.00    +0.000 A 
ATOM     18  C   UNL     1       2.202   2.416  21.662  0.00  0.00    +0.000 A 
ATOM     19  C   UNL     1       1.224   3.325  21.254  0.00  0.00    +0.000 A 
ATOM     20  C   UNL     1       1.454   4.218  20.199  0.00  0.00    +0.000 A 
ATOM     21  C   UNL     1       2.707   4.164  19.575  0.00  0.00    +0.000 A 
ATOM     22  N   UNL     1       3.282   4.853  18.529  0.00  0.00    +0.000 N 
ENDBRANCH  12  22
ENDBRANCH  11  12
ENDBRANCH   7  11
ENDBRANCH   1   8
BRANCH   5  23
ATOM     23  S   UNL     1      -0.479  12.933  21.905  0.00  0.00    +0.000 S 
ATOM     24  O   UNL     1      -1.400  13.042  23.013  0.00  0.00    +0.000 OA
ATOM     25  O   UNL     1       0.784  13.635  21.876  0.00  0.00    +0.000 OA
BRANCH  23  26
ATOM     26  N   UNL     1      -1.287  13.326  20.478  0.00  0.00    +0.000 NA
ATOM     27  H   UNL     1      -0.732  13.158  19.639  0.00  0.00    +0.000 HD
BRANCH  26  28
ATOM     28  C   UNL     1      -2.686  12.891  20.375  0.00  0.00    +0.000 C 
BRANCH  28  29
ATOM     29  C   UNL     1      -2.922  12.024  19.164  0.00  0.00    +0.000 A 
ATOM     30  C   UNL     1      -4.223  11.766  18.709  0.00  0.00    +0.000 A 
ATOM     31  C   UNL     1      -4.431  10.984  17.572  0.00  0.00    +0.000 A 
ATOM     32  C   UNL     1      -3.345  10.455  16.879  0.00  0.00    +0.000 A 
ATOM     33  C   UNL     1      -2.047  10.706  17.321  0.00  0.00    +0.000 A 
ATOM     34  C   UNL     1      -1.835  11.487  18.459  0.00  0.00    +0.000 A 
ENDBRANCH  28  29
ENDBRANCH  26  28
ENDBRANCH  23  26
ENDBRANCH   5  23
TORSDOF 8
ENDMDL
MODEL 5
REMARK VINA RESULT:      -8.2      3.295      8.774
REMARK  Name = 
REMARK  9 active torsions:
REMARK  status: ('A' for Active; 'I' for Inactive)
REMARK    1  A    between atoms: C_1  and  C_2
REMARK    2  A    between atoms: N_10  and  C_11
REMARK    3  A    between atoms: C_11  and  C_12
REMARK    4  A    between atoms: C_12  and  N_13
REMARK    5  A    between atoms: C_14  and  C_16
REMARK    6  A    between atoms: C_20  and  S_21
REMARK    7  A    between atoms: S_21  and  N_24
REMARK    8  A    between atoms: N_24  and  C_25
REMARK    9  A    between atoms: C_25  and  C_26
REMARK                            x       y       z     vdW  Elec       q    Type
REMARK                         _______ _______ _______ _____ _____    ______ ____
ROOT
ATOM      1  C   UNL     1       1.976   8.376  19.229  0.00  0.00    +0.000 A 
ATOM      2  C   UNL     1       1.827   7.289  20.102  0.00  0.00    +0.000 A 
ATOM      3  C   UNL     1       1.146   7.441  21.313  0.00  0.00    +0.000 A 
ATOM      4  C   UNL     1       0.619   8.684  21.666  0.00  0.00    +0.000 A 
ATOM      5  C   UNL     1       0.777   9.772  20.801  0.00  0.00    +0.000 A 
ATOM      6  C   UNL     1       1.454   9.623  19.586  0.00  0.00    +0.000 A 
ENDROOT
BRANCH   1   8
ATOM      7  N   UNL     1       3.612   7.125  17.894  0.00  0.00    +0.000 N 
ATOM      8  C   UNL     1       2.710   8.176  17.947  0.00  0.00    +0.000 C 
ATOM      9  O   UNL     1       2.514   8.934  17.005  0.00  0.00    +0.000 OA
ATOM     10  H   UNL     1       3.923   6.702  18.760  0.00  0.00    +0.000 HD
BRANCH   7  11
ATOM     11  C   UNL     1       4.396   6.918  16.685  0.00  0.00    +0.000 C 
BRANCH  11  12
ATOM     12  C   UNL     1       4.747   5.455  16.431  0.00  0.00    +0.000 C 
BRANCH  12  22
ATOM     13  C   UNL     1       7.066   4.983  18.391  0.00  0.00    +0.000 C 
ATOM     14  C   UNL     1       5.694   4.430  18.532  0.00  0.00    +0.000 A 
ATOM     15  N   UNL     1       5.295   3.653  19.518  0.00  0.00    +0.000 NA
ATOM     16  C   UNL     1       3.980   3.371  19.263  0.00  0.00    +0.000 A 
ATOM     17  C   UNL     1       3.084   2.579  20.000  0.00  0.00    +0.000 A 
ATOM     18  C   UNL     1       1.771   2.437  19.536  0.00  0.00    +0.000 A 
ATOM     19  C   UNL     1       1.358   3.071  18.364  0.00  0.00    +0.000 A 
ATOM     20  C   UNL     1       2.239   3.862  17.614  0.00  0.00    +0.000 A 
ATOM     21  C   UNL     1       3.549   3.993  18.094  0.00  0.00    +0.000 A 
ATOM     22  N   UNL     1       4.668   4.658  17.641  0.00  0.00    +0.000 N 
ENDBRANCH  12  22
ENDBRANCH  11  12
ENDBRANCH   7  11
ENDBRANCH   1   8
BRANCH   5  23
ATOM     23  S   UNL     1       0.003  11.331  21.180  0.00  0.00    +0.000 S 
ATOM     24  O   UNL     1      -0.021  11.436  22.621  0.00  0.00    +0.000 OA
ATOM     25  O   UNL     1       0.627  12.330  20.341  0.00  0.00    +0.000 OA
BRANCH  23  26
ATOM     26  N   UNL     1      -1.575  11.141  20.618  0.00  0.00    +0.000 NA
ATOM     27  H   UNL     1      -2.255  10.986  21.362  0.00  0.00    +0.000 HD
BRANCH  26  28
ATOM     28  C   UNL     1      -2.021  12.080  19.580  0.00  0.00    +0.000 C 
BRANCH  28  29
ATOM     29  C   UNL     1      -2.435  11.373  18.315  0.00  0.00    +0.000 A 
ATOM     30  C   UNL     1      -1.609  10.402  17.732  0.00  0.00    +0.000 A 
ATOM     31  C   UNL     1      -2.012   9.733  16.575  0.00  0.00    +0.000 A 
ATOM     32  C   UNL     1      -3.243  10.025  15.992  0.00  0.00    +0.000 A 
ATOM     33  C   UNL     1      -4.073  10.988  16.564  0.00  0.00    +0.000 A 
ATOM     34  C   UNL     1      -3.672  11.659  17.720  0.00  0.00    +0.000 A 
ENDBRANCH  28  29
ENDBRANCH  26  28
ENDBRANCH  23  26
ENDBRANCH   5  23
TORSDOF 8
ENDMDL
MODEL 6
REMARK VINA RESULT:      -8.2      3.750      9.021
REMARK  Name = 
REMARK  9 active torsions:
REMARK  status: ('A' for Active; 'I' for Inactive)
REMARK    1  A    between atoms: C_1  and  C_2
REMARK    2  A    between atoms: N_10  and  C_11
REMARK    3  A    between atoms: C_11  and  C_12
REMARK    4  A    between atoms: C_12  and  N_13
REMARK    5  A    between atoms: C_14  and  C_16
REMARK    6  A    between atoms: C_20  and  S_21
REMARK    7  A    between atoms: S_21  and  N_24
REMARK    8  A    between atoms: N_24  and  C_25
REMARK    9  A    between atoms: C_25  and  C_26
REMARK                            x       y       z     vdW  Elec       q    Type
REMARK                         _______ _______ _______ _____ _____    ______ ____
ROOT
ATOM      1  C   UNL     1       0.600   9.590  20.967  0.00  0.00    +0.000 A 
ATOM      2  C   UNL     1       0.094   9.014  22.142  0.00  0.00    +0.000 A 
ATOM      3  C   UNL     1      -0.663   9.776  23.036  0.00  0.00    +0.000 A 
ATOM      4  C   UNL     1      -0.910  11.123  22.768  0.00  0.00    +0.000 A 
ATOM      5  C   UNL     1      -0.396  11.701  21.604  0.00  0.00    +0.000 A 
ATOM      6  C   UNL     1       0.358  10.942  20.704  0.00  0.00    +0.000 A 
ENDROOT
BRANCH   1   8
ATOM      7  N   UNL     1       1.883   7.543  20.535  0.00  0.00    +0.000 N 
ATOM      8  C   UNL     1       1.405   8.746  20.039  0.00  0.00    +0.000 C 
ATOM      9  O   UNL     1       1.630   9.134  18.899  0.00  0.00    +0.000 OA
ATOM     10  H   UNL     1       1.893   7.394  21.535  0.00  0.00    +0.000 HD
BRANCH   7  11
ATOM     11  C   UNL     1       2.721   6.706  19.687  0.00  0.00    +0.000 C 
BRANCH  11  12
ATOM     12  C   UNL     1       2.153   5.307  19.463  0.00  0.00    +0.000 C 
BRANCH  12  22
ATOM     13  C   UNL     1       2.215   2.240  19.292  0.00  0.00    +0.000 C 
ATOM     14  C   UNL     1       2.997   3.166  18.432  0.00  0.00    +0.000 A 
ATOM     15  N   UNL     1       3.831   2.788  17.485  0.00  0.00    +0.000 NA
ATOM     16  C   UNL     1       4.336   3.941  16.949  0.00  0.00    +0.000 A 
ATOM     17  C   UNL     1       5.272   4.102  15.913  0.00  0.00    +0.000 A 
ATOM     18  C   UNL     1       5.640   5.398  15.533  0.00  0.00    +0.000 A 
ATOM     19  C   UNL     1       5.087   6.510  16.169  0.00  0.00    +0.000 A 
ATOM     20  C   UNL     1       4.156   6.368  17.207  0.00  0.00    +0.000 A 
ATOM     21  C   UNL     1       3.799   5.064  17.574  0.00  0.00    +0.000 A 
ATOM     22  N   UNL     1       2.951   4.539  18.525  0.00  0.00    +0.000 N 
ENDBRANCH  12  22
ENDBRANCH  11  12
ENDBRANCH   7  11
ENDBRANCH   1   8
BRANCH   5  23
ATOM     23  S   UNL     1      -0.809  13.384  21.188  0.00  0.00    +0.000 S 
ATOM     24  O   UNL     1      -1.725  13.843  22.207  0.00  0.00    +0.000 OA
ATOM     25  O   UNL     1       0.433  14.066  20.899  0.00  0.00    +0.000 OA
BRANCH  23  26
ATOM     26  N   UNL     1      -1.638  13.243  19.727  0.00  0.00    +0.000 NA
ATOM     27  H   UNL     1      -1.023  13.143  18.920  0.00  0.00    +0.000 HD
BRANCH  26  28
ATOM     28  C   UNL     1      -2.800  12.345  19.715  0.00  0.00    +0.000 C 
BRANCH  28  29
ATOM     29  C   UNL     1      -2.868  11.522  18.454  0.00  0.00    +0.000 A 
ATOM     30  C   UNL     1      -1.844  10.621  18.129  0.00  0.00    +0.000 A 
ATOM     31  C   UNL     1      -1.927   9.844  16.973  0.00  0.00    +0.000 A 
ATOM     32  C   UNL     1      -3.033   9.957  16.133  0.00  0.00    +0.000 A 
ATOM     33  C   UNL     1      -4.058  10.848  16.447  0.00  0.00    +0.000 A 
ATOM     34  C   UNL     1      -3.977  11.628  17.603  0.00  0.00    +0.000 A 
ENDBRANCH  28  29
ENDBRANCH  26  28
ENDBRANCH  23  26
ENDBRANCH   5  23
TORSDOF 8
ENDMDL
MODEL 7
REMARK VINA RESULT:      -8.2      3.282      5.028
REMARK  Name = 
REMARK  9 active torsions:
REMARK  status: ('A' for Active; 'I' for Inactive)
REMARK    1  A    between atoms: C_1  and  C_2
REMARK    2  A    between atoms: N_10  and  C_11
REMARK    3  A    between atoms: C_11  and  C_12
REMARK    4  A    between atoms: C_12  and  N_13
REMARK    5  A    between atoms: C_14  and  C_16
REMARK    6  A    between atoms: C_20  and  S_21
REMARK    7  A    between atoms: S_21  and  N_24
REMARK    8  A    between atoms: N_24  and  C_25
REMARK    9  A    between atoms: C_25  and  C_26
REMARK                            x       y       z     vdW  Elec       q    Type
REMARK                         _______ _______ _______ _____ _____    ______ ____
ROOT
ATOM      1  C   UNL     1       2.909   7.049  18.322  0.00  0.00    +0.000 A 
ATOM      2  C   UNL     1       2.111   5.986  18.769  0.00  0.00    +0.000 A 
ATOM      3  C   UNL     1       2.655   4.707  18.920  0.00  0.00    +0.000 A 
ATOM      4  C   UNL     1       3.998   4.479  18.616  0.00  0.00    +0.000 A 
ATOM      5  C   UNL     1       4.791   5.536  18.158  0.00  0.00    +0.000 A 
ATOM      6  C   UNL     1       4.253   6.818  18.009  0.00  0.00    +0.000 A 
ENDROOT
BRANCH   1   8
ATOM      7  N   UNL     1       1.458   8.829  19.189  0.00  0.00    +0.000 N 
ATOM      8  C   UNL     1       2.293   8.398  18.170  0.00  0.00    +0.000 C 
ATOM      9  O   UNL     1       2.523   9.065  17.169  0.00  0.00    +0.000 OA
ATOM     10  H   UNL     1       1.102   8.151  19.850  0.00  0.00    +0.000 HD
BRANCH   7  11
ATOM     11  C   UNL     1       0.788  10.115  19.065  0.00  0.00    +0.000 C 
BRANCH  11  12
ATOM     12  C   UNL     1      -0.285  10.346  20.124  0.00  0.00    +0.000 C 
BRANCH  12  22
ATOM     13  C   UNL     1      -1.835  12.610  21.509  0.00  0.00    +0.000 C 
ATOM     14  C   UNL     1      -2.166  12.026  20.183  0.00  0.00    +0.000 A 
ATOM     15  N   UNL     1      -3.178  12.401  19.429  0.00  0.00    +0.000 NA
ATOM     16  C   UNL     1      -3.123  11.615  18.310  0.00  0.00    +0.000 A 
ATOM     17  C   UNL     1      -3.975  11.600  17.193  0.00  0.00    +0.000 A 
ATOM     18  C   UNL     1      -3.714  10.695  16.157  0.00  0.00    +0.000 A 
ATOM     19  C   UNL     1      -2.626   9.823  16.232  0.00  0.00    +0.000 A 
ATOM     20  C   UNL     1      -1.769   9.821  17.341  0.00  0.00    +0.000 A 
ATOM     21  C   UNL     1      -2.046  10.734  18.367  0.00  0.00    +0.000 A 
ATOM     22  N   UNL     1      -1.454  11.012  19.580  0.00  0.00    +0.000 N 
ENDBRANCH  12  22
ENDBRANCH  11  12
ENDBRANCH   7  11
ENDBRANCH   1   8
BRANCH   5  23
ATOM     23  S   UNL     1       6.534   5.288  17.885  0.00  0.00    +0.000 S 
ATOM     24  O   UNL     1       7.037   6.517  17.314  0.00  0.00    +0.000 OA
ATOM     25  O   UNL     1       7.077   4.718  19.098  0.00  0.00    +0.000 OA
BRANCH  23  26
ATOM     26  N   UNL     1       6.586   4.077  16.713  0.00  0.00    +0.000 NA
ATOM     27  H   UNL     1       6.718   3.143  17.101  0.00  0.00    +0.000 HD
BRANCH  26  28
ATOM     28  C   UNL     1       5.579   4.151  15.647  0.00  0.00    +0.000 C 
BRANCH  28  29
ATOM     29  C   UNL     1       6.205   4.178  14.276  0.00  0.00    +0.000 A 
ATOM     30  C   UNL     1       5.710   3.366  13.245  0.00  0.00    +0.000 A 
ATOM     31  C   UNL     1       6.278   3.416  11.971  0.00  0.00    +0.000 A 
ATOM     32  C   UNL     1       7.343   4.277  11.715  0.00  0.00    +0.000 A 
ATOM     33  C   UNL     1       7.842   5.090  12.731  0.00  0.00    +0.000 A 
ATOM     34  C   UNL     1       7.276   5.041  14.007  0.00  0.00    +0.000 A 
ENDBRANCH  28  29
ENDBRANCH  26  28
ENDBRANCH  23  26
ENDBRANCH   5  23
TORSDOF 8
ENDMDL
MODEL 8
REMARK VINA RESULT:      -8.1      2.451      4.475
REMARK  Name = 
REMARK  9 active torsions:
REMARK  status: ('A' for Active; 'I' for Inactive)
REMARK    1  A    between atoms: C_1  and  C_2
REMARK    2  A    between atoms: N_10  and  C_11
REMARK    3  A    between atoms: C_11  and  C_12
REMARK    4  A    between atoms: C_12  and  N_13
REMARK    5  A    between atoms: C_14  and  C_16
REMARK    6  A    between atoms: C_20  and  S_21
REMARK    7  A    between atoms: S_21  and  N_24
REMARK    8  A    between atoms: N_24  and  C_25
REMARK    9  A    between atoms: C_25  and  C_26
REMARK                            x       y       z     vdW  Elec       q    Type
REMARK                         _______ _______ _______ _____ _____    ______ ____
ROOT
ATOM      1  C   UNL     1       2.211   5.635  20.175  0.00  0.00    +0.000 A 
ATOM      2  C   UNL     1       2.083   4.993  21.415  0.00  0.00    +0.000 A 
ATOM      3  C   UNL     1       2.295   3.616  21.525  0.00  0.00    +0.000 A 
ATOM      4  C   UNL     1       2.626   2.868  20.394  0.00  0.00    +0.000 A 
ATOM      5  C   UNL     1       2.741   3.506  19.155  0.00  0.00    +0.000 A 
ATOM      6  C   UNL     1       2.534   4.884  19.041  0.00  0.00    +0.000 A 
ENDROOT
BRANCH   1   8
ATOM      7  N   UNL     1       1.425   7.716  21.213  0.00  0.00    +0.000 N 
ATOM      8  C   UNL     1       1.974   7.105  20.097  0.00  0.00    +0.000 C 
ATOM      9  O   UNL     1       2.250   7.715  19.071  0.00  0.00    +0.000 OA
ATOM     10  H   UNL     1       0.983   7.141  21.918  0.00  0.00    +0.000 HD
BRANCH   7  11
ATOM     11  C   UNL     1       1.122   9.140  21.170  0.00  0.00    +0.000 C 
BRANCH  11  12
ATOM     12  C   UNL     1      -0.371   9.446  21.235  0.00  0.00    +0.000 C 
BRANCH  12  22
ATOM     13  C   UNL     1      -0.481  10.183  18.253  0.00  0.00    +0.000 C 
ATOM     14  C   UNL     1      -0.732  11.118  19.381  0.00  0.00    +0.000 A 
ATOM     15  N   UNL     1      -1.027  12.394  19.247  0.00  0.00    +0.000 NA
ATOM     16  C   UNL     1      -1.173  12.880  20.517  0.00  0.00    +0.000 A 
ATOM     17  C   UNL     1      -1.481  14.185  20.939  0.00  0.00    +0.000 A 
ATOM     18  C   UNL     1      -1.579  14.445  22.311  0.00  0.00    +0.000 A 
ATOM     19  C   UNL     1      -1.374  13.428  23.244  0.00  0.00    +0.000 A 
ATOM     20  C   UNL     1      -1.061  12.122  22.842  0.00  0.00    +0.000 A 
ATOM     21  C   UNL     1      -0.969  11.880  21.465  0.00  0.00    +0.000 A 
ATOM     22  N   UNL     1      -0.680  10.764  20.711  0.00  0.00    +0.000 N 
ENDBRANCH  12  22
ENDBRANCH  11  12
ENDBRANCH   7  11
ENDBRANCH   1   8
BRANCH   5  23
ATOM     23  S   UNL     1       3.284   2.587  17.728  0.00  0.00    +0.000 S 
ATOM     24  O   UNL     1       3.318   1.198  18.125  0.00  0.00    +0.000 OA
ATOM     25  O   UNL     1       2.505   3.052  16.602  0.00  0.00    +0.000 OA
BRANCH  23  26
ATOM     26  N   UNL     1       4.863   3.126  17.482  0.00  0.00    +0.000 NA
ATOM     27  H   UNL     1       5.515   2.377  17.248  0.00  0.00    +0.000 HD
BRANCH  26  28
ATOM     28  C   UNL     1       5.024   4.341  16.673  0.00  0.00    +0.000 C 
BRANCH  28  29
ATOM     29  C   UNL     1       6.050   5.278  17.255  0.00  0.00    +0.000 A 
ATOM     30  C   UNL     1       6.164   6.597  16.790  0.00  0.00    +0.000 A 
ATOM     31  C   UNL     1       7.099   7.467  17.353  0.00  0.00    +0.000 A 
ATOM     32  C   UNL     1       7.927   7.030  18.384  0.00  0.00    +0.000 A 
ATOM     33  C   UNL     1       7.823   5.722  18.855  0.00  0.00    +0.000 A 
ATOM     34  C   UNL     1       6.889   4.849  18.293  0.00  0.00    +0.000 A 
ENDBRANCH  28  29
ENDBRANCH  26  28
ENDBRANCH  23  26
ENDBRANCH   5  23
TORSDOF 8
ENDMDL
MODEL 9
REMARK VINA RESULT:      -8.1      2.108      3.973
REMARK  Name = 
REMARK  9 active torsions:
REMARK  status: ('A' for Active; 'I' for Inactive)
REMARK    1  A    between atoms: C_1  and  C_2
REMARK    2  A    between atoms: N_10  and  C_11
REMARK    3  A    between atoms: C_11  and  C_12
REMARK    4  A    between atoms: C_12  and  N_13
REMARK    5  A    between atoms: C_14  and  C_16
REMARK    6  A    between atoms: C_20  and  S_21
REMARK    7  A    between atoms: S_21  and  N_24
REMARK    8  A    between atoms: N_24  and  C_25
REMARK    9  A    between atoms: C_25  and  C_26
REMARK                            x       y       z     vdW  Elec       q    Type
REMARK                         _______ _______ _______ _____ _____    ______ ____
ROOT
ATOM      1  C   UNL     1       2.109   5.915  19.781  0.00  0.00    +0.000 A 
ATOM      2  C   UNL     1       1.623   5.369  20.977  0.00  0.00    +0.000 A 
ATOM      3  C   UNL     1       1.608   3.985  21.170  0.00  0.00    +0.000 A 
ATOM      4  C   UNL     1       2.067   3.136  20.163  0.00  0.00    +0.000 A 
ATOM      5  C   UNL     1       2.541   3.678  18.964  0.00  0.00    +0.000 A 
ATOM      6  C   UNL     1       2.562   5.063  18.769  0.00  0.00    +0.000 A 
ENDROOT
BRANCH   1   8
ATOM      7  N   UNL     1       2.095   7.883  18.313  0.00  0.00    +0.000 N 
ATOM      8  C   UNL     1       2.106   7.396  19.611  0.00  0.00    +0.000 C 
ATOM      9  O   UNL     1       2.129   8.124  20.596  0.00  0.00    +0.000 OA
ATOM     10  H   UNL     1       2.337   7.259  17.554  0.00  0.00    +0.000 HD
BRANCH   7  11
ATOM     11  C   UNL     1       2.148   9.321  18.091  0.00  0.00    +0.000 C 
BRANCH  11  12
ATOM     12  C   UNL     1       0.836  10.033  18.406  0.00  0.00    +0.000 C 
BRANCH  12  22
ATOM     13  C   UNL     1      -0.410  10.107  21.214  0.00  0.00    +0.000 C 
ATOM     14  C   UNL     1       0.464  11.158  20.633  0.00  0.00    +0.000 A 
ATOM     15  N   UNL     1       0.813  12.270  21.247  0.00  0.00    +0.000 NA
ATOM     16  C   UNL     1       1.609  12.950  20.367  0.00  0.00    +0.000 A 
ATOM     17  C   UNL     1       2.239  14.196  20.521  0.00  0.00    +0.000 A 
ATOM     18  C   UNL     1       3.015  14.695  19.467  0.00  0.00    +0.000 A 
ATOM     19  C   UNL     1       3.161  13.967  18.285  0.00  0.00    +0.000 A 
ATOM     20  C   UNL     1       2.536  12.725  18.113  0.00  0.00    +0.000 A 
ATOM     21  C   UNL     1       1.765  12.242  19.178  0.00  0.00    +0.000 A 
ATOM     22  N   UNL     1       1.014  11.102  19.371  0.00  0.00    +0.000 N 
ENDBRANCH  12  22
ENDBRANCH  11  12
ENDBRANCH   7  11
ENDBRANCH   1   8
BRANCH   5  23
ATOM     23  S   UNL     1       3.245   2.614  17.721  0.00  0.00    +0.000 S 
ATOM     24  O   UNL     1       3.159   1.268  18.240  0.00  0.00    +0.000 OA
ATOM     25  O   UNL     1       2.661   2.995  16.455  0.00  0.00    +0.000 OA
BRANCH  23  26
ATOM     26  N   UNL     1       4.865   3.079  17.669  0.00  0.00    +0.000 NA
ATOM     27  H   UNL     1       5.514   2.295  17.747  0.00  0.00    +0.000 HD
BRANCH  26  28
ATOM     28  C   UNL     1       5.232   4.066  16.646  0.00  0.00    +0.000 C 
BRANCH  28  29
ATOM     29  C   UNL     1       6.147   5.133  17.190  0.00  0.00    +0.000 A 
ATOM     30  C   UNL     1       6.060   6.456  16.731  0.00  0.00    +0.000 A 
ATOM     31  C   UNL     1       6.892   7.444  17.260  0.00  0.00    +0.000 A 
ATOM     32  C   UNL     1       7.817   7.121  18.250  0.00  0.00    +0.000 A 
ATOM     33  C   UNL     1       7.911   5.811  18.715  0.00  0.00    +0.000 A 
ATOM     34  C   UNL     1       7.081   4.820  18.188  0.00  0.00    +0.000 A 
ENDBRANCH  28  29
ENDBRANCH  26  28
ENDBRANCH  23  26
ENDBRANCH   5  23
TORSDOF 8
ENDMDL
