MODEL 1
REMARK VINA RESULT:      -8.3      0.000      0.000
REMARK  Name = 
REMARK  5 active torsions:
REMARK  status: ('A' for Active; 'I' for Inactive)
REMARK    1  A    between atoms: C_1  and  C_2
REMARK    2  A    between atoms: C_4  and  C_5
REMARK    3  A    between atoms: C_9  and  N_10
REMARK    4  A    between atoms: N_16  and  C_17
REMARK    5  A    between atoms: C_27  and  C_28
REMARK                            x       y       z     vdW  Elec       q    Type
REMARK                         _______ _______ _______ _____ _____    ______ ____
ROOT
ATOM      1  N   UNL     1       1.408   7.061  21.077  0.00  0.00    +0.000 N 
ATOM      2  C   UNL     1       1.350   8.252  20.385  0.00  0.00    +0.000 C 
ATOM      3  O   UNL     1       1.642   8.371  19.194  0.00  0.00    +0.000 OA
ATOM      4  N   UNL     1       0.916   9.359  21.096  0.00  0.00    +0.000 N 
ATOM      5  C   UNL     1       0.565   9.456  22.522  0.00  0.00    +0.000 C 
ATOM      6  C   UNL     1      -0.761  10.218  22.730  0.00  0.00    +0.000 C 
ATOM      7  N   UNL     1      -0.749  11.501  22.011  0.00  0.00    +0.000 N 
ATOM      8  C   UNL     1      -0.409  11.415  20.582  0.00  0.00    +0.000 C 
ATOM      9  C   UNL     1       0.922  10.663  20.410  0.00  0.00    +0.000 C 
ATOM     10  H   UNL     1       0.951   7.017  21.969  0.00  0.00    +0.000 HD
ENDROOT
BRANCH   1  15
ATOM     11  C   UNL     1       3.482   4.565  19.238  0.00  0.00    +0.000 A 
ATOM     12  C   UNL     1       2.827   3.376  19.602  0.00  0.00    +0.000 A 
ATOM     13  C   UNL     1       1.687   3.399  20.393  0.00  0.00    +0.000 A 
ATOM     14  C   UNL     1       1.191   4.612  20.852  0.00  0.00    +0.000 A 
ATOM     15  C   UNL     1       1.841   5.813  20.555  0.00  0.00    +0.000 A 
ATOM     16  C   UNL     1       2.976   5.787  19.717  0.00  0.00    +0.000 A 
BRANCH  11  20
ATOM     17  C   UNL     1       8.127   4.492  17.654  0.00  0.00    +0.000 C 
ATOM     18  C   UNL     1       6.653   4.404  17.624  0.00  0.00    +0.000 A 
ATOM     19  N   UNL     1       5.927   4.504  18.779  0.00  0.00    +0.000 NA
ATOM     20  C   UNL     1       4.667   4.428  18.392  0.00  0.00    +0.000 A 
ATOM     21  O   UNL     1       4.507   4.258  17.039  0.00  0.00    +0.000 OA
ATOM     22  C   UNL     1       5.795   4.251  16.557  0.00  0.00    +0.000 A 
ATOM     23  C   UNL     1       6.001   4.126  15.103  0.00  0.00    +0.000 C 
ENDBRANCH  11  20
ENDBRANCH   1  15
BRANCH   7  24
ATOM     24  C   UNL     1      -1.047  12.707  22.612  0.00  0.00    +0.000 A 
ATOM     25  C   UNL     1      -0.224  13.831  22.459  0.00  0.00    +0.000 A 
ATOM     26  C   UNL     1      -0.549  15.070  23.025  0.00  0.00    +0.000 A 
ATOM     27  C   UNL     1      -1.713  15.211  23.771  0.00  0.00    +0.000 A 
ATOM     28  C   UNL     1      -2.543  14.113  23.955  0.00  0.00    +0.000 A 
ATOM     29  C   UNL     1      -2.208  12.880  23.384  0.00  0.00    +0.000 A 
ENDBRANCH   7  24
TORSDOF 3
ENDMDL
MODEL 2
REMARK VINA RESULT:      -8.3      2.575      4.544
REMARK  Name = 
REMARK  5 active torsions:
REMARK  status: ('A' for Active; 'I' for Inactive)
REMARK    1  A    between atoms: C_1  and  C_2
REMARK    2  A    between atoms: C_4  and  C_5
REMARK    3  A    between atoms: C_9  and  N_10
REMARK    4  A    between atoms: N_16  and  C_17
REMARK    5  A    between atoms: C_27  and  C_28
REMARK                            x       y       z     vdW  Elec       q    Type
REMARK                         _______ _______ _______ _____ _____    ______ ____
ROOT
ATOM      1  N   UNL     1       3.974   7.142  17.386  0.00  0.00    +0.000 N 
ATOM      2  C   UNL     1       3.264   7.004  18.559  0.00  0.00    +0.000 C 
ATOM      3  O   UNL     1       3.494   6.140  19.406  0.00  0.00    +0.000 OA
ATOM      4  N   UNL     1       2.248   7.922  18.778  0.00  0.00    +0.000 N 
ATOM      5  C   UNL     1       1.774   8.996  17.892  0.00  0.00    +0.000 C 
ATOM      6  C   UNL     1       1.596  10.326  18.655  0.00  0.00    +0.000 C 
ATOM      7  N   UNL     1       0.790  10.131  19.870  0.00  0.00    +0.000 N 
ATOM      8  C   UNL     1       1.261   9.065  20.769  0.00  0.00    +0.000 C 
ATOM      9  C   UNL     1       1.416   7.753  19.981  0.00  0.00    +0.000 C 
ATOM     10  H   UNL     1       3.861   7.994  16.869  0.00  0.00    +0.000 HD
ENDROOT
BRANCH   1  15
ATOM     11  C   UNL     1       5.952   4.833  15.225  0.00  0.00    +0.000 A 
ATOM     12  C   UNL     1       7.141   4.749  15.969  0.00  0.00    +0.000 A 
ATOM     13  C   UNL     1       7.271   5.394  17.190  0.00  0.00    +0.000 A 
ATOM     14  C   UNL     1       6.218   6.154  17.682  0.00  0.00    +0.000 A 
ATOM     15  C   UNL     1       5.036   6.306  16.951  0.00  0.00    +0.000 A 
ATOM     16  C   UNL     1       4.895   5.614  15.729  0.00  0.00    +0.000 A 
BRANCH  11  20
ATOM     17  C   UNL     1       7.300   2.431  11.163  0.00  0.00    +0.000 C 
ATOM     18  C   UNL     1       6.427   3.081  12.160  0.00  0.00    +0.000 A 
ATOM     19  N   UNL     1       6.945   3.560  13.332  0.00  0.00    +0.000 NA
ATOM     20  C   UNL     1       5.918   4.105  13.957  0.00  0.00    +0.000 A 
ATOM     21  O   UNL     1       4.729   3.996  13.278  0.00  0.00    +0.000 OA
ATOM     22  C   UNL     1       5.074   3.341  12.120  0.00  0.00    +0.000 A 
ATOM     23  C   UNL     1       4.025   3.089  11.117  0.00  0.00    +0.000 C 
ENDBRANCH  11  20
ENDBRANCH   1  15
BRANCH   7  24
ATOM     24  C   UNL     1      -0.321  10.892  20.170  0.00  0.00    +0.000 A 
ATOM     25  C   UNL     1      -0.543  11.396  21.460  0.00  0.00    +0.000 A 
ATOM     26  C   UNL     1      -1.643  12.210  21.757  0.00  0.00    +0.000 A 
ATOM     27  C   UNL     1      -2.557  12.537  20.762  0.00  0.00    +0.000 A 
ATOM     28  C   UNL     1      -2.373  12.042  19.478  0.00  0.00    +0.000 A 
ATOM     29  C   UNL     1      -1.271  11.229  19.192  0.00  0.00    +0.000 A 
ENDBRANCH   7  24
TORSDOF 3
ENDMDL
MODEL 3
REMARK VINA RESULT:      -8.2      0.649      1.472
REMARK  Name = 
REMARK  5 active torsions:
REMARK  status: ('A' for Active; 'I' for Inactive)
REMARK    1  A    between atoms: C_1  and  C_2
REMARK    2  A    between atoms: C_4  and  C_5
REMARK    3  A    between atoms: C_9  and  N_10
REMARK    4  A    between atoms: N_16  and  C_17
REMARK    5  A    between atoms: C_27  and  C_28
REMARK                            x       y       z     vdW  Elec       q    Type
REMARK                         _______ _______ _______ _____ _____    ______ ____
ROOT
ATOM      1  N   UNL     1       1.381   7.252  20.996  0.00  0.00    +0.000 N 
ATOM      2  C   UNL     1       1.338   8.455  20.325  0.00  0.00    +0.000 C 
ATOM      3  O   UNL     1       1.634   8.591  19.137  0.00  0.00    +0.000 OA
ATOM      4  N   UNL     1       0.915   9.555  21.054  0.00  0.00    +0.000 N 
ATOM      5  C   UNL     1       0.562   9.631  22.480  0.00  0.00    +0.000 C 
ATOM      6  C   UNL     1      -0.756  10.404  22.699  0.00  0.00    +0.000 C 
ATOM      7  N   UNL     1      -0.728  11.700  22.002  0.00  0.00    +0.000 N 
ATOM      8  C   UNL     1      -0.385  11.634  20.572  0.00  0.00    +0.000 C 
ATOM      9  C   UNL     1       0.937  10.870  20.391  0.00  0.00    +0.000 C 
ATOM     10  H   UNL     1       0.921   7.198  21.886  0.00  0.00    +0.000 HD
ENDROOT
BRANCH   1  15
ATOM     11  C   UNL     1       3.368   4.782  19.031  0.00  0.00    +0.000 A 
ATOM     12  C   UNL     1       2.766   3.584  19.450  0.00  0.00    +0.000 A 
ATOM     13  C   UNL     1       1.685   3.590  20.321  0.00  0.00    +0.000 A 
ATOM     14  C   UNL     1       1.199   4.797  20.805  0.00  0.00    +0.000 A 
ATOM     15  C   UNL     1       1.800   6.008  20.454  0.00  0.00    +0.000 A 
ATOM     16  C   UNL     1       2.873   5.998  19.536  0.00  0.00    +0.000 A 
BRANCH  11  20
ATOM     17  C   UNL     1       6.056   3.957  15.008  0.00  0.00    +0.000 C 
ATOM     18  C   UNL     1       5.727   4.296  16.407  0.00  0.00    +0.000 A 
ATOM     19  N   UNL     1       4.425   4.393  16.812  0.00  0.00    +0.000 NA
ATOM     20  C   UNL     1       4.492   4.661  18.103  0.00  0.00    +0.000 A 
ATOM     21  O   UNL     1       5.773   4.774  18.584  0.00  0.00    +0.000 OA
ATOM     22  C   UNL     1       6.558   4.528  17.482  0.00  0.00    +0.000 A 
ATOM     23  C   UNL     1       8.022   4.528  17.648  0.00  0.00    +0.000 C 
ENDBRANCH  11  20
ENDBRANCH   1  15
BRANCH   7  24
ATOM     24  C   UNL     1      -1.014  12.898  22.624  0.00  0.00    +0.000 A 
ATOM     25  C   UNL     1      -2.107  13.037  23.490  0.00  0.00    +0.000 A 
ATOM     26  C   UNL     1      -2.372  14.237  24.162  0.00  0.00    +0.000 A 
ATOM     27  C   UNL     1      -1.544  15.338  23.975  0.00  0.00    +0.000 A 
ATOM     28  C   UNL     1      -0.461  15.237  23.112  0.00  0.00    +0.000 A 
ATOM     29  C   UNL     1      -0.206  14.033  22.446  0.00  0.00    +0.000 A 
ENDBRANCH   7  24
TORSDOF 3
ENDMDL
MODEL 4
REMARK VINA RESULT:      -8.2      1.157      1.688
REMARK  Name = 
REMARK  5 active torsions:
REMARK  status: ('A' for Active; 'I' for Inactive)
REMARK    1  A    between atoms: C_1  and  C_2
REMARK    2  A    between atoms: C_4  and  C_5
REMARK    3  A    between atoms: C_9  and  N_10
REMARK    4  A    between atoms: N_16  and  C_17
REMARK    5  A    between atoms: C_27  and  C_28
REMARK                            x       y       z     vdW  Elec       q    Type
REMARK                         _______ _______ _______ _____ _____    ______ ____
ROOT
ATOM      1  N   UNL     1       1.313   7.528  21.095  0.00  0.00    +0.000 N 
ATOM      2  C   UNL     1       1.065   8.742  20.491  0.00  0.00    +0.000 C 
ATOM      3  O   UNL     1       1.273   8.973  19.299  0.00  0.00    +0.000 OA
ATOM      4  N   UNL     1       0.532   9.735  21.297  0.00  0.00    +0.000 N 
ATOM      5  C   UNL     1       0.251   9.696  22.741  0.00  0.00    +0.000 C 
ATOM      6  C   UNL     1      -1.149  10.261  23.063  0.00  0.00    +0.000 C 
ATOM      7  N   UNL     1      -1.341  11.577  22.436  0.00  0.00    +0.000 N 
ATOM      8  C   UNL     1      -1.072  11.627  20.990  0.00  0.00    +0.000 C 
ATOM      9  C   UNL     1       0.332  11.069  20.704  0.00  0.00    +0.000 C 
ATOM     10  H   UNL     1       0.916   7.368  22.002  0.00  0.00    +0.000 HD
ENDROOT
BRANCH   1  15
ATOM     11  C   UNL     1       3.548   5.455  18.945  0.00  0.00    +0.000 A 
ATOM     12  C   UNL     1       3.111   4.166  19.297  0.00  0.00    +0.000 A 
ATOM     13  C   UNL     1       2.060   3.982  20.184  0.00  0.00    +0.000 A 
ATOM     14  C   UNL     1       1.437   5.086  20.751  0.00  0.00    +0.000 A 
ATOM     15  C   UNL     1       1.873   6.383  20.468  0.00  0.00    +0.000 A 
ATOM     16  C   UNL     1       2.916   6.565  19.535  0.00  0.00    +0.000 A 
BRANCH  11  20
ATOM     17  C   UNL     1       6.718   4.415  15.346  0.00  0.00    +0.000 C 
ATOM     18  C   UNL     1       6.086   5.140  16.466  0.00  0.00    +0.000 A 
ATOM     19  N   UNL     1       4.909   4.698  17.005  0.00  0.00    +0.000 NA
ATOM     20  C   UNL     1       4.655   5.535  17.994  0.00  0.00    +0.000 A 
ATOM     21  O   UNL     1       5.588   6.533  18.134  0.00  0.00    +0.000 OA
ATOM     22  C   UNL     1       6.507   6.261  17.148  0.00  0.00    +0.000 A 
ATOM     23  C   UNL     1       7.692   7.129  17.033  0.00  0.00    +0.000 C 
ENDBRANCH  11  20
ENDBRANCH   1  15
BRANCH   7  24
ATOM     24  C   UNL     1      -1.758  12.693  23.133  0.00  0.00    +0.000 A 
ATOM     25  C   UNL     1      -3.028  12.762  23.723  0.00  0.00    +0.000 A 
ATOM     26  C   UNL     1      -3.436  13.871  24.473  0.00  0.00    +0.000 A 
ATOM     27  C   UNL     1      -2.577  14.950  24.647  0.00  0.00    +0.000 A 
ATOM     28  C   UNL     1      -1.317  14.919  24.063  0.00  0.00    +0.000 A 
ATOM     29  C   UNL     1      -0.920  13.805  23.315  0.00  0.00    +0.000 A 
ENDBRANCH   7  24
TORSDOF 3
ENDMDL
MODEL 5
REMARK VINA RESULT:      -8.2      2.556      3.896
REMARK  Name = 
REMARK  5 active torsions:
REMARK  status: ('A' for Active; 'I' for Inactive)
REMARK    1  A    between atoms: C_1  and  C_2
REMARK    2  A    between atoms: C_4  and  C_5
REMARK    3  A    between atoms: C_9  and  N_10
REMARK    4  A    between atoms: N_16  and  C_17
REMARK    5  A    between atoms: C_27  and  C_28
REMARK                            x       y       z     vdW  Elec       q    Type
REMARK                         _______ _______ _______ _____ _____    ______ ____
ROOT
ATOM      1  N   UNL     1       0.773  10.055  20.230  0.00  0.00    +0.000 N 
ATOM      2  C   UNL     1      -0.308  10.777  19.772  0.00  0.00    +0.000 C 
ATOM      3  O   UNL     1      -0.816  10.625  18.661  0.00  0.00    +0.000 OA
ATOM      4  N   UNL     1      -0.845  11.708  20.647  0.00  0.00    +0.000 N 
ATOM      5  C   UNL     1      -0.375  12.085  21.990  0.00  0.00    +0.000 C 
ATOM      6  C   UNL     1      -1.538  12.146  23.003  0.00  0.00    +0.000 C 
ATOM      7  N   UNL     1      -2.643  12.968  22.485  0.00  0.00    +0.000 N 
ATOM      8  C   UNL     1      -3.128  12.594  21.146  0.00  0.00    +0.000 C 
ATOM      9  C   UNL     1      -1.948  12.554  20.160  0.00  0.00    +0.000 C 
ATOM     10  H   UNL     1       0.978  10.093  21.211  0.00  0.00    +0.000 HD
ENDROOT
BRANCH   1  15
ATOM     11  C   UNL     1       2.348   6.782  19.382  0.00  0.00    +0.000 A 
ATOM     12  C   UNL     1       2.771   7.039  18.067  0.00  0.00    +0.000 A 
ATOM     13  C   UNL     1       2.593   8.287  17.487  0.00  0.00    +0.000 A 
ATOM     14  C   UNL     1       1.970   9.298  18.207  0.00  0.00    +0.000 A 
ATOM     15  C   UNL     1       1.488   9.070  19.499  0.00  0.00    +0.000 A 
ATOM     16  C   UNL     1       1.709   7.811  20.098  0.00  0.00    +0.000 A 
BRANCH  11  20
ATOM     17  C   UNL     1       4.270   2.328  20.128  0.00  0.00    +0.000 C 
ATOM     18  C   UNL     1       3.355   3.480  20.258  0.00  0.00    +0.000 A 
ATOM     19  N   UNL     1       3.616   4.652  19.604  0.00  0.00    +0.000 NA
ATOM     20  C   UNL     1       2.596   5.437  19.899  0.00  0.00    +0.000 A 
ATOM     21  O   UNL     1       1.674   4.862  20.738  0.00  0.00    +0.000 OA
ATOM     22  C   UNL     1       2.172   3.599  20.955  0.00  0.00    +0.000 A 
ATOM     23  C   UNL     1       1.397   2.671  21.796  0.00  0.00    +0.000 C 
ENDBRANCH  11  20
ENDBRANCH   1  15
BRANCH   7  24
ATOM     24  C   UNL     1      -3.208  14.008  23.194  0.00  0.00    +0.000 A 
ATOM     25  C   UNL     1      -4.438  14.571  22.824  0.00  0.00    +0.000 A 
ATOM     26  C   UNL     1      -5.038  15.593  23.570  0.00  0.00    +0.000 A 
ATOM     27  C   UNL     1      -4.413  16.084  24.710  0.00  0.00    +0.000 A 
ATOM     28  C   UNL     1      -3.186  15.558  25.095  0.00  0.00    +0.000 A 
ATOM     29  C   UNL     1      -2.596  14.537  24.342  0.00  0.00    +0.000 A 
ENDBRANCH   7  24
TORSDOF 3
ENDMDL
MODEL 6
REMARK VINA RESULT:      -8.1      2.497      3.923
REMARK  Name = 
REMARK  5 active torsions:
REMARK  status: ('A' for Active; 'I' for Inactive)
REMARK    1  A    between atoms: C_1  and  C_2
REMARK    2  A    between atoms: C_4  and  C_5
REMARK    3  A    between atoms: C_9  and  N_10
REMARK    4  A    between atoms: N_16  and  C_17
REMARK    5  A    between atoms: C_27  and  C_28
REMARK                            x       y       z     vdW  Elec       q    Type
REMARK                         _______ _______ _______ _____ _____    ______ ____
ROOT
ATOM      1  N   UNL     1       0.752  10.100  20.271  0.00  0.00    +0.000 N 
ATOM      2  C   UNL     1      -0.349  10.801  19.828  0.00  0.00    +0.000 C 
ATOM      3  O   UNL     1      -0.884  10.620  18.733  0.00  0.00    +0.000 OA
ATOM      4  N   UNL     1      -0.871  11.746  20.696  0.00  0.00    +0.000 N 
ATOM      5  C   UNL     1      -0.370  12.156  22.017  0.00  0.00    +0.000 C 
ATOM      6  C   UNL     1      -1.506  12.229  23.060  0.00  0.00    +0.000 C 
ATOM      7  N   UNL     1      -2.633  13.028  22.554  0.00  0.00    +0.000 N 
ATOM      8  C   UNL     1      -3.149  12.621  21.237  0.00  0.00    +0.000 C 
ATOM      9  C   UNL     1      -1.995  12.570  20.221  0.00  0.00    +0.000 C 
ATOM     10  H   UNL     1       0.982  10.160  21.246  0.00  0.00    +0.000 HD
ENDROOT
BRANCH   1  15
ATOM     11  C   UNL     1       2.205   6.781  19.383  0.00  0.00    +0.000 A 
ATOM     12  C   UNL     1       2.716   7.064  18.105  0.00  0.00    +0.000 A 
ATOM     13  C   UNL     1       2.635   8.340  17.566  0.00  0.00    +0.000 A 
ATOM     14  C   UNL     1       2.024   9.355  18.290  0.00  0.00    +0.000 A 
ATOM     15  C   UNL     1       1.457   9.106  19.543  0.00  0.00    +0.000 A 
ATOM     16  C   UNL     1       1.578   7.815  20.103  0.00  0.00    +0.000 A 
BRANCH  11  20
ATOM     17  C   UNL     1       1.612   2.594  21.874  0.00  0.00    +0.000 C 
ATOM     18  C   UNL     1       2.175   3.566  20.916  0.00  0.00    +0.000 A 
ATOM     19  N   UNL     1       1.583   4.785  20.733  0.00  0.00    +0.000 NA
ATOM     20  C   UNL     1       2.353   5.407  19.859  0.00  0.00    +0.000 A 
ATOM     21  O   UNL     1       3.421   4.660  19.426  0.00  0.00    +0.000 OA
ATOM     22  C   UNL     1       3.297   3.480  20.121  0.00  0.00    +0.000 A 
ATOM     23  C   UNL     1       4.322   2.439  19.927  0.00  0.00    +0.000 C 
ENDBRANCH  11  20
ENDBRANCH   1  15
BRANCH   7  24
ATOM     24  C   UNL     1      -3.188  14.078  23.255  0.00  0.00    +0.000 A 
ATOM     25  C   UNL     1      -4.430  14.626  22.903  0.00  0.00    +0.000 A 
ATOM     26  C   UNL     1      -5.021  15.658  23.642  0.00  0.00    +0.000 A 
ATOM     27  C   UNL     1      -4.374  16.175  24.758  0.00  0.00    +0.000 A 
ATOM     28  C   UNL     1      -3.136  15.664  25.126  0.00  0.00    +0.000 A 
ATOM     29  C   UNL     1      -2.555  14.633  24.380  0.00  0.00    +0.000 A 
ENDBRANCH   7  24
TORSDOF 3
ENDMDL
MODEL 7
REMARK VINA RESULT:      -7.9      2.524      4.546
REMARK  Name = 
REMARK  5 active torsions:
REMARK  status: ('A' for Active; 'I' for Inactive)
REMARK    1  A    between atoms: C_1  and  C_2
REMARK    2  A    between atoms: C_4  and  C_5
REMARK    3  A    between atoms: C_9  and  N_10
REMARK    4  A    between atoms: N_16  and  C_17
REMARK    5  A    between atoms: C_27  and  C_28
REMARK                            x       y       z     vdW  Elec       q    Type
REMARK                         _______ _______ _______ _____ _____    ______ ____
ROOT
ATOM      1  N   UNL     1       3.951   7.001  17.602  0.00  0.00    +0.000 N 
ATOM      2  C   UNL     1       3.288   6.807  18.795  0.00  0.00    +0.000 C 
ATOM      3  O   UNL     1       3.535   5.889  19.579  0.00  0.00    +0.000 OA
ATOM      4  N   UNL     1       2.302   7.728  19.111  0.00  0.00    +0.000 N 
ATOM      5  C   UNL     1       1.813   8.861  18.311  0.00  0.00    +0.000 C 
ATOM      6  C   UNL     1       1.695  10.147  19.158  0.00  0.00    +0.000 C 
ATOM      7  N   UNL     1       0.937   9.894  20.393  0.00  0.00    +0.000 N 
ATOM      8  C   UNL     1       1.423   8.768  21.207  0.00  0.00    +0.000 C 
ATOM      9  C   UNL     1       1.518   7.503  20.337  0.00  0.00    +0.000 C 
ATOM     10  H   UNL     1       3.833   7.884  17.141  0.00  0.00    +0.000 HD
ENDROOT
BRANCH   1  15
ATOM     11  C   UNL     1       5.804   4.819  15.210  0.00  0.00    +0.000 A 
ATOM     12  C   UNL     1       7.008   4.642  15.913  0.00  0.00    +0.000 A 
ATOM     13  C   UNL     1       7.187   5.182  17.178  0.00  0.00    +0.000 A 
ATOM     14  C   UNL     1       6.170   5.929  17.758  0.00  0.00    +0.000 A 
ATOM     15  C   UNL     1       4.976   6.173  17.073  0.00  0.00    +0.000 A 
ATOM     16  C   UNL     1       4.784   5.586  15.804  0.00  0.00    +0.000 A 
BRANCH  11  20
ATOM     17  C   UNL     1       4.072   2.919  11.030  0.00  0.00    +0.000 C 
ATOM     18  C   UNL     1       5.040   3.331  12.066  0.00  0.00    +0.000 A 
ATOM     19  N   UNL     1       4.627   4.036  13.163  0.00  0.00    +0.000 NA
ATOM     20  C   UNL     1       5.717   4.197  13.890  0.00  0.00    +0.000 A 
ATOM     21  O   UNL     1       6.848   3.658  13.328  0.00  0.00    +0.000 OA
ATOM     22  C   UNL     1       6.395   3.097  12.158  0.00  0.00    +0.000 A 
ATOM     23  C   UNL     1       7.358   2.380  11.304  0.00  0.00    +0.000 C 
ENDBRANCH  11  20
ENDBRANCH   1  15
BRANCH   7  24
ATOM     24  C   UNL     1      -0.144  10.656  20.785  0.00  0.00    +0.000 A 
ATOM     25  C   UNL     1      -0.472  10.831  22.137  0.00  0.00    +0.000 A 
ATOM     26  C   UNL     1      -1.538  11.643  22.542  0.00  0.00    +0.000 A 
ATOM     27  C   UNL     1      -2.311  12.302  21.593  0.00  0.00    +0.000 A 
ATOM     28  C   UNL     1      -2.022  12.139  20.245  0.00  0.00    +0.000 A 
ATOM     29  C   UNL     1      -0.954  11.324  19.852  0.00  0.00    +0.000 A 
ENDBRANCH   7  24
TORSDOF 3
ENDMDL
MODEL 8
REMARK VINA RESULT:      -7.9      2.466      3.824
REMARK  Name = 
REMARK  5 active torsions:
REMARK  status: ('A' for Active; 'I' for Inactive)
REMARK    1  A    between atoms: C_1  and  C_2
REMARK    2  A    between atoms: C_4  and  C_5
REMARK    3  A    between atoms: C_9  and  N_10
REMARK    4  A    between atoms: N_16  and  C_17
REMARK    5  A    between atoms: C_27  and  C_28
REMARK                            x       y       z     vdW  Elec       q    Type
REMARK                         _______ _______ _______ _____ _____    ______ ____
ROOT
ATOM      1  N   UNL     1       0.671   9.989  20.521  0.00  0.00    +0.000 N 
ATOM      2  C   UNL     1       0.794  11.361  20.471  0.00  0.00    +0.000 C 
ATOM      3  O   UNL     1       1.531  11.958  19.685  0.00  0.00    +0.000 OA
ATOM      4  N   UNL     1       0.015  12.084  21.360  0.00  0.00    +0.000 N 
ATOM      5  C   UNL     1      -0.889  11.583  22.407  0.00  0.00    +0.000 C 
ATOM      6  C   UNL     1      -2.247  12.316  22.384  0.00  0.00    +0.000 C 
ATOM      7  N   UNL     1      -2.057  13.775  22.382  0.00  0.00    +0.000 N 
ATOM      8  C   UNL     1      -1.162  14.288  21.333  0.00  0.00    +0.000 C 
ATOM      9  C   UNL     1       0.184  13.547  21.391  0.00  0.00    +0.000 C 
ATOM     10  H   UNL     1      -0.102   9.608  21.035  0.00  0.00    +0.000 HD
ENDROOT
BRANCH   1  15
ATOM     11  C   UNL     1       2.297   6.801  19.468  0.00  0.00    +0.000 A 
ATOM     12  C   UNL     1       2.666   7.130  18.152  0.00  0.00    +0.000 A 
ATOM     13  C   UNL     1       2.435   8.398  17.637  0.00  0.00    +0.000 A 
ATOM     14  C   UNL     1       1.813   9.357  18.425  0.00  0.00    +0.000 A 
ATOM     15  C   UNL     1       1.384   9.058  19.721  0.00  0.00    +0.000 A 
ATOM     16  C   UNL     1       1.658   7.779  20.252  0.00  0.00    +0.000 A 
BRANCH  11  20
ATOM     17  C   UNL     1       4.344   2.364  19.924  0.00  0.00    +0.000 C 
ATOM     18  C   UNL     1       3.413   3.488  20.148  0.00  0.00    +0.000 A 
ATOM     19  N   UNL     1       3.617   4.693  19.535  0.00  0.00    +0.000 NA
ATOM     20  C   UNL     1       2.597   5.441  19.913  0.00  0.00    +0.000 A 
ATOM     21  O   UNL     1       1.729   4.810  20.769  0.00  0.00    +0.000 OA
ATOM     22  C   UNL     1       2.263   3.551  20.906  0.00  0.00    +0.000 A 
ATOM     23  C   UNL     1       1.548   2.571  21.742  0.00  0.00    +0.000 C 
ENDBRANCH  11  20
ENDBRANCH   1  15
BRANCH   7  24
ATOM     24  C   UNL     1      -2.677  14.619  23.281  0.00  0.00    +0.000 A 
ATOM     25  C   UNL     1      -2.116  14.901  24.534  0.00  0.00    +0.000 A 
ATOM     26  C   UNL     1      -2.715  15.796  25.429  0.00  0.00    +0.000 A 
ATOM     27  C   UNL     1      -3.905  16.430  25.089  0.00  0.00    +0.000 A 
ATOM     28  C   UNL     1      -4.494  16.160  23.861  0.00  0.00    +0.000 A 
ATOM     29  C   UNL     1      -3.886  15.265  22.975  0.00  0.00    +0.000 A 
ENDBRANCH   7  24
TORSDOF 3
ENDMDL
MODEL 9
REMARK VINA RESULT:      -7.8      6.222      8.605
REMARK  Name = 
REMARK  5 active torsions:
REMARK  status: ('A' for Active; 'I' for Inactive)
REMARK    1  A    between atoms: C_1  and  C_2
REMARK    2  A    between atoms: C_4  and  C_5
REMARK    3  A    between atoms: C_9  and  N_10
REMARK    4  A    between atoms: N_16  and  C_17
REMARK    5  A    between atoms: C_27  and  C_28
REMARK                            x       y       z     vdW  Elec       q    Type
REMARK                         _______ _______ _______ _____ _____    ______ ____
ROOT
ATOM      1  N   UNL     1       7.233   8.195  17.351  0.00  0.00    +0.000 N 
ATOM      2  C   UNL     1       8.181   8.480  18.311  0.00  0.00    +0.000 C 
ATOM      3  O   UNL     1       8.752   7.626  18.990  0.00  0.00    +0.000 OA
ATOM      4  N   UNL     1       8.501   9.817  18.484  0.00  0.00    +0.000 N 
ATOM      5  C   UNL     1       7.917  10.995  17.825  0.00  0.00    +0.000 C 
ATOM      6  C   UNL     1       9.007  11.971  17.332  0.00  0.00    +0.000 C 
ATOM      7  N   UNL     1       9.961  12.279  18.408  0.00  0.00    +0.000 N 
ATOM      8  C   UNL     1      10.559  11.108  19.070  0.00  0.00    +0.000 C 
ATOM      9  C   UNL     1       9.448  10.164  19.558  0.00  0.00    +0.000 C 
ATOM     10  H   UNL     1       6.986   8.924  16.707  0.00  0.00    +0.000 HD
ENDROOT
BRANCH   1  15
ATOM     11  C   UNL     1       5.137   5.112  17.469  0.00  0.00    +0.000 A 
ATOM     12  C   UNL     1       5.635   4.426  16.349  0.00  0.00    +0.000 A 
ATOM     13  C   UNL     1       6.683   4.941  15.599  0.00  0.00    +0.000 A 
ATOM     14  C   UNL     1       7.241   6.164  15.946  0.00  0.00    +0.000 A 
ATOM     15  C   UNL     1       6.742   6.904  17.022  0.00  0.00    +0.000 A 
ATOM     16  C   UNL     1       5.703   6.355  17.804  0.00  0.00    +0.000 A 
BRANCH  11  20
ATOM     17  C   UNL     1       1.194   2.403  18.567  0.00  0.00    +0.000 C 
ATOM     18  C   UNL     1       2.316   3.347  18.740  0.00  0.00    +0.000 A 
ATOM     19  N   UNL     1       3.210   3.558  17.727  0.00  0.00    +0.000 NA
ATOM     20  C   UNL     1       4.039   4.474  18.194  0.00  0.00    +0.000 A 
ATOM     21  O   UNL     1       3.765   4.872  19.480  0.00  0.00    +0.000 OA
ATOM     22  C   UNL     1       2.648   4.143  19.815  0.00  0.00    +0.000 A 
ATOM     23  C   UNL     1       2.043   4.355  21.142  0.00  0.00    +0.000 C 
ENDBRANCH  11  20
ENDBRANCH   1  15
BRANCH   7  24
ATOM     24  C   UNL     1      10.296  13.566  18.776  0.00  0.00    +0.000 A 
ATOM     25  C   UNL     1      10.071  14.658  17.925  0.00  0.00    +0.000 A 
ATOM     26  C   UNL     1      10.362  15.971  18.314  0.00  0.00    +0.000 A 
ATOM     27  C   UNL     1      10.896  16.224  19.572  0.00  0.00    +0.000 A 
ATOM     28  C   UNL     1      11.144  15.163  20.433  0.00  0.00    +0.000 A 
ATOM     29  C   UNL     1      10.849  13.855  20.034  0.00  0.00    +0.000 A 
ENDBRANCH   7  24
TORSDOF 3
ENDMDL
