MODEL 1
REMARK VINA RESULT:      -9.1      0.000      0.000
REMARK  Name = 
REMARK  4 active torsions:
REMARK  status: ('A' for Active; 'I' for Inactive)
REMARK    1  A    between atoms: C_1  and  N_2
REMARK    2  A    between atoms: C_6  and  C_7
REMARK    3  A    between atoms: N_15  and  C_16
REMARK    4  A    between atoms: C_20  and  C_21
REMARK                            x       y       z     vdW  Elec       q    Type
REMARK                         _______ _______ _______ _____ _____    ______ ____
ROOT
ATOM      1  C   UNL     1       4.623   3.905  18.418  0.00  0.00    +0.000 C 
ATOM      2  C   UNL     1       4.099   2.483  18.076  0.00  0.00    +0.000 C 
ATOM      3  O   UNL     1       3.407   1.888  19.189  0.00  0.00    +0.000 OA
ATOM      4  C   UNL     1       2.281   2.691  19.557  0.00  0.00    +0.000 C 
ATOM      5  C   UNL     1       2.740   4.087  19.980  0.00  0.00    +0.000 C 
ATOM      6  N   UNL     1       3.479   4.750  18.887  0.00  0.00    +0.000 N 
ATOM      7  C   UNL     1       3.325   6.084  18.516  0.00  0.00    +0.000 C 
ATOM      8  O   UNL     1       4.103   6.628  17.736  0.00  0.00    +0.000 OA
ATOM      9  N   UNL     1       2.259   6.749  19.088  0.00  0.00    +0.000 N 
ATOM     10  H   UNL     1       1.521   6.192  19.479  0.00  0.00    +0.000 HD
ENDROOT
BRANCH   1  16
ATOM     11  C   UNL     1       7.374   5.370  18.624  0.00  0.00    +0.000 C 
ATOM     12  N   UNL     1       6.687   4.993  17.415  0.00  0.00    +0.000 N 
ATOM     13  N   UNL     1       7.293   5.161  16.221  0.00  0.00    +0.000 NA
ATOM     14  C   UNL     1       6.357   4.710  15.388  0.00  0.00    +0.000 A 
ATOM     15  N   UNL     1       5.237   4.207  15.982  0.00  0.00    +0.000 NA
ATOM     16  C   UNL     1       5.459   4.394  17.275  0.00  0.00    +0.000 A 
ENDBRANCH   1  16
BRANCH   9  17
ATOM     17  C   UNL     1       1.941   8.125  18.966  0.00  0.00    +0.000 A 
ATOM     18  C   UNL     1       2.383   8.933  17.920  0.00  0.00    +0.000 A 
ATOM     19  C   UNL     1       2.010  10.273  17.857  0.00  0.00    +0.000 A 
ATOM     20  C   UNL     1       1.196  10.824  18.847  0.00  0.00    +0.000 A 
ATOM     21  C   UNL     1       0.729  10.051  19.923  0.00  0.00    +0.000 A 
ATOM     22  C   UNL     1       1.128   8.698  19.965  0.00  0.00    +0.000 A 
BRANCH  21  23
ATOM     23  C   UNL     1      -0.165  10.640  20.951  0.00  0.00    +0.000 A 
ATOM     24  C   UNL     1      -0.279  10.092  22.245  0.00  0.00    +0.000 A 
ATOM     25  C   UNL     1      -1.125  10.657  23.209  0.00  0.00    +0.000 A 
ATOM     26  C   UNL     1      -1.863  11.790  22.895  0.00  0.00    +0.000 A 
ATOM     27  F   UNL     1      -2.665  12.335  23.821  0.00  0.00    +0.000 F 
ATOM     28  C   UNL     1      -1.768  12.353  21.633  0.00  0.00    +0.000 A 
ATOM     29  F   UNL     1      -2.475  13.449  21.325  0.00  0.00    +0.000 F 
ATOM     30  C   UNL     1      -0.937  11.785  20.668  0.00  0.00    +0.000 A 
ENDBRANCH  21  23
ENDBRANCH   9  17
TORSDOF 3
ENDMDL
MODEL 2
REMARK VINA RESULT:      -8.9      1.165      1.545
REMARK  Name = 
REMARK  4 active torsions:
REMARK  status: ('A' for Active; 'I' for Inactive)
REMARK    1  A    between atoms: C_1  and  N_2
REMARK    2  A    between atoms: C_6  and  C_7
REMARK    3  A    between atoms: N_15  and  C_16
REMARK    4  A    between atoms: C_20  and  C_21
REMARK                            x       y       z     vdW  Elec       q    Type
REMARK                         _______ _______ _______ _____ _____    ______ ____
ROOT
ATOM      1  C   UNL     1       3.960   3.967  19.543  0.00  0.00    +0.000 C 
ATOM      2  C   UNL     1       3.293   2.564  19.517  0.00  0.00    +0.000 C 
ATOM      3  O   UNL     1       2.650   2.257  20.767  0.00  0.00    +0.000 OA
ATOM      4  C   UNL     1       1.629   3.219  21.046  0.00  0.00    +0.000 C 
ATOM      5  C   UNL     1       2.234   4.619  21.160  0.00  0.00    +0.000 C 
ATOM      6  N   UNL     1       2.932   4.991  19.914  0.00  0.00    +0.000 N 
ATOM      7  C   UNL     1       2.858   6.242  19.303  0.00  0.00    +0.000 C 
ATOM      8  O   UNL     1       3.610   6.553  18.384  0.00  0.00    +0.000 OA
ATOM      9  N   UNL     1       1.901   7.101  19.805  0.00  0.00    +0.000 N 
ATOM     10  H   UNL     1       1.155   6.701  20.343  0.00  0.00    +0.000 HD
ENDROOT
BRANCH   1  16
ATOM     11  C   UNL     1       6.749   5.344  19.256  0.00  0.00    +0.000 C 
ATOM     12  N   UNL     1       5.982   4.724  18.206  0.00  0.00    +0.000 N 
ATOM     13  N   UNL     1       6.518   4.593  16.975  0.00  0.00    +0.000 NA
ATOM     14  C   UNL     1       5.524   3.996  16.319  0.00  0.00    +0.000 A 
ATOM     15  N   UNL     1       4.431   3.682  17.074  0.00  0.00    +0.000 NA
ATOM     16  C   UNL     1       4.735   4.152  18.275  0.00  0.00    +0.000 A 
ENDBRANCH   1  16
BRANCH   9  17
ATOM     17  C   UNL     1       1.689   8.455  19.440  0.00  0.00    +0.000 A 
ATOM     18  C   UNL     1       2.035   8.987  18.200  0.00  0.00    +0.000 A 
ATOM     19  C   UNL     1       1.774  10.323  17.907  0.00  0.00    +0.000 A 
ATOM     20  C   UNL     1       1.170  11.146  18.858  0.00  0.00    +0.000 A 
ATOM     21  C   UNL     1       0.806  10.657  20.124  0.00  0.00    +0.000 A 
ATOM     22  C   UNL     1       1.089   9.301  20.395  0.00  0.00    +0.000 A 
BRANCH  21  23
ATOM     23  C   UNL     1       0.134  11.534  21.114  0.00  0.00    +0.000 A 
ATOM     24  C   UNL     1       0.447  12.904  21.233  0.00  0.00    +0.000 A 
ATOM     25  C   UNL     1      -0.195  13.724  22.171  0.00  0.00    +0.000 A 
ATOM     26  C   UNL     1      -1.171  13.187  22.999  0.00  0.00    +0.000 A 
ATOM     27  F   UNL     1      -1.790  13.974  23.889  0.00  0.00    +0.000 F 
ATOM     28  C   UNL     1      -1.502  11.845  22.902  0.00  0.00    +0.000 A 
ATOM     29  F   UNL     1      -2.447  11.321  23.695  0.00  0.00    +0.000 F 
ATOM     30  C   UNL     1      -0.856  11.024  21.978  0.00  0.00    +0.000 A 
ENDBRANCH  21  23
ENDBRANCH   9  17
TORSDOF 3
ENDMDL
MODEL 3
REMARK VINA RESULT:      -8.7      2.821      4.365
REMARK  Name = 
REMARK  4 active torsions:
REMARK  status: ('A' for Active; 'I' for Inactive)
REMARK    1  A    between atoms: C_1  and  N_2
REMARK    2  A    between atoms: C_6  and  C_7
REMARK    3  A    between atoms: N_15  and  C_16
REMARK    4  A    between atoms: C_20  and  C_21
REMARK                            x       y       z     vdW  Elec       q    Type
REMARK                         _______ _______ _______ _____ _____    ______ ____
ROOT
ATOM      1  C   UNL     1       4.735   4.673  17.595  0.00  0.00    +0.000 C 
ATOM      2  C   UNL     1       6.285   4.656  17.480  0.00  0.00    +0.000 C 
ATOM      3  O   UNL     1       6.751   5.517  16.425  0.00  0.00    +0.000 OA
ATOM      4  C   UNL     1       6.347   6.867  16.675  0.00  0.00    +0.000 C 
ATOM      5  C   UNL     1       4.821   6.965  16.724  0.00  0.00    +0.000 C 
ATOM      6  N   UNL     1       4.273   6.086  17.775  0.00  0.00    +0.000 N 
ATOM      7  C   UNL     1       3.251   6.439  18.655  0.00  0.00    +0.000 C 
ATOM      8  O   UNL     1       2.704   5.606  19.372  0.00  0.00    +0.000 OA
ATOM      9  N   UNL     1       2.891   7.772  18.655  0.00  0.00    +0.000 N 
ATOM     10  H   UNL     1       3.544   8.429  18.271  0.00  0.00    +0.000 HD
ENDROOT
BRANCH   1  16
ATOM     11  C   UNL     1       2.245   2.796  17.408  0.00  0.00    +0.000 C 
ATOM     12  N   UNL     1       3.238   2.809  18.452  0.00  0.00    +0.000 N 
ATOM     13  N   UNL     1       3.208   1.865  19.416  0.00  0.00    +0.000 NA
ATOM     14  C   UNL     1       4.254   2.220  20.161  0.00  0.00    +0.000 A 
ATOM     15  N   UNL     1       4.976   3.277  19.691  0.00  0.00    +0.000 NA
ATOM     16  C   UNL     1       4.318   3.645  18.601  0.00  0.00    +0.000 A 
ENDBRANCH   1  16
BRANCH   9  17
ATOM     17  C   UNL     1       1.821   8.371  19.369  0.00  0.00    +0.000 A 
ATOM     18  C   UNL     1       1.756   8.434  20.759  0.00  0.00    +0.000 A 
ATOM     19  C   UNL     1       0.682   9.059  21.388  0.00  0.00    +0.000 A 
ATOM     20  C   UNL     1      -0.345   9.622  20.631  0.00  0.00    +0.000 A 
ATOM     21  C   UNL     1      -0.326   9.580  19.226  0.00  0.00    +0.000 A 
ATOM     22  C   UNL     1       0.771   8.934  18.617  0.00  0.00    +0.000 A 
BRANCH  21  23
ATOM     23  C   UNL     1      -1.409  10.211  18.432  0.00  0.00    +0.000 A 
ATOM     24  C   UNL     1      -2.245  11.211  18.971  0.00  0.00    +0.000 A 
ATOM     25  C   UNL     1      -3.265  11.802  18.211  0.00  0.00    +0.000 A 
ATOM     26  C   UNL     1      -3.456  11.408  16.894  0.00  0.00    +0.000 A 
ATOM     27  F   UNL     1      -4.425  11.980  16.167  0.00  0.00    +0.000 F 
ATOM     28  C   UNL     1      -2.647  10.431  16.337  0.00  0.00    +0.000 A 
ATOM     29  F   UNL     1      -2.824  10.049  15.065  0.00  0.00    +0.000 F 
ATOM     30  C   UNL     1      -1.641   9.832  17.094  0.00  0.00    +0.000 A 
ENDBRANCH  21  23
ENDBRANCH   9  17
TORSDOF 3
ENDMDL
MODEL 4
REMARK VINA RESULT:      -8.5      2.609      4.242
REMARK  Name = 
REMARK  4 active torsions:
REMARK  status: ('A' for Active; 'I' for Inactive)
REMARK    1  A    between atoms: C_1  and  N_2
REMARK    2  A    between atoms: C_6  and  C_7
REMARK    3  A    between atoms: N_15  and  C_16
REMARK    4  A    between atoms: C_20  and  C_21
REMARK                            x       y       z     vdW  Elec       q    Type
REMARK                         _______ _______ _______ _____ _____    ______ ____
ROOT
ATOM      1  C   UNL     1       4.808   4.716  17.583  0.00  0.00    +0.000 C 
ATOM      2  C   UNL     1       6.359   4.698  17.497  0.00  0.00    +0.000 C 
ATOM      3  O   UNL     1       6.845   5.559  16.451  0.00  0.00    +0.000 OA
ATOM      4  C   UNL     1       6.438   6.909  16.694  0.00  0.00    +0.000 C 
ATOM      5  C   UNL     1       4.912   7.009  16.715  0.00  0.00    +0.000 C 
ATOM      6  N   UNL     1       4.343   6.130  17.756  0.00  0.00    +0.000 N 
ATOM      7  C   UNL     1       3.306   6.483  18.617  0.00  0.00    +0.000 C 
ATOM      8  O   UNL     1       2.746   5.650  19.324  0.00  0.00    +0.000 OA
ATOM      9  N   UNL     1       2.947   7.817  18.611  0.00  0.00    +0.000 N 
ATOM     10  H   UNL     1       3.608   8.473  18.239  0.00  0.00    +0.000 HD
ENDROOT
BRANCH   1  16
ATOM     11  C   UNL     1       2.330   2.829  17.343  0.00  0.00    +0.000 C 
ATOM     12  N   UNL     1       3.298   2.848  18.409  0.00  0.00    +0.000 N 
ATOM     13  N   UNL     1       3.250   1.906  19.373  0.00  0.00    +0.000 NA
ATOM     14  C   UNL     1       4.276   2.266  20.142  0.00  0.00    +0.000 A 
ATOM     15  N   UNL     1       5.006   3.325  19.687  0.00  0.00    +0.000 NA
ATOM     16  C   UNL     1       4.372   3.688  18.581  0.00  0.00    +0.000 A 
ENDBRANCH   1  16
BRANCH   9  17
ATOM     17  C   UNL     1       1.866   8.416  19.306  0.00  0.00    +0.000 A 
ATOM     18  C   UNL     1       1.800   8.526  20.693  0.00  0.00    +0.000 A 
ATOM     19  C   UNL     1       0.713   9.149  21.301  0.00  0.00    +0.000 A 
ATOM     20  C   UNL     1      -0.327   9.662  20.527  0.00  0.00    +0.000 A 
ATOM     21  C   UNL     1      -0.308   9.572  19.125  0.00  0.00    +0.000 A 
ATOM     22  C   UNL     1       0.802   8.930  18.536  0.00  0.00    +0.000 A 
BRANCH  21  23
ATOM     23  C   UNL     1      -1.405  10.152  18.311  0.00  0.00    +0.000 A 
ATOM     24  C   UNL     1      -1.561   9.850  16.942  0.00  0.00    +0.000 A 
ATOM     25  C   UNL     1      -2.601  10.403  16.183  0.00  0.00    +0.000 A 
ATOM     26  C   UNL     1      -3.511  11.261  16.786  0.00  0.00    +0.000 A 
ATOM     27  F   UNL     1      -4.510  11.782  16.062  0.00  0.00    +0.000 F 
ATOM     28  C   UNL     1      -3.385  11.573  18.131  0.00  0.00    +0.000 A 
ATOM     29  F   UNL     1      -4.262  12.396  18.720  0.00  0.00    +0.000 F 
ATOM     30  C   UNL     1      -2.343  11.034  18.885  0.00  0.00    +0.000 A 
ENDBRANCH  21  23
ENDBRANCH   9  17
TORSDOF 3
ENDMDL
MODEL 5
REMARK VINA RESULT:      -8.4      2.827      4.249
REMARK  Name = 
REMARK  4 active torsions:
REMARK  status: ('A' for Active; 'I' for Inactive)
REMARK    1  A    between atoms: C_1  and  N_2
REMARK    2  A    between atoms: C_6  and  C_7
REMARK    3  A    between atoms: N_15  and  C_16
REMARK    4  A    between atoms: C_20  and  C_21
REMARK                            x       y       z     vdW  Elec       q    Type
REMARK                         _______ _______ _______ _____ _____    ______ ____
ROOT
ATOM      1  C   UNL     1       4.109   4.613  16.957  0.00  0.00    +0.000 C 
ATOM      2  C   UNL     1       5.618   4.247  17.012  0.00  0.00    +0.000 C 
ATOM      3  O   UNL     1       6.422   5.184  16.272  0.00  0.00    +0.000 OA
ATOM      4  C   UNL     1       6.273   6.499  16.817  0.00  0.00    +0.000 C 
ATOM      5  C   UNL     1       4.815   6.951  16.723  0.00  0.00    +0.000 C 
ATOM      6  N   UNL     1       3.928   6.018  17.445  0.00  0.00    +0.000 N 
ATOM      7  C   UNL     1       2.872   6.400  18.269  0.00  0.00    +0.000 C 
ATOM      8  O   UNL     1       2.052   5.585  18.683  0.00  0.00    +0.000 OA
ATOM      9  N   UNL     1       2.802   7.745  18.575  0.00  0.00    +0.000 N 
ATOM     10  H   UNL     1       3.633   8.293  18.446  0.00  0.00    +0.000 HD
ENDROOT
BRANCH   1  16
ATOM     11  C   UNL     1       4.676   3.346  19.756  0.00  0.00    +0.000 C 
ATOM     12  N   UNL     1       3.588   3.023  18.868  0.00  0.00    +0.000 N 
ATOM     13  N   UNL     1       2.619   2.178  19.277  0.00  0.00    +0.000 NA
ATOM     14  C   UNL     1       1.833   2.142  18.201  0.00  0.00    +0.000 A 
ATOM     15  N   UNL     1       2.206   2.961  17.176  0.00  0.00    +0.000 NA
ATOM     16  C   UNL     1       3.327   3.517  17.613  0.00  0.00    +0.000 A 
ENDBRANCH   1  16
BRANCH   9  17
ATOM     17  C   UNL     1       1.779   8.408  19.298  0.00  0.00    +0.000 A 
ATOM     18  C   UNL     1       1.777   8.553  20.683  0.00  0.00    +0.000 A 
ATOM     19  C   UNL     1       0.745   9.238  21.320  0.00  0.00    +0.000 A 
ATOM     20  C   UNL     1      -0.304   9.779  20.577  0.00  0.00    +0.000 A 
ATOM     21  C   UNL     1      -0.349   9.656  19.178  0.00  0.00    +0.000 A 
ATOM     22  C   UNL     1       0.707   8.951  18.560  0.00  0.00    +0.000 A 
BRANCH  21  23
ATOM     23  C   UNL     1      -1.453  10.265  18.395  0.00  0.00    +0.000 A 
ATOM     24  C   UNL     1      -2.316  11.233  18.950  0.00  0.00    +0.000 A 
ATOM     25  C   UNL     1      -3.355  11.803  18.202  0.00  0.00    +0.000 A 
ATOM     26  C   UNL     1      -3.540  11.420  16.880  0.00  0.00    +0.000 A 
ATOM     27  F   UNL     1      -4.528  11.973  16.164  0.00  0.00    +0.000 F 
ATOM     28  C   UNL     1      -2.705  10.474  16.308  0.00  0.00    +0.000 A 
ATOM     29  F   UNL     1      -2.875  10.104  15.032  0.00  0.00    +0.000 F 
ATOM     30  C   UNL     1      -1.678   9.896  17.054  0.00  0.00    +0.000 A 
ENDBRANCH  21  23
ENDBRANCH   9  17
TORSDOF 3
ENDMDL
MODEL 6
REMARK VINA RESULT:      -8.4      0.658      1.226
REMARK  Name = 
REMARK  4 active torsions:
REMARK  status: ('A' for Active; 'I' for Inactive)
REMARK    1  A    between atoms: C_1  and  N_2
REMARK    2  A    between atoms: C_6  and  C_7
REMARK    3  A    between atoms: N_15  and  C_16
REMARK    4  A    between atoms: C_20  and  C_21
REMARK                            x       y       z     vdW  Elec       q    Type
REMARK                         _______ _______ _______ _____ _____    ______ ____
ROOT
ATOM      1  C   UNL     1       4.372   3.682  18.908  0.00  0.00    +0.000 C 
ATOM      2  C   UNL     1       4.073   2.387  18.104  0.00  0.00    +0.000 C 
ATOM      3  O   UNL     1       2.906   1.708  18.601  0.00  0.00    +0.000 OA
ATOM      4  C   UNL     1       1.760   2.559  18.500  0.00  0.00    +0.000 C 
ATOM      5  C   UNL     1       1.961   3.823  19.337  0.00  0.00    +0.000 C 
ATOM      6  N   UNL     1       3.159   4.561  18.892  0.00  0.00    +0.000 N 
ATOM      7  C   UNL     1       3.232   5.944  18.738  0.00  0.00    +0.000 C 
ATOM      8  O   UNL     1       4.304   6.515  18.558  0.00  0.00    +0.000 OA
ATOM      9  N   UNL     1       2.031   6.622  18.816  0.00  0.00    +0.000 N 
ATOM     10  H   UNL     1       1.190   6.092  18.683  0.00  0.00    +0.000 HD
ENDROOT
BRANCH   1  16
ATOM     11  C   UNL     1       5.195   4.235  15.946  0.00  0.00    +0.000 C 
ATOM     12  N   UNL     1       5.976   4.516  17.124  0.00  0.00    +0.000 N 
ATOM     13  N   UNL     1       7.140   5.188  17.010  0.00  0.00    +0.000 NA
ATOM     14  C   UNL     1       7.539   5.236  18.280  0.00  0.00    +0.000 A 
ATOM     15  N   UNL     1       6.670   4.704  19.188  0.00  0.00    +0.000 NA
ATOM     16  C   UNL     1       5.677   4.247  18.438  0.00  0.00    +0.000 A 
ENDBRANCH   1  16
BRANCH   9  17
ATOM     17  C   UNL     1       1.838   8.027  18.800  0.00  0.00    +0.000 A 
ATOM     18  C   UNL     1       2.388   8.875  17.842  0.00  0.00    +0.000 A 
ATOM     19  C   UNL     1       2.134  10.244  17.881  0.00  0.00    +0.000 A 
ATOM     20  C   UNL     1       1.331  10.781  18.887  0.00  0.00    +0.000 A 
ATOM     21  C   UNL     1       0.757   9.967  19.878  0.00  0.00    +0.000 A 
ATOM     22  C   UNL     1       1.038   8.586  19.817  0.00  0.00    +0.000 A 
BRANCH  21  23
ATOM     23  C   UNL     1      -0.122  10.548  20.923  0.00  0.00    +0.000 A 
ATOM     24  C   UNL     1      -0.183  10.017  22.228  0.00  0.00    +0.000 A 
ATOM     25  C   UNL     1      -1.016  10.574  23.208  0.00  0.00    +0.000 A 
ATOM     26  C   UNL     1      -1.796  11.679  22.899  0.00  0.00    +0.000 A 
ATOM     27  F   UNL     1      -2.586  12.216  23.839  0.00  0.00    +0.000 F 
ATOM     28  C   UNL     1      -1.755  12.224  21.625  0.00  0.00    +0.000 A 
ATOM     29  F   UNL     1      -2.501  13.294  21.322  0.00  0.00    +0.000 F 
ATOM     30  C   UNL     1      -0.936  11.664  20.645  0.00  0.00    +0.000 A 
ENDBRANCH  21  23
ENDBRANCH   9  17
TORSDOF 3
ENDMDL
MODEL 7
REMARK VINA RESULT:      -8.3      2.936      4.623
REMARK  Name = 
REMARK  4 active torsions:
REMARK  status: ('A' for Active; 'I' for Inactive)
REMARK    1  A    between atoms: C_1  and  N_2
REMARK    2  A    between atoms: C_6  and  C_7
REMARK    3  A    between atoms: N_15  and  C_16
REMARK    4  A    between atoms: C_20  and  C_21
REMARK                            x       y       z     vdW  Elec       q    Type
REMARK                         _______ _______ _______ _____ _____    ______ ____
ROOT
ATOM      1  C   UNL     1       3.808   4.574  18.384  0.00  0.00    +0.000 C 
ATOM      2  C   UNL     1       5.338   4.305  18.356  0.00  0.00    +0.000 C 
ATOM      3  O   UNL     1       5.972   4.952  17.238  0.00  0.00    +0.000 OA
ATOM      4  C   UNL     1       5.780   6.368  17.314  0.00  0.00    +0.000 C 
ATOM      5  C   UNL     1       4.289   6.705  17.269  0.00  0.00    +0.000 C 
ATOM      6  N   UNL     1       3.570   6.053  18.381  0.00  0.00    +0.000 N 
ATOM      7  C   UNL     1       2.587   6.661  19.160  0.00  0.00    +0.000 C 
ATOM      8  O   UNL     1       1.889   6.013  19.934  0.00  0.00    +0.000 OA
ATOM      9  N   UNL     1       2.444   8.024  18.992  0.00  0.00    +0.000 N 
ATOM     10  H   UNL     1       3.207   8.522  18.572  0.00  0.00    +0.000 HD
ENDROOT
BRANCH   1  16
ATOM     11  C   UNL     1       1.085   3.049  18.255  0.00  0.00    +0.000 C 
ATOM     12  N   UNL     1       2.016   3.058  19.354  0.00  0.00    +0.000 N 
ATOM     13  N   UNL     1       1.802   2.257  20.418  0.00  0.00    +0.000 NA
ATOM     14  C   UNL     1       2.849   2.556  21.185  0.00  0.00    +0.000 A 
ATOM     15  N   UNL     1       3.740   3.436  20.643  0.00  0.00    +0.000 NA
ATOM     16  C   UNL     1       3.197   3.749  19.475  0.00  0.00    +0.000 A 
ENDBRANCH   1  16
BRANCH   9  17
ATOM     17  C   UNL     1       1.459   8.860  19.575  0.00  0.00    +0.000 A 
ATOM     18  C   UNL     1       1.522   9.336  20.883  0.00  0.00    +0.000 A 
ATOM     19  C   UNL     1       0.525  10.173  21.379  0.00  0.00    +0.000 A 
ATOM     20  C   UNL     1      -0.553  10.537  20.572  0.00  0.00    +0.000 A 
ATOM     21  C   UNL     1      -0.662  10.080  19.247  0.00  0.00    +0.000 A 
ATOM     22  C   UNL     1       0.359   9.228  18.775  0.00  0.00    +0.000 A 
BRANCH  21  23
ATOM     23  C   UNL     1      -1.796  10.503  18.388  0.00  0.00    +0.000 A 
ATOM     24  C   UNL     1      -2.746  11.452  18.818  0.00  0.00    +0.000 A 
ATOM     25  C   UNL     1      -3.813  11.845  17.999  0.00  0.00    +0.000 A 
ATOM     26  C   UNL     1      -3.940  11.300  16.729  0.00  0.00    +0.000 A 
ATOM     27  F   UNL     1      -4.955  11.683  15.943  0.00  0.00    +0.000 F 
ATOM     28  C   UNL     1      -3.019  10.367  16.278  0.00  0.00    +0.000 A 
ATOM     29  F   UNL     1      -3.134   9.841  15.051  0.00  0.00    +0.000 F 
ATOM     30  C   UNL     1      -1.964   9.965  17.096  0.00  0.00    +0.000 A 
ENDBRANCH  21  23
ENDBRANCH   9  17
TORSDOF 3
ENDMDL
MODEL 8
REMARK VINA RESULT:      -8.3      2.529      3.315
REMARK  Name = 
REMARK  4 active torsions:
REMARK  status: ('A' for Active; 'I' for Inactive)
REMARK    1  A    between atoms: C_1  and  N_2
REMARK    2  A    between atoms: C_6  and  C_7
REMARK    3  A    between atoms: N_15  and  C_16
REMARK    4  A    between atoms: C_20  and  C_21
REMARK                            x       y       z     vdW  Elec       q    Type
REMARK                         _______ _______ _______ _____ _____    ______ ____
ROOT
ATOM      1  C   UNL     1       3.859   4.249  19.478  0.00  0.00    +0.000 C 
ATOM      2  C   UNL     1       3.374   2.834  19.055  0.00  0.00    +0.000 C 
ATOM      3  O   UNL     1       2.909   2.070  20.182  0.00  0.00    +0.000 OA
ATOM      4  C   UNL     1       1.809   2.737  20.810  0.00  0.00    +0.000 C 
ATOM      5  C   UNL     1       2.244   4.113  21.320  0.00  0.00    +0.000 C 
ATOM      6  N   UNL     1       2.755   4.945  20.213  0.00  0.00    +0.000 N 
ATOM      7  C   UNL     1       2.461   6.295  20.031  0.00  0.00    +0.000 C 
ATOM      8  O   UNL     1       3.068   6.979  19.212  0.00  0.00    +0.000 OA
ATOM      9  N   UNL     1       1.462   6.808  20.834  0.00  0.00    +0.000 N 
ATOM     10  H   UNL     1       0.832   6.155  21.264  0.00  0.00    +0.000 HD
ENDROOT
BRANCH   1  16
ATOM     11  C   UNL     1       6.710   5.514  19.319  0.00  0.00    +0.000 C 
ATOM     12  N   UNL     1       5.746   5.424  18.251  0.00  0.00    +0.000 N 
ATOM     13  N   UNL     1       6.092   5.804  17.004  0.00  0.00    +0.000 NA
ATOM     14  C   UNL     1       4.960   5.577  16.339  0.00  0.00    +0.000 A 
ATOM     15  N   UNL     1       3.955   5.014  17.069  0.00  0.00    +0.000 NA
ATOM     16  C   UNL     1       4.468   4.922  18.287  0.00  0.00    +0.000 A 
ENDBRANCH   1  16
BRANCH   9  17
ATOM     17  C   UNL     1       1.044   8.160  20.925  0.00  0.00    +0.000 A 
ATOM     18  C   UNL     1       1.530   9.059  21.872  0.00  0.00    +0.000 A 
ATOM     19  C   UNL     1       1.087  10.379  21.884  0.00  0.00    +0.000 A 
ATOM     20  C   UNL     1       0.144  10.813  20.952  0.00  0.00    +0.000 A 
ATOM     21  C   UNL     1      -0.378   9.943  19.981  0.00  0.00    +0.000 A 
ATOM     22  C   UNL     1       0.084   8.609  19.997  0.00  0.00    +0.000 A 
BRANCH  21  23
ATOM     23  C   UNL     1      -1.355  10.426  18.973  0.00  0.00    +0.000 A 
ATOM     24  C   UNL     1      -2.249  11.482  19.246  0.00  0.00    +0.000 A 
ATOM     25  C   UNL     1      -3.167  11.931  18.287  0.00  0.00    +0.000 A 
ATOM     26  C   UNL     1      -3.198  11.336  17.034  0.00  0.00    +0.000 A 
ATOM     27  F   UNL     1      -4.070  11.772  16.115  0.00  0.00    +0.000 F 
ATOM     28  C   UNL     1      -2.329  10.298  16.737  0.00  0.00    +0.000 A 
ATOM     29  F   UNL     1      -2.351   9.722  15.527  0.00  0.00    +0.000 F 
ATOM     30  C   UNL     1      -1.423   9.840  17.693  0.00  0.00    +0.000 A 
ENDBRANCH  21  23
ENDBRANCH   9  17
TORSDOF 3
ENDMDL
MODEL 9
REMARK VINA RESULT:      -8.3      1.242      1.904
REMARK  Name = 
REMARK  4 active torsions:
REMARK  status: ('A' for Active; 'I' for Inactive)
REMARK    1  A    between atoms: C_1  and  N_2
REMARK    2  A    between atoms: C_6  and  C_7
REMARK    3  A    between atoms: N_15  and  C_16
REMARK    4  A    between atoms: C_20  and  C_21
REMARK                            x       y       z     vdW  Elec       q    Type
REMARK                         _______ _______ _______ _____ _____    ______ ____
ROOT
ATOM      1  C   UNL     1       4.184   3.849  19.884  0.00  0.00    +0.000 C 
ATOM      2  C   UNL     1       3.594   2.417  19.764  0.00  0.00    +0.000 C 
ATOM      3  O   UNL     1       2.786   2.076  20.905  0.00  0.00    +0.000 OA
ATOM      4  C   UNL     1       1.691   2.990  21.026  0.00  0.00    +0.000 C 
ATOM      5  C   UNL     1       2.209   4.415  21.225  0.00  0.00    +0.000 C 
ATOM      6  N   UNL     1       3.067   4.824  20.095  0.00  0.00    +0.000 N 
ATOM      7  C   UNL     1       3.027   6.072  19.476  0.00  0.00    +0.000 C 
ATOM      8  O   UNL     1       3.893   6.421  18.678  0.00  0.00    +0.000 OA
ATOM      9  N   UNL     1       1.968   6.885  19.827  0.00  0.00    +0.000 N 
ATOM     10  H   UNL     1       1.169   6.449  20.250  0.00  0.00    +0.000 HD
ENDROOT
BRANCH   1  16
ATOM     11  C   UNL     1       3.555   3.474  16.848  0.00  0.00    +0.000 C 
ATOM     12  N   UNL     1       4.793   3.939  17.420  0.00  0.00    +0.000 N 
ATOM     13  N   UNL     1       5.779   4.380  16.613  0.00  0.00    +0.000 NA
ATOM     14  C   UNL     1       6.718   4.705  17.501  0.00  0.00    +0.000 A 
ATOM     15  N   UNL     1       6.360   4.563  18.809  0.00  0.00    +0.000 NA
ATOM     16  C   UNL     1       5.130   4.074  18.745  0.00  0.00    +0.000 A 
ENDBRANCH   1  16
BRANCH   9  17
ATOM     17  C   UNL     1       1.751   8.229  19.431  0.00  0.00    +0.000 A 
ATOM     18  C   UNL     1       2.084   8.730  18.175  0.00  0.00    +0.000 A 
ATOM     19  C   UNL     1       1.819  10.058  17.851  0.00  0.00    +0.000 A 
ATOM     20  C   UNL     1       1.223  10.904  18.787  0.00  0.00    +0.000 A 
ATOM     21  C   UNL     1       0.873  10.446  20.068  0.00  0.00    +0.000 A 
ATOM     22  C   UNL     1       1.160   9.098  20.370  0.00  0.00    +0.000 A 
BRANCH  21  23
ATOM     23  C   UNL     1       0.209  11.348  21.042  0.00  0.00    +0.000 A 
ATOM     24  C   UNL     1       0.507  12.724  21.111  0.00  0.00    +0.000 A 
ATOM     25  C   UNL     1      -0.126  13.567  22.034  0.00  0.00    +0.000 A 
ATOM     26  C   UNL     1      -1.079  13.046  22.899  0.00  0.00    +0.000 A 
ATOM     27  F   UNL     1      -1.690  13.854  23.775  0.00  0.00    +0.000 F 
ATOM     28  C   UNL     1      -1.395  11.697  22.852  0.00  0.00    +0.000 A 
ATOM     29  F   UNL     1      -2.317  11.189  23.680  0.00  0.00    +0.000 F 
ATOM     30  C   UNL     1      -0.757  10.854  21.943  0.00  0.00    +0.000 A 
ENDBRANCH  21  23
ENDBRANCH   9  17
TORSDOF 3
ENDMDL
