MODEL 1
REMARK VINA RESULT:      -9.0      0.000      0.000
REMARK  Name = 
REMARK  5 active torsions:
REMARK  status: ('A' for Active; 'I' for Inactive)
REMARK    1  A    between atoms: C_1  and  N_2
REMARK    2  A    between atoms: C_5  and  N_6
REMARK    3  A    between atoms: C_8  and  N_9
REMARK    4  A    between atoms: C_10  and  C_12
REMARK    5  A    between atoms: C_14  and  C_15
REMARK                            x       y       z     vdW  Elec       q    Type
REMARK                         _______ _______ _______ _____ _____    ______ ____
ROOT
ATOM      1  N   UNL     1       2.274   7.600  19.824  0.00  0.00    +0.000 N 
ATOM      2  C   UNL     1       2.454   7.328  18.478  0.00  0.00    +0.000 C 
ATOM      3  O   UNL     1       1.878   7.870  17.541  0.00  0.00    +0.000 OA
ATOM      4  H   UNL     1       2.833   7.126  20.522  0.00  0.00    +0.000 HD
ENDROOT
BRANCH   2   5
ATOM      5  C   UNL     1       3.450   6.273  18.176  0.00  0.00    +0.000 A 
ATOM      6  C   UNL     1       4.766   6.667  17.930  0.00  0.00    +0.000 A 
ATOM      7  C   UNL     1       5.722   5.700  17.675  0.00  0.00    +0.000 A 
ATOM      8  N   UNL     1       5.383   4.389  17.631  0.00  0.00    +0.000 NA
ATOM      9  C   UNL     1       4.114   4.003  17.843  0.00  0.00    +0.000 A 
ATOM     10  C   UNL     1       3.825   2.644  17.789  0.00  0.00    +0.000 A 
ATOM     11  C   UNL     1       2.539   2.150  18.019  0.00  0.00    +0.000 A 
ATOM     12  C   UNL     1       1.518   3.038  18.296  0.00  0.00    +0.000 A 
ATOM     13  F   UNL     1       0.281   2.580  18.522  0.00  0.00    +0.000 F 
ATOM     14  C   UNL     1       1.769   4.402  18.351  0.00  0.00    +0.000 A 
ATOM     15  C   UNL     1       3.076   4.910  18.125  0.00  0.00    +0.000 A 
BRANCH   7  16
ATOM     16  C   UNL     1       7.161   6.085  17.445  0.00  0.00    +0.000 C 
ATOM     17  C   UNL     1       8.009   6.501  18.626  0.00  0.00    +0.000 C 
ATOM     18  C   UNL     1       7.612   7.520  17.599  0.00  0.00    +0.000 C 
ENDBRANCH   7  16
ENDBRANCH   2   5
BRANCH   1  21
ATOM     19  N   UNL     1      -0.148  10.095  20.484  0.00  0.00    +0.000 N 
ATOM     20  C   UNL     1       0.763   9.541  19.640  0.00  0.00    +0.000 A 
ATOM     21  C   UNL     1       1.317   8.473  20.299  0.00  0.00    +0.000 A 
ATOM     22  C   UNL     1       0.669   8.460  21.549  0.00  0.00    +0.000 A 
ATOM     23  N   UNL     1      -0.224   9.445  21.666  0.00  0.00    +0.000 NA
BRANCH  19  28
ATOM     24  C   UNL     1       1.796  14.282  21.264  0.00  0.00    +0.000 C 
ATOM     25  N   UNL     1       0.529  13.722  20.773  0.00  0.00    +0.000 NA
ATOM     26  C   UNL     1       0.803  12.947  19.552  0.00  0.00    +0.000 C 
ATOM     27  C   UNL     1      -0.390  12.129  19.069  0.00  0.00    +0.000 C 
ATOM     28  C   UNL     1      -0.972  11.261  20.179  0.00  0.00    +0.000 C 
ATOM     29  C   UNL     1      -1.287  12.114  21.405  0.00  0.00    +0.000 C 
ATOM     30  C   UNL     1      -0.081  12.931  21.855  0.00  0.00    +0.000 C 
ENDBRANCH  19  28
ENDBRANCH   1  21
TORSDOF 4
ENDMDL
MODEL 2
REMARK VINA RESULT:      -9.0      1.455      1.918
REMARK  Name = 
REMARK  5 active torsions:
REMARK  status: ('A' for Active; 'I' for Inactive)
REMARK    1  A    between atoms: C_1  and  N_2
REMARK    2  A    between atoms: C_5  and  N_6
REMARK    3  A    between atoms: C_8  and  N_9
REMARK    4  A    between atoms: C_10  and  C_12
REMARK    5  A    between atoms: C_14  and  C_15
REMARK                            x       y       z     vdW  Elec       q    Type
REMARK                         _______ _______ _______ _____ _____    ______ ____
ROOT
ATOM      1  N   UNL     1       1.997   8.298  17.757  0.00  0.00    +0.000 N 
ATOM      2  C   UNL     1       2.431   7.402  18.720  0.00  0.00    +0.000 C 
ATOM      3  O   UNL     1       2.071   7.360  19.891  0.00  0.00    +0.000 OA
ATOM      4  H   UNL     1       2.322   8.221  16.802  0.00  0.00    +0.000 HD
ENDROOT
BRANCH   2   5
ATOM      5  C   UNL     1       3.426   6.408  18.254  0.00  0.00    +0.000 A 
ATOM      6  C   UNL     1       4.711   6.861  17.954  0.00  0.00    +0.000 A 
ATOM      7  C   UNL     1       5.668   5.950  17.545  0.00  0.00    +0.000 A 
ATOM      8  N   UNL     1       5.358   4.639  17.404  0.00  0.00    +0.000 NA
ATOM      9  C   UNL     1       4.116   4.198  17.668  0.00  0.00    +0.000 A 
ATOM     10  C   UNL     1       3.856   2.841  17.510  0.00  0.00    +0.000 A 
ATOM     11  C   UNL     1       2.602   2.290  17.783  0.00  0.00    +0.000 A 
ATOM     12  C   UNL     1       1.583   3.119  18.212  0.00  0.00    +0.000 A 
ATOM     13  F   UNL     1       0.376   2.606  18.481  0.00  0.00    +0.000 F 
ATOM     14  C   UNL     1       1.806   4.479  18.374  0.00  0.00    +0.000 A 
ATOM     15  C   UNL     1       3.081   5.045  18.105  0.00  0.00    +0.000 A 
BRANCH   7  16
ATOM     16  C   UNL     1       7.077   6.397  17.250  0.00  0.00    +0.000 C 
ATOM     17  C   UNL     1       7.998   6.735  18.402  0.00  0.00    +0.000 C 
ATOM     18  C   UNL     1       7.503   7.826  17.499  0.00  0.00    +0.000 C 
ENDBRANCH   7  16
ENDBRANCH   2   5
BRANCH   1  21
ATOM     19  N   UNL     1       0.345  11.298  18.650  0.00  0.00    +0.000 N 
ATOM     20  C   UNL     1       1.487  10.562  18.594  0.00  0.00    +0.000 A 
ATOM     21  C   UNL     1       1.155   9.355  18.031  0.00  0.00    +0.000 A 
ATOM     22  C   UNL     1      -0.226   9.458  17.778  0.00  0.00    +0.000 A 
ATOM     23  N   UNL     1      -0.723  10.639  18.153  0.00  0.00    +0.000 NA
BRANCH  19  28
ATOM     24  C   UNL     1      -1.788  11.767  22.792  0.00  0.00    +0.000 C 
ATOM     25  N   UNL     1      -1.134  12.609  21.779  0.00  0.00    +0.000 NA
ATOM     26  C   UNL     1       0.273  12.195  21.667  0.00  0.00    +0.000 C 
ATOM     27  C   UNL     1       1.006  12.837  20.494  0.00  0.00    +0.000 C 
ATOM     28  C   UNL     1       0.249  12.654  19.182  0.00  0.00    +0.000 C 
ATOM     29  C   UNL     1      -1.189  13.143  19.331  0.00  0.00    +0.000 C 
ATOM     30  C   UNL     1      -1.890  12.496  20.521  0.00  0.00    +0.000 C 
ENDBRANCH  19  28
ENDBRANCH   1  21
TORSDOF 4
ENDMDL
MODEL 3
REMARK VINA RESULT:      -8.8      0.931      1.702
REMARK  Name = 
REMARK  5 active torsions:
REMARK  status: ('A' for Active; 'I' for Inactive)
REMARK    1  A    between atoms: C_1  and  N_2
REMARK    2  A    between atoms: C_5  and  N_6
REMARK    3  A    between atoms: C_8  and  N_9
REMARK    4  A    between atoms: C_10  and  C_12
REMARK    5  A    between atoms: C_14  and  C_15
REMARK                            x       y       z     vdW  Elec       q    Type
REMARK                         _______ _______ _______ _____ _____    ______ ____
ROOT
ATOM      1  N   UNL     1       2.335   7.478  20.075  0.00  0.00    +0.000 N 
ATOM      2  C   UNL     1       2.447   7.225  18.718  0.00  0.00    +0.000 C 
ATOM      3  O   UNL     1       1.847   7.802  17.818  0.00  0.00    +0.000 OA
ATOM      4  H   UNL     1       2.908   6.975  20.740  0.00  0.00    +0.000 HD
ENDROOT
BRANCH   2   5
ATOM      5  C   UNL     1       3.394   6.146  18.355  0.00  0.00    +0.000 A 
ATOM      6  C   UNL     1       4.714   6.502  18.072  0.00  0.00    +0.000 A 
ATOM      7  C   UNL     1       5.626   5.511  17.758  0.00  0.00    +0.000 A 
ATOM      8  N   UNL     1       5.242   4.214  17.693  0.00  0.00    +0.000 NA
ATOM      9  C   UNL     1       3.968   3.865  17.942  0.00  0.00    +0.000 A 
ATOM     10  C   UNL     1       3.631   2.518  17.864  0.00  0.00    +0.000 A 
ATOM     11  C   UNL     1       2.338   2.061  18.128  0.00  0.00    +0.000 A 
ATOM     12  C   UNL     1       1.358   2.975  18.464  0.00  0.00    +0.000 A 
ATOM     13  F   UNL     1       0.115   2.553  18.723  0.00  0.00    +0.000 F 
ATOM     14  C   UNL     1       1.658   4.328  18.543  0.00  0.00    +0.000 A 
ATOM     15  C   UNL     1       2.973   4.798  18.283  0.00  0.00    +0.000 A 
BRANCH   7  16
ATOM     16  C   UNL     1       7.068   5.854  17.486  0.00  0.00    +0.000 C 
ATOM     17  C   UNL     1       7.947   6.306  18.632  0.00  0.00    +0.000 C 
ATOM     18  C   UNL     1       7.552   7.284  17.565  0.00  0.00    +0.000 C 
ENDBRANCH   7  16
ENDBRANCH   2   5
BRANCH   1  21
ATOM     19  N   UNL     1       0.303  10.188  21.103  0.00  0.00    +0.000 N 
ATOM     20  C   UNL     1       1.371   9.726  20.400  0.00  0.00    +0.000 A 
ATOM     21  C   UNL     1       1.427   8.371  20.607  0.00  0.00    +0.000 A 
ATOM     22  C   UNL     1       0.338   8.104  21.459  0.00  0.00    +0.000 A 
ATOM     23  N   UNL     1      -0.349   9.207  21.763  0.00  0.00    +0.000 NA
BRANCH  19  28
ATOM     24  C   UNL     1      -2.022  11.812  17.378  0.00  0.00    +0.000 C 
ATOM     25  N   UNL     1      -1.547  12.291  18.684  0.00  0.00    +0.000 NA
ATOM     26  C   UNL     1      -2.209  11.506  19.738  0.00  0.00    +0.000 C 
ATOM     27  C   UNL     1      -1.637  11.750  21.130  0.00  0.00    +0.000 C 
ATOM     28  C   UNL     1      -0.121  11.584  21.159  0.00  0.00    +0.000 C 
ATOM     29  C   UNL     1       0.525  12.454  20.084  0.00  0.00    +0.000 C 
ATOM     30  C   UNL     1      -0.078  12.199  18.707  0.00  0.00    +0.000 C 
ENDBRANCH  19  28
ENDBRANCH   1  21
TORSDOF 4
ENDMDL
MODEL 4
REMARK VINA RESULT:      -8.7      1.371      1.732
REMARK  Name = 
REMARK  5 active torsions:
REMARK  status: ('A' for Active; 'I' for Inactive)
REMARK    1  A    between atoms: C_1  and  N_2
REMARK    2  A    between atoms: C_5  and  N_6
REMARK    3  A    between atoms: C_8  and  N_9
REMARK    4  A    between atoms: C_10  and  C_12
REMARK    5  A    between atoms: C_14  and  C_15
REMARK                            x       y       z     vdW  Elec       q    Type
REMARK                         _______ _______ _______ _____ _____    ______ ____
ROOT
ATOM      1  N   UNL     1       1.915   8.317  17.985  0.00  0.00    +0.000 N 
ATOM      2  C   UNL     1       2.365   7.365  18.884  0.00  0.00    +0.000 C 
ATOM      3  O   UNL     1       2.026   7.252  20.057  0.00  0.00    +0.000 OA
ATOM      4  H   UNL     1       2.224   8.299  17.021  0.00  0.00    +0.000 HD
ENDROOT
BRANCH   2   5
ATOM      5  C   UNL     1       3.354   6.403  18.342  0.00  0.00    +0.000 A 
ATOM      6  C   UNL     1       4.618   6.887  18.002  0.00  0.00    +0.000 A 
ATOM      7  C   UNL     1       5.569   6.005  17.521  0.00  0.00    +0.000 A 
ATOM      8  N   UNL     1       5.271   4.695  17.349  0.00  0.00    +0.000 NA
ATOM      9  C   UNL     1       4.049   4.225  17.652  0.00  0.00    +0.000 A 
ATOM     10  C   UNL     1       3.801   2.871  17.458  0.00  0.00    +0.000 A 
ATOM     11  C   UNL     1       2.569   2.291  17.766  0.00  0.00    +0.000 A 
ATOM     12  C   UNL     1       1.558   3.089  18.266  0.00  0.00    +0.000 A 
ATOM     13  F   UNL     1       0.371   2.548  18.570  0.00  0.00    +0.000 F 
ATOM     14  C   UNL     1       1.768   4.446  18.465  0.00  0.00    +0.000 A 
ATOM     15  C   UNL     1       3.022   5.041  18.161  0.00  0.00    +0.000 A 
BRANCH   7  16
ATOM     16  C   UNL     1       6.957   6.483  17.182  0.00  0.00    +0.000 C 
ATOM     17  C   UNL     1       7.938   6.749  18.302  0.00  0.00    +0.000 C 
ATOM     18  C   UNL     1       7.389   7.895  17.505  0.00  0.00    +0.000 C 
ENDBRANCH   7  16
ENDBRANCH   2   5
BRANCH   1  21
ATOM     19  N   UNL     1       0.197  11.119  19.300  0.00  0.00    +0.000 N 
ATOM     20  C   UNL     1       1.265  10.276  19.335  0.00  0.00    +0.000 A 
ATOM     21  C   UNL     1       1.076   9.354  18.337  0.00  0.00    +0.000 A 
ATOM     22  C   UNL     1      -0.146   9.726  17.745  0.00  0.00    +0.000 A 
ATOM     23  N   UNL     1      -0.684  10.800  18.328  0.00  0.00    +0.000 NA
BRANCH  19  28
ATOM     24  C   UNL     1       2.591  15.016  18.299  0.00  0.00    +0.000 C 
ATOM     25  N   UNL     1       1.630  14.531  19.299  0.00  0.00    +0.000 NA
ATOM     26  C   UNL     1       0.375  14.186  18.612  0.00  0.00    +0.000 C 
ATOM     27  C   UNL     1      -0.628  13.460  19.502  0.00  0.00    +0.000 C 
ATOM     28  C   UNL     1      -0.004  12.253  20.196  0.00  0.00    +0.000 C 
ATOM     29  C   UNL     1       1.265  12.668  20.936  0.00  0.00    +0.000 C 
ATOM     30  C   UNL     1       2.241  13.406  20.024  0.00  0.00    +0.000 C 
ENDBRANCH  19  28
ENDBRANCH   1  21
TORSDOF 4
ENDMDL
MODEL 5
REMARK VINA RESULT:      -8.5      1.830      2.301
REMARK  Name = 
REMARK  5 active torsions:
REMARK  status: ('A' for Active; 'I' for Inactive)
REMARK    1  A    between atoms: C_1  and  N_2
REMARK    2  A    between atoms: C_5  and  N_6
REMARK    3  A    between atoms: C_8  and  N_9
REMARK    4  A    between atoms: C_10  and  C_12
REMARK    5  A    between atoms: C_14  and  C_15
REMARK                            x       y       z     vdW  Elec       q    Type
REMARK                         _______ _______ _______ _____ _____    ______ ____
ROOT
ATOM      1  N   UNL     1       2.025   8.318  17.691  0.00  0.00    +0.000 N 
ATOM      2  C   UNL     1       2.485   7.396  18.616  0.00  0.00    +0.000 C 
ATOM      3  O   UNL     1       2.379   7.471  19.835  0.00  0.00    +0.000 OA
ATOM      4  H   UNL     1       2.122   8.143  16.699  0.00  0.00    +0.000 HD
ENDROOT
BRANCH   2   5
ATOM      5  C   UNL     1       3.166   6.212  18.040  0.00  0.00    +0.000 A 
ATOM      6  C   UNL     1       4.286   6.429  17.236  0.00  0.00    +0.000 A 
ATOM      7  C   UNL     1       4.958   5.340  16.711  0.00  0.00    +0.000 A 
ATOM      8  N   UNL     1       4.519   4.080  16.943  0.00  0.00    +0.000 NA
ATOM      9  C   UNL     1       3.428   3.863  17.697  0.00  0.00    +0.000 A 
ATOM     10  C   UNL     1       3.026   2.549  17.905  0.00  0.00    +0.000 A 
ATOM     11  C   UNL     1       1.918   2.228  18.692  0.00  0.00    +0.000 A 
ATOM     12  C   UNL     1       1.189   3.248  19.273  0.00  0.00    +0.000 A 
ATOM     13  F   UNL     1       0.127   2.957  20.034  0.00  0.00    +0.000 F 
ATOM     14  C   UNL     1       1.558   4.572  19.080  0.00  0.00    +0.000 A 
ATOM     15  C   UNL     1       2.688   4.904  18.287  0.00  0.00    +0.000 A 
BRANCH   7  16
ATOM     16  C   UNL     1       6.194   5.534  15.870  0.00  0.00    +0.000 C 
ATOM     17  C   UNL     1       6.229   4.962  14.470  0.00  0.00    +0.000 C 
ATOM     18  C   UNL     1       7.095   4.365  15.540  0.00  0.00    +0.000 C 
ENDBRANCH   7  16
ENDBRANCH   2   5
BRANCH   1  21
ATOM     19  N   UNL     1       1.131  11.656  18.458  0.00  0.00    +0.000 N 
ATOM     20  C   UNL     1       2.076  10.754  18.078  0.00  0.00    +0.000 A 
ATOM     21  C   UNL     1       1.462   9.528  18.043  0.00  0.00    +0.000 A 
ATOM     22  C   UNL     1       0.132   9.793  18.421  0.00  0.00    +0.000 A 
ATOM     23  N   UNL     1      -0.074  11.087  18.674  0.00  0.00    +0.000 NA
BRANCH  19  28
ATOM     24  C   UNL     1      -0.560  13.604  22.365  0.00  0.00    +0.000 C 
ATOM     25  N   UNL     1       0.184  14.000  21.160  0.00  0.00    +0.000 NA
ATOM     26  C   UNL     1       1.461  13.270  21.140  0.00  0.00    +0.000 C 
ATOM     27  C   UNL     1       2.229  13.421  19.831  0.00  0.00    +0.000 C 
ATOM     28  C   UNL     1       1.360  13.088  18.622  0.00  0.00    +0.000 C 
ATOM     29  C   UNL     1       0.071  13.905  18.658  0.00  0.00    +0.000 C 
ATOM     30  C   UNL     1      -0.665  13.747  19.985  0.00  0.00    +0.000 C 
ENDBRANCH  19  28
ENDBRANCH   1  21
TORSDOF 4
ENDMDL
MODEL 6
REMARK VINA RESULT:      -8.5      1.385      1.626
REMARK  Name = 
REMARK  5 active torsions:
REMARK  status: ('A' for Active; 'I' for Inactive)
REMARK    1  A    between atoms: C_1  and  N_2
REMARK    2  A    between atoms: C_5  and  N_6
REMARK    3  A    between atoms: C_8  and  N_9
REMARK    4  A    between atoms: C_10  and  C_12
REMARK    5  A    between atoms: C_14  and  C_15
REMARK                            x       y       z     vdW  Elec       q    Type
REMARK                         _______ _______ _______ _____ _____    ______ ____
ROOT
ATOM      1  N   UNL     1       2.200   7.607  20.189  0.00  0.00    +0.000 N 
ATOM      2  C   UNL     1       2.328   7.514  18.813  0.00  0.00    +0.000 C 
ATOM      3  O   UNL     1       1.899   8.311  17.986  0.00  0.00    +0.000 OA
ATOM      4  H   UNL     1       2.630   6.917  20.791  0.00  0.00    +0.000 HD
ENDROOT
BRANCH   2   5
ATOM      5  C   UNL     1       3.062   6.322  18.327  0.00  0.00    +0.000 A 
ATOM      6  C   UNL     1       4.062   6.515  17.373  0.00  0.00    +0.000 A 
ATOM      7  C   UNL     1       4.783   5.423  16.924  0.00  0.00    +0.000 A 
ATOM      8  N   UNL     1       4.503   4.177  17.377  0.00  0.00    +0.000 NA
ATOM      9  C   UNL     1       3.526   3.980  18.278  0.00  0.00    +0.000 A 
ATOM     10  C   UNL     1       3.286   2.681  18.710  0.00  0.00    +0.000 A 
ATOM     11  C   UNL     1       2.307   2.385  19.661  0.00  0.00    +0.000 A 
ATOM     12  C   UNL     1       1.543   3.412  20.180  0.00  0.00    +0.000 A 
ATOM     13  F   UNL     1       0.602   3.145  21.095  0.00  0.00    +0.000 F 
ATOM     14  C   UNL     1       1.750   4.720  19.766  0.00  0.00    +0.000 A 
ATOM     15  C   UNL     1       2.750   5.029  18.805  0.00  0.00    +0.000 A 
BRANCH   7  16
ATOM     16  C   UNL     1       5.897   5.597  15.924  0.00  0.00    +0.000 C 
ATOM     17  C   UNL     1       5.814   4.874  14.597  0.00  0.00    +0.000 C 
ATOM     18  C   UNL     1       6.839   4.457  15.610  0.00  0.00    +0.000 C 
ENDBRANCH   7  16
ENDBRANCH   2   5
BRANCH   1  21
ATOM     19  N   UNL     1       0.042  10.204  21.249  0.00  0.00    +0.000 N 
ATOM     20  C   UNL     1       0.529   9.420  20.250  0.00  0.00    +0.000 A 
ATOM     21  C   UNL     1       1.461   8.588  20.816  0.00  0.00    +0.000 A 
ATOM     22  C   UNL     1       1.466   8.947  22.178  0.00  0.00    +0.000 A 
ATOM     23  N   UNL     1       0.604   9.930  22.446  0.00  0.00    +0.000 NA
BRANCH  19  28
ATOM     24  C   UNL     1       1.480  14.284  19.458  0.00  0.00    +0.000 C 
ATOM     25  N   UNL     1       0.240  13.661  19.941  0.00  0.00    +0.000 NA
ATOM     26  C   UNL     1      -0.058  12.496  19.093  0.00  0.00    +0.000 C 
ATOM     27  C   UNL     1      -1.196  11.630  19.625  0.00  0.00    +0.000 C 
ATOM     28  C   UNL     1      -0.977  11.236  21.082  0.00  0.00    +0.000 C 
ATOM     29  C   UNL     1      -0.722  12.479  21.931  0.00  0.00    +0.000 C 
ATOM     30  C   UNL     1       0.409  13.332  21.366  0.00  0.00    +0.000 C 
ENDBRANCH  19  28
ENDBRANCH   1  21
TORSDOF 4
ENDMDL
MODEL 7
REMARK VINA RESULT:      -8.5      1.317      1.317
REMARK  Name = 
REMARK  5 active torsions:
REMARK  status: ('A' for Active; 'I' for Inactive)
REMARK    1  A    between atoms: C_1  and  N_2
REMARK    2  A    between atoms: C_5  and  N_6
REMARK    3  A    between atoms: C_8  and  N_9
REMARK    4  A    between atoms: C_10  and  C_12
REMARK    5  A    between atoms: C_14  and  C_15
REMARK                            x       y       z     vdW  Elec       q    Type
REMARK                         _______ _______ _______ _____ _____    ______ ____
ROOT
ATOM      1  N   UNL     1       2.231   7.667  20.297  0.00  0.00    +0.000 N 
ATOM      2  C   UNL     1       2.452   7.036  19.084  0.00  0.00    +0.000 C 
ATOM      3  O   UNL     1       1.891   7.281  18.022  0.00  0.00    +0.000 OA
ATOM      4  H   UNL     1       2.780   7.422  21.111  0.00  0.00    +0.000 HD
ENDROOT
BRANCH   2   5
ATOM      5  C   UNL     1       3.477   5.966  19.108  0.00  0.00    +0.000 A 
ATOM      6  C   UNL     1       4.708   6.226  18.507  0.00  0.00    +0.000 A 
ATOM      7  C   UNL     1       5.693   5.254  18.541  0.00  0.00    +0.000 A 
ATOM      8  N   UNL     1       5.458   4.053  19.121  0.00  0.00    +0.000 NA
ATOM      9  C   UNL     1       4.266   3.786  19.682  0.00  0.00    +0.000 A 
ATOM     10  C   UNL     1       4.082   2.538  20.266  0.00  0.00    +0.000 A 
ATOM     11  C   UNL     1       2.886   2.181  20.893  0.00  0.00    +0.000 A 
ATOM     12  C   UNL     1       1.847   3.091  20.923  0.00  0.00    +0.000 A 
ATOM     13  F   UNL     1       0.694   2.766  21.522  0.00  0.00    +0.000 F 
ATOM     14  C   UNL     1       1.993   4.343  20.343  0.00  0.00    +0.000 A 
ATOM     15  C   UNL     1       3.210   4.715  19.711  0.00  0.00    +0.000 A 
BRANCH   7  16
ATOM     16  C   UNL     1       7.049   5.514  17.937  0.00  0.00    +0.000 C 
ATOM     17  C   UNL     1       8.065   6.312  18.724  0.00  0.00    +0.000 C 
ATOM     18  C   UNL     1       7.444   6.904  17.492  0.00  0.00    +0.000 C 
ENDBRANCH   7  16
ENDBRANCH   2   5
BRANCH   1  21
ATOM     19  N   UNL     1      -0.114  10.319  20.253  0.00  0.00    +0.000 N 
ATOM     20  C   UNL     1       0.941   9.677  19.681  0.00  0.00    +0.000 A 
ATOM     21  C   UNL     1       1.245   8.612  20.490  0.00  0.00    +0.000 A 
ATOM     22  C   UNL     1       0.308   8.693  21.538  0.00  0.00    +0.000 A 
ATOM     23  N   UNL     1      -0.521   9.730  21.398  0.00  0.00    +0.000 NA
BRANCH  19  28
ATOM     24  C   UNL     1       1.757  14.431  21.480  0.00  0.00    +0.000 C 
ATOM     25  N   UNL     1       0.647  13.917  20.666  0.00  0.00    +0.000 NA
ATOM     26  C   UNL     1       1.206  13.097  19.580  0.00  0.00    +0.000 C 
ATOM     27  C   UNL     1       0.151  12.322  18.797  0.00  0.00    +0.000 C 
ATOM     28  C   UNL     1      -0.759  11.512  19.716  0.00  0.00    +0.000 C 
ATOM     29  C   UNL     1      -1.354  12.413  20.794  0.00  0.00    +0.000 C 
ATOM     30  C   UNL     1      -0.277  13.187  21.549  0.00  0.00    +0.000 C 
ENDBRANCH  19  28
ENDBRANCH   1  21
TORSDOF 4
ENDMDL
MODEL 8
REMARK VINA RESULT:      -8.5      1.721      2.060
REMARK  Name = 
REMARK  5 active torsions:
REMARK  status: ('A' for Active; 'I' for Inactive)
REMARK    1  A    between atoms: C_1  and  N_2
REMARK    2  A    between atoms: C_5  and  N_6
REMARK    3  A    between atoms: C_8  and  N_9
REMARK    4  A    between atoms: C_10  and  C_12
REMARK    5  A    between atoms: C_14  and  C_15
REMARK                            x       y       z     vdW  Elec       q    Type
REMARK                         _______ _______ _______ _____ _____    ______ ____
ROOT
ATOM      1  N   UNL     1       2.178   8.312  17.682  0.00  0.00    +0.000 N 
ATOM      2  C   UNL     1       2.531   7.337  18.600  0.00  0.00    +0.000 C 
ATOM      3  O   UNL     1       2.348   7.375  19.811  0.00  0.00    +0.000 OA
ATOM      4  H   UNL     1       2.334   8.167  16.693  0.00  0.00    +0.000 HD
ENDROOT
BRANCH   2   5
ATOM      5  C   UNL     1       3.193   6.142  18.025  0.00  0.00    +0.000 A 
ATOM      6  C   UNL     1       4.320   6.340  17.226  0.00  0.00    +0.000 A 
ATOM      7  C   UNL     1       4.974   5.239  16.702  0.00  0.00    +0.000 A 
ATOM      8  N   UNL     1       4.513   3.987  16.931  0.00  0.00    +0.000 NA
ATOM      9  C   UNL     1       3.415   3.789  17.680  0.00  0.00    +0.000 A 
ATOM     10  C   UNL     1       2.989   2.482  17.885  0.00  0.00    +0.000 A 
ATOM     11  C   UNL     1       1.872   2.180  18.668  0.00  0.00    +0.000 A 
ATOM     12  C   UNL     1       1.160   3.212  19.247  0.00  0.00    +0.000 A 
ATOM     13  F   UNL     1       0.089   2.940  20.003  0.00  0.00    +0.000 F 
ATOM     14  C   UNL     1       1.552   4.529  19.058  0.00  0.00    +0.000 A 
ATOM     15  C   UNL     1       2.692   4.843  18.269  0.00  0.00    +0.000 A 
BRANCH   7  16
ATOM     16  C   UNL     1       6.218   5.412  15.867  0.00  0.00    +0.000 C 
ATOM     17  C   UNL     1       6.153   5.125  14.383  0.00  0.00    +0.000 C 
ATOM     18  C   UNL     1       6.931   4.213  15.284  0.00  0.00    +0.000 C 
ENDBRANCH   7  16
ENDBRANCH   2   5
BRANCH   1  21
ATOM     19  N   UNL     1       0.311  11.133  18.725  0.00  0.00    +0.000 N 
ATOM     20  C   UNL     1       0.370   9.801  18.456  0.00  0.00    +0.000 A 
ATOM     21  C   UNL     1       1.650   9.535  18.042  0.00  0.00    +0.000 A 
ATOM     22  C   UNL     1       2.300  10.783  18.096  0.00  0.00    +0.000 A 
ATOM     23  N   UNL     1       1.488  11.758  18.511  0.00  0.00    +0.000 NA
BRANCH  19  28
ATOM     24  C   UNL     1       1.022  14.540  21.856  0.00  0.00    +0.000 C 
ATOM     25  N   UNL     1      -0.095  13.907  21.141  0.00  0.00    +0.000 NA
ATOM     26  C   UNL     1       0.095  14.119  19.698  0.00  0.00    +0.000 C 
ATOM     27  C   UNL     1      -0.874  13.321  18.831  0.00  0.00    +0.000 C 
ATOM     28  C   UNL     1      -0.876  11.840  19.197  0.00  0.00    +0.000 C 
ATOM     29  C   UNL     1      -1.126  11.667  20.693  0.00  0.00    +0.000 C 
ATOM     30  C   UNL     1      -0.153  12.489  21.532  0.00  0.00    +0.000 C 
ENDBRANCH  19  28
ENDBRANCH   1  21
TORSDOF 4
ENDMDL
MODEL 9
REMARK VINA RESULT:      -8.5      1.762      2.166
REMARK  Name = 
REMARK  5 active torsions:
REMARK  status: ('A' for Active; 'I' for Inactive)
REMARK    1  A    between atoms: C_1  and  N_2
REMARK    2  A    between atoms: C_5  and  N_6
REMARK    3  A    between atoms: C_8  and  N_9
REMARK    4  A    between atoms: C_10  and  C_12
REMARK    5  A    between atoms: C_14  and  C_15
REMARK                            x       y       z     vdW  Elec       q    Type
REMARK                         _______ _______ _______ _____ _____    ______ ____
ROOT
ATOM      1  N   UNL     1       2.049   8.308  18.042  0.00  0.00    +0.000 N 
ATOM      2  C   UNL     1       2.474   7.261  18.844  0.00  0.00    +0.000 C 
ATOM      3  O   UNL     1       2.373   7.189  20.063  0.00  0.00    +0.000 OA
ATOM      4  H   UNL     1       2.138   8.253  17.036  0.00  0.00    +0.000 HD
ENDROOT
BRANCH   2   5
ATOM      5  C   UNL     1       3.108   6.133  18.122  0.00  0.00    +0.000 A 
ATOM      6  C   UNL     1       4.194   6.416  17.292  0.00  0.00    +0.000 A 
ATOM      7  C   UNL     1       4.823   5.377  16.629  0.00  0.00    +0.000 A 
ATOM      8  N   UNL     1       4.375   4.105  16.755  0.00  0.00    +0.000 NA
ATOM      9  C   UNL     1       3.315   3.828  17.535  0.00  0.00    +0.000 A 
ATOM     10  C   UNL     1       2.901   2.504  17.630  0.00  0.00    +0.000 A 
ATOM     11  C   UNL     1       1.825   2.119  18.433  0.00  0.00    +0.000 A 
ATOM     12  C   UNL     1       1.141   3.084  19.146  0.00  0.00    +0.000 A 
ATOM     13  F   UNL     1       0.109   2.732  19.923  0.00  0.00    +0.000 F 
ATOM     14  C   UNL     1       1.522   4.416  19.068  0.00  0.00    +0.000 A 
ATOM     15  C   UNL     1       2.621   4.813  18.259  0.00  0.00    +0.000 A 
BRANCH   7  16
ATOM     16  C   UNL     1       6.023   5.639  15.756  0.00  0.00    +0.000 C 
ATOM     17  C   UNL     1       6.176   4.865  14.464  0.00  0.00    +0.000 C 
ATOM     18  C   UNL     1       7.112   4.601  15.606  0.00  0.00    +0.000 C 
ENDBRANCH   7  16
ENDBRANCH   2   5
BRANCH   1  21
ATOM     19  N   UNL     1       0.993  11.590  18.845  0.00  0.00    +0.000 N 
ATOM     20  C   UNL     1       1.697  10.750  18.040  0.00  0.00    +0.000 A 
ATOM     21  C   UNL     1       1.533   9.485  18.545  0.00  0.00    +0.000 A 
ATOM     22  C   UNL     1       0.703   9.663  19.668  0.00  0.00    +0.000 A 
ATOM     23  N   UNL     1       0.372  10.943  19.855  0.00  0.00    +0.000 NA
BRANCH  19  28
ATOM     24  C   UNL     1       3.850  14.211  21.469  0.00  0.00    +0.000 C 
ATOM     25  N   UNL     1       2.810  14.389  20.446  0.00  0.00    +0.000 NA
ATOM     26  C   UNL     1       3.263  13.742  19.204  0.00  0.00    +0.000 C 
ATOM     27  C   UNL     1       2.182  13.659  18.132  0.00  0.00    +0.000 C 
ATOM     28  C   UNL     1       0.896  13.035  18.666  0.00  0.00    +0.000 C 
ATOM     29  C   UNL     1       0.438  13.769  19.924  0.00  0.00    +0.000 C 
ATOM     30  C   UNL     1       1.544  13.850  20.971  0.00  0.00    +0.000 C 
ENDBRANCH  19  28
ENDBRANCH   1  21
TORSDOF 4
ENDMDL
