MODEL 1
REMARK VINA RESULT:      -8.7      0.000      0.000
REMARK  Name = 
REMARK  7 active torsions:
REMARK  status: ('A' for Active; 'I' for Inactive)
REMARK    1  A    between atoms: C_1  and  N_2
REMARK    2  A    between atoms: C_6  and  C_7
REMARK    3  A    between atoms: C_11  and  N_12
REMARK    4  A    between atoms: C_13  and  C_15
REMARK    5  A    between atoms: C_18  and  C_19
REMARK    6  A    between atoms: C_19  and  O_20
REMARK    7  A    between atoms: O_20  and  C_21
REMARK                            x       y       z     vdW  Elec       q    Type
REMARK                         _______ _______ _______ _____ _____    ______ ____
ROOT
ATOM      1  N   UNL     1       2.015   6.954  18.980  0.00  0.00    +0.000 N 
ATOM      2  C   UNL     1       1.710   7.081  20.327  0.00  0.00    +0.000 C 
ATOM      3  O   UNL     1       1.823   6.186  21.162  0.00  0.00    +0.000 OA
ATOM      4  H   UNL     1       1.957   7.816  18.448  0.00  0.00    +0.000 HD
ENDROOT
BRANCH   1   9
ATOM      5  C   UNL     1       4.498   4.648  17.448  0.00  0.00    +0.000 A 
ATOM      6  C   UNL     1       3.690   3.530  17.192  0.00  0.00    +0.000 A 
ATOM      7  C   UNL     1       2.324   3.556  17.462  0.00  0.00    +0.000 A 
ATOM      8  C   UNL     1       1.747   4.694  18.023  0.00  0.00    +0.000 A 
ATOM      9  C   UNL     1       2.530   5.807  18.336  0.00  0.00    +0.000 A 
ATOM     10  C   UNL     1       3.900   5.784  18.022  0.00  0.00    +0.000 A 
BRANCH   5  16
ATOM     11  C   UNL     1       6.036   4.700  14.618  0.00  0.00    +0.000 C 
ATOM     12  N   UNL     1       6.568   4.581  15.945  0.00  0.00    +0.000 N 
ATOM     13  N   UNL     1       7.891   4.400  16.106  0.00  0.00    +0.000 NA
ATOM     14  N   UNL     1       8.064   4.239  17.406  0.00  0.00    +0.000 NA
ATOM     15  N   UNL     1       6.870   4.313  18.069  0.00  0.00    +0.000 NA
ATOM     16  C   UNL     1       5.931   4.539  17.162  0.00  0.00    +0.000 A 
ENDBRANCH   5  16
ENDBRANCH   1   9
BRANCH   2  17
ATOM     17  C   UNL     1       1.264   8.409  20.708  0.00  0.00    +0.000 A 
ATOM     18  C   UNL     1       0.971   8.923  21.956  0.00  0.00    +0.000 A 
ATOM     19  C   UNL     1       0.570  10.262  21.766  0.00  0.00    +0.000 A 
ATOM     20  C   UNL     1       0.641  10.499  20.408  0.00  0.00    +0.000 A 
ATOM     21  O   UNL     1       1.078   9.379  19.756  0.00  0.00    +0.000 OA
BRANCH  20  22
ATOM     22  C   UNL     1       0.335  11.692  19.576  0.00  0.00    +0.000 C 
BRANCH  22  23
ATOM     23  O   UNL     1      -0.189  11.194  18.348  0.00  0.00    +0.000 OA
BRANCH  23  24
ATOM     24  C   UNL     1      -1.548  11.166  18.213  0.00  0.00    +0.000 A 
ATOM     25  C   UNL     1      -2.469  11.867  18.995  0.00  0.00    +0.000 A 
ATOM     26  C   UNL     1      -3.838  11.747  18.736  0.00  0.00    +0.000 A 
ATOM     27  C   UNL     1      -4.278  10.930  17.700  0.00  0.00    +0.000 A 
ATOM     28  F   UNL     1      -5.590  10.824  17.455  0.00  0.00    +0.000 F 
ATOM     29  C   UNL     1      -3.375  10.223  16.919  0.00  0.00    +0.000 A 
ATOM     30  C   UNL     1      -2.009  10.341  17.179  0.00  0.00    +0.000 A 
ENDBRANCH  23  24
ENDBRANCH  22  23
ENDBRANCH  20  22
ENDBRANCH   2  17
TORSDOF 6
ENDMDL
MODEL 2
REMARK VINA RESULT:      -8.5      7.533      9.599
REMARK  Name = 
REMARK  7 active torsions:
REMARK  status: ('A' for Active; 'I' for Inactive)
REMARK    1  A    between atoms: C_1  and  N_2
REMARK    2  A    between atoms: C_6  and  C_7
REMARK    3  A    between atoms: C_11  and  N_12
REMARK    4  A    between atoms: C_13  and  C_15
REMARK    5  A    between atoms: C_18  and  C_19
REMARK    6  A    between atoms: C_19  and  O_20
REMARK    7  A    between atoms: O_20  and  C_21
REMARK                            x       y       z     vdW  Elec       q    Type
REMARK                         _______ _______ _______ _____ _____    ______ ____
ROOT
ATOM      1  N   UNL     1       6.973   7.231  17.056  0.00  0.00    +0.000 N 
ATOM      2  C   UNL     1       7.846   7.452  18.111  0.00  0.00    +0.000 C 
ATOM      3  O   UNL     1       8.263   6.583  18.873  0.00  0.00    +0.000 OA
ATOM      4  H   UNL     1       6.805   8.040  16.467  0.00  0.00    +0.000 HD
ENDROOT
BRANCH   1   9
ATOM      5  C   UNL     1       4.676   4.309  16.943  0.00  0.00    +0.000 A 
ATOM      6  C   UNL     1       5.197   3.612  15.843  0.00  0.00    +0.000 A 
ATOM      7  C   UNL     1       6.336   4.065  15.181  0.00  0.00    +0.000 A 
ATOM      8  C   UNL     1       6.956   5.244  15.591  0.00  0.00    +0.000 A 
ATOM      9  C   UNL     1       6.436   5.989  16.651  0.00  0.00    +0.000 A 
ATOM     10  C   UNL     1       5.310   5.501  17.337  0.00  0.00    +0.000 A 
BRANCH   5  16
ATOM     11  C   UNL     1       4.327   2.729  19.728  0.00  0.00    +0.000 C 
ATOM     12  N   UNL     1       3.333   3.129  18.775  0.00  0.00    +0.000 N 
ATOM     13  N   UNL     1       2.052   2.774  18.975  0.00  0.00    +0.000 NA
ATOM     14  N   UNL     1       1.401   3.199  17.907  0.00  0.00    +0.000 NA
ATOM     15  N   UNL     1       2.253   3.816  17.033  0.00  0.00    +0.000 NA
ATOM     16  C   UNL     1       3.461   3.787  17.574  0.00  0.00    +0.000 A 
ENDBRANCH   5  16
ENDBRANCH   1   9
BRANCH   2  17
ATOM     17  C   UNL     1       8.281   8.832  18.237  0.00  0.00    +0.000 A 
ATOM     18  C   UNL     1       8.053   9.913  17.409  0.00  0.00    +0.000 A 
ATOM     19  C   UNL     1       8.711  11.020  17.988  0.00  0.00    +0.000 A 
ATOM     20  C   UNL     1       9.307  10.556  19.143  0.00  0.00    +0.000 A 
ATOM     21  O   UNL     1       9.037   9.226  19.311  0.00  0.00    +0.000 OA
BRANCH  20  22
ATOM     22  C   UNL     1      10.149  11.213  20.176  0.00  0.00    +0.000 C 
BRANCH  22  23
ATOM     23  O   UNL     1      11.412  11.453  19.562  0.00  0.00    +0.000 OA
BRANCH  23  24
ATOM     24  C   UNL     1      11.602  12.674  18.977  0.00  0.00    +0.000 A 
ATOM     25  C   UNL     1      11.389  13.917  19.576  0.00  0.00    +0.000 A 
ATOM     26  C   UNL     1      11.634  15.090  18.854  0.00  0.00    +0.000 A 
ATOM     27  C   UNL     1      12.088  15.014  17.542  0.00  0.00    +0.000 A 
ATOM     28  F   UNL     1      12.324  16.141  16.859  0.00  0.00    +0.000 F 
ATOM     29  C   UNL     1      12.298  13.786  16.932  0.00  0.00    +0.000 A 
ATOM     30  C   UNL     1      12.052  12.615  17.652  0.00  0.00    +0.000 A 
ENDBRANCH  23  24
ENDBRANCH  22  23
ENDBRANCH  20  22
ENDBRANCH   2  17
TORSDOF 6
ENDMDL
MODEL 3
REMARK VINA RESULT:      -8.5      0.651      1.171
REMARK  Name = 
REMARK  7 active torsions:
REMARK  status: ('A' for Active; 'I' for Inactive)
REMARK    1  A    between atoms: C_1  and  N_2
REMARK    2  A    between atoms: C_6  and  C_7
REMARK    3  A    between atoms: C_11  and  N_12
REMARK    4  A    between atoms: C_13  and  C_15
REMARK    5  A    between atoms: C_18  and  C_19
REMARK    6  A    between atoms: C_19  and  O_20
REMARK    7  A    between atoms: O_20  and  C_21
REMARK                            x       y       z     vdW  Elec       q    Type
REMARK                         _______ _______ _______ _____ _____    ______ ____
ROOT
ATOM      1  N   UNL     1       2.051   6.837  18.826  0.00  0.00    +0.000 N 
ATOM      2  C   UNL     1       1.889   6.943  20.200  0.00  0.00    +0.000 C 
ATOM      3  O   UNL     1       2.139   6.052  21.008  0.00  0.00    +0.000 OA
ATOM      4  H   UNL     1       1.890   7.697  18.312  0.00  0.00    +0.000 HD
ENDROOT
BRANCH   1   9
ATOM      5  C   UNL     1       4.382   4.767  16.799  0.00  0.00    +0.000 A 
ATOM      6  C   UNL     1       3.711   3.535  16.809  0.00  0.00    +0.000 A 
ATOM      7  C   UNL     1       2.469   3.401  17.424  0.00  0.00    +0.000 A 
ATOM      8  C   UNL     1       1.889   4.493  18.067  0.00  0.00    +0.000 A 
ATOM      9  C   UNL     1       2.551   5.721  18.119  0.00  0.00    +0.000 A 
ATOM     10  C   UNL     1       3.786   5.856  17.460  0.00  0.00    +0.000 A 
BRANCH   5  16
ATOM     11  C   UNL     1       7.319   4.713  18.121  0.00  0.00    +0.000 C 
ATOM     12  N   UNL     1       6.941   4.787  16.740  0.00  0.00    +0.000 N 
ATOM     13  N   UNL     1       7.898   4.916  15.805  0.00  0.00    +0.000 NA
ATOM     14  N   UNL     1       7.251   5.045  14.660  0.00  0.00    +0.000 NA
ATOM     15  N   UNL     1       5.899   5.002  14.858  0.00  0.00    +0.000 NA
ATOM     16  C   UNL     1       5.697   4.828  16.155  0.00  0.00    +0.000 A 
ENDBRANCH   5  16
ENDBRANCH   1   9
BRANCH   2  17
ATOM     17  C   UNL     1       1.418   8.244  20.640  0.00  0.00    +0.000 A 
ATOM     18  C   UNL     1       1.029   8.669  21.895  0.00  0.00    +0.000 A 
ATOM     19  C   UNL     1       0.648  10.022  21.771  0.00  0.00    +0.000 A 
ATOM     20  C   UNL     1       0.825  10.355  20.444  0.00  0.00    +0.000 A 
ATOM     21  O   UNL     1       1.308   9.281  19.748  0.00  0.00    +0.000 OA
BRANCH  20  22
ATOM     22  C   UNL     1       0.588  11.607  19.678  0.00  0.00    +0.000 C 
BRANCH  22  23
ATOM     23  O   UNL     1       0.052  11.206  18.421  0.00  0.00    +0.000 OA
BRANCH  23  24
ATOM     24  C   UNL     1      -1.309  11.129  18.316  0.00  0.00    +0.000 A 
ATOM     25  C   UNL     1      -2.231  11.997  18.906  0.00  0.00    +0.000 A 
ATOM     26  C   UNL     1      -3.601  11.800  18.705  0.00  0.00    +0.000 A 
ATOM     27  C   UNL     1      -4.040  10.740  17.919  0.00  0.00    +0.000 A 
ATOM     28  F   UNL     1      -5.353  10.560  17.728  0.00  0.00    +0.000 F 
ATOM     29  C   UNL     1      -3.136   9.866  17.333  0.00  0.00    +0.000 A 
ATOM     30  C   UNL     1      -1.769  10.062  17.535  0.00  0.00    +0.000 A 
ENDBRANCH  23  24
ENDBRANCH  22  23
ENDBRANCH  20  22
ENDBRANCH   2  17
TORSDOF 6
ENDMDL
MODEL 4
REMARK VINA RESULT:      -8.4      3.018      3.667
REMARK  Name = 
REMARK  7 active torsions:
REMARK  status: ('A' for Active; 'I' for Inactive)
REMARK    1  A    between atoms: C_1  and  N_2
REMARK    2  A    between atoms: C_6  and  C_7
REMARK    3  A    between atoms: C_11  and  N_12
REMARK    4  A    between atoms: C_13  and  C_15
REMARK    5  A    between atoms: C_18  and  C_19
REMARK    6  A    between atoms: C_19  and  O_20
REMARK    7  A    between atoms: O_20  and  C_21
REMARK                            x       y       z     vdW  Elec       q    Type
REMARK                         _______ _______ _______ _____ _____    ______ ____
ROOT
ATOM      1  N   UNL     1       2.097   6.702  19.874  0.00  0.00    +0.000 N 
ATOM      2  C   UNL     1       1.809   8.014  19.526  0.00  0.00    +0.000 C 
ATOM      3  O   UNL     1       1.947   8.490  18.402  0.00  0.00    +0.000 OA
ATOM      4  H   UNL     1       1.836   6.446  20.820  0.00  0.00    +0.000 HD
ENDROOT
BRANCH   1   9
ATOM      5  C   UNL     1       4.471   4.682  17.845  0.00  0.00    +0.000 A 
ATOM      6  C   UNL     1       3.633   3.637  17.430  0.00  0.00    +0.000 A 
ATOM      7  C   UNL     1       2.281   3.629  17.760  0.00  0.00    +0.000 A 
ATOM      8  C   UNL     1       1.748   4.654  18.540  0.00  0.00    +0.000 A 
ATOM      9  C   UNL     1       2.563   5.684  19.012  0.00  0.00    +0.000 A 
ATOM     10  C   UNL     1       3.919   5.703  18.639  0.00  0.00    +0.000 A 
BRANCH   5  16
ATOM     11  C   UNL     1       5.868   4.985  14.958  0.00  0.00    +0.000 C 
ATOM     12  N   UNL     1       6.465   4.761  16.243  0.00  0.00    +0.000 N 
ATOM     13  N   UNL     1       7.795   4.580  16.324  0.00  0.00    +0.000 NA
ATOM     14  N   UNL     1       8.033   4.313  17.596  0.00  0.00    +0.000 NA
ATOM     15  N   UNL     1       6.873   4.320  18.320  0.00  0.00    +0.000 NA
ATOM     16  C   UNL     1       5.889   4.612  17.482  0.00  0.00    +0.000 A 
ENDBRANCH   5  16
ENDBRANCH   1   9
BRANCH   2  17
ATOM     17  C   UNL     1       1.277   8.809  20.618  0.00  0.00    +0.000 A 
ATOM     18  C   UNL     1       1.216   8.533  21.970  0.00  0.00    +0.000 A 
ATOM     19  C   UNL     1       0.591   9.637  22.587  0.00  0.00    +0.000 A 
ATOM     20  C   UNL     1       0.304  10.534  21.579  0.00  0.00    +0.000 A 
ATOM     21  O   UNL     1       0.732  10.044  20.376  0.00  0.00    +0.000 OA
BRANCH  20  22
ATOM     22  C   UNL     1      -0.360  11.864  21.572  0.00  0.00    +0.000 C 
BRANCH  22  23
ATOM     23  O   UNL     1      -0.438  12.275  22.934  0.00  0.00    +0.000 OA
BRANCH  23  24
ATOM     24  C   UNL     1      -1.545  12.980  23.313  0.00  0.00    +0.000 A 
ATOM     25  C   UNL     1      -2.866  12.526  23.270  0.00  0.00    +0.000 A 
ATOM     26  C   UNL     1      -3.904  13.359  23.700  0.00  0.00    +0.000 A 
ATOM     27  C   UNL     1      -3.617  14.637  24.167  0.00  0.00    +0.000 A 
ATOM     28  F   UNL     1      -4.616  15.428  24.580  0.00  0.00    +0.000 F 
ATOM     29  C   UNL     1      -2.312  15.104  24.208  0.00  0.00    +0.000 A 
ATOM     30  C   UNL     1      -1.276  14.273  23.778  0.00  0.00    +0.000 A 
ENDBRANCH  23  24
ENDBRANCH  22  23
ENDBRANCH  20  22
ENDBRANCH   2  17
TORSDOF 6
ENDMDL
MODEL 5
REMARK VINA RESULT:      -8.4      0.835      1.553
REMARK  Name = 
REMARK  7 active torsions:
REMARK  status: ('A' for Active; 'I' for Inactive)
REMARK    1  A    between atoms: C_1  and  N_2
REMARK    2  A    between atoms: C_6  and  C_7
REMARK    3  A    between atoms: C_11  and  N_12
REMARK    4  A    between atoms: C_13  and  C_15
REMARK    5  A    between atoms: C_18  and  C_19
REMARK    6  A    between atoms: C_19  and  O_20
REMARK    7  A    between atoms: O_20  and  C_21
REMARK                            x       y       z     vdW  Elec       q    Type
REMARK                         _______ _______ _______ _____ _____    ______ ____
ROOT
ATOM      1  N   UNL     1       2.171   6.883  18.871  0.00  0.00    +0.000 N 
ATOM      2  C   UNL     1       1.816   6.915  20.211  0.00  0.00    +0.000 C 
ATOM      3  O   UNL     1       1.898   5.962  20.983  0.00  0.00    +0.000 OA
ATOM      4  H   UNL     1       2.134   7.781  18.400  0.00  0.00    +0.000 HD
ENDROOT
BRANCH   1   9
ATOM      5  C   UNL     1       4.468   4.945  16.680  0.00  0.00    +0.000 A 
ATOM      6  C   UNL     1       3.948   3.652  16.837  0.00  0.00    +0.000 A 
ATOM      7  C   UNL     1       2.809   3.427  17.608  0.00  0.00    +0.000 A 
ATOM      8  C   UNL     1       2.189   4.491  18.260  0.00  0.00    +0.000 A 
ATOM      9  C   UNL     1       2.709   5.783  18.166  0.00  0.00    +0.000 A 
ATOM     10  C   UNL     1       3.834   6.005  17.353  0.00  0.00    +0.000 A 
BRANCH   5  16
ATOM     11  C   UNL     1       7.325   6.186  17.500  0.00  0.00    +0.000 C 
ATOM     12  N   UNL     1       6.899   5.622  16.252  0.00  0.00    +0.000 N 
ATOM     13  N   UNL     1       7.743   5.634  15.206  0.00  0.00    +0.000 NA
ATOM     14  N   UNL     1       7.051   5.138  14.195  0.00  0.00    +0.000 NA
ATOM     15  N   UNL     1       5.781   4.815  14.587  0.00  0.00    +0.000 NA
ATOM     16  C   UNL     1       5.682   5.104  15.875  0.00  0.00    +0.000 A 
ENDBRANCH   5  16
ENDBRANCH   1   9
BRANCH   2  17
ATOM     17  C   UNL     1       1.357   8.214  20.669  0.00  0.00    +0.000 A 
ATOM     18  C   UNL     1       1.192   8.694  21.953  0.00  0.00    +0.000 A 
ATOM     19  C   UNL     1       0.709  10.015  21.839  0.00  0.00    +0.000 A 
ATOM     20  C   UNL     1       0.606  10.275  20.488  0.00  0.00    +0.000 A 
ATOM     21  O   UNL     1       1.014   9.187  19.766  0.00  0.00    +0.000 OA
BRANCH  20  22
ATOM     22  C   UNL     1       0.147  11.463  19.722  0.00  0.00    +0.000 C 
BRANCH  22  23
ATOM     23  O   UNL     1      -0.150  10.997  18.409  0.00  0.00    +0.000 OA
BRANCH  23  24
ATOM     24  C   UNL     1      -1.468  10.915  18.057  0.00  0.00    +0.000 A 
ATOM     25  C   UNL     1      -2.001  10.132  17.030  0.00  0.00    +0.000 A 
ATOM     26  C   UNL     1      -3.378  10.143  16.788  0.00  0.00    +0.000 A 
ATOM     27  C   UNL     1      -4.212  10.934  17.569  0.00  0.00    +0.000 A 
ATOM     28  F   UNL     1      -5.531  10.936  17.333  0.00  0.00    +0.000 F 
ATOM     29  C   UNL     1      -3.697  11.723  18.588  0.00  0.00    +0.000 A 
ATOM     30  C   UNL     1      -2.323  11.713  18.829  0.00  0.00    +0.000 A 
ENDBRANCH  23  24
ENDBRANCH  22  23
ENDBRANCH  20  22
ENDBRANCH   2  17
TORSDOF 6
ENDMDL
MODEL 6
REMARK VINA RESULT:      -8.3      4.084      9.104
REMARK  Name = 
REMARK  7 active torsions:
REMARK  status: ('A' for Active; 'I' for Inactive)
REMARK    1  A    between atoms: C_1  and  N_2
REMARK    2  A    between atoms: C_6  and  C_7
REMARK    3  A    between atoms: C_11  and  N_12
REMARK    4  A    between atoms: C_13  and  C_15
REMARK    5  A    between atoms: C_18  and  C_19
REMARK    6  A    between atoms: C_19  and  O_20
REMARK    7  A    between atoms: O_20  and  C_21
REMARK                            x       y       z     vdW  Elec       q    Type
REMARK                         _______ _______ _______ _____ _____    ______ ____
ROOT
ATOM      1  N   UNL     1       2.334   6.867  19.483  0.00  0.00    +0.000 N 
ATOM      2  C   UNL     1       2.077   5.525  19.723  0.00  0.00    +0.000 C 
ATOM      3  O   UNL     1       1.307   5.099  20.580  0.00  0.00    +0.000 OA
ATOM      4  H   UNL     1       2.922   7.050  18.677  0.00  0.00    +0.000 HD
ENDROOT
BRANCH   1   9
ATOM      5  C   UNL     1       0.587  10.119  19.939  0.00  0.00    +0.000 A 
ATOM      6  C   UNL     1       0.432  10.137  21.333  0.00  0.00    +0.000 A 
ATOM      7  C   UNL     1       0.956   9.119  22.125  0.00  0.00    +0.000 A 
ATOM      8  C   UNL     1       1.618   8.046  21.531  0.00  0.00    +0.000 A 
ATOM      9  C   UNL     1       1.747   7.970  20.144  0.00  0.00    +0.000 A 
ATOM     10  C   UNL     1       1.251   9.024  19.357  0.00  0.00    +0.000 A 
BRANCH   5  16
ATOM     11  C   UNL     1      -2.049  10.119  18.088  0.00  0.00    +0.000 C 
ATOM     12  N   UNL     1      -1.149  11.193  18.395  0.00  0.00    +0.000 N 
ATOM     13  N   UNL     1      -1.335  12.390  17.812  0.00  0.00    +0.000 NA
ATOM     14  N   UNL     1      -0.318  13.133  18.212  0.00  0.00    +0.000 NA
ATOM     15  N   UNL     1       0.509  12.422  19.038  0.00  0.00    +0.000 NA
ATOM     16  C   UNL     1      -0.011  11.211  19.167  0.00  0.00    +0.000 A 
ENDBRANCH   5  16
ENDBRANCH   1   9
BRANCH   2  17
ATOM     17  C   UNL     1       2.783   4.622  18.833  0.00  0.00    +0.000 A 
ATOM     18  C   UNL     1       2.871   3.244  18.854  0.00  0.00    +0.000 A 
ATOM     19  C   UNL     1       3.692   2.867  17.770  0.00  0.00    +0.000 A 
ATOM     20  C   UNL     1       4.064   4.037  17.141  0.00  0.00    +0.000 A 
ATOM     21  O   UNL     1       3.502   5.112  17.773  0.00  0.00    +0.000 OA
BRANCH  20  22
ATOM     22  C   UNL     1       4.927   4.318  15.964  0.00  0.00    +0.000 C 
BRANCH  22  23
ATOM     23  O   UNL     1       6.264   4.061  16.383  0.00  0.00    +0.000 OA
BRANCH  23  24
ATOM     24  C   UNL     1       6.884   5.028  17.124  0.00  0.00    +0.000 A 
ATOM     25  C   UNL     1       7.486   4.850  18.373  0.00  0.00    +0.000 A 
ATOM     26  C   UNL     1       8.093   5.935  19.015  0.00  0.00    +0.000 A 
ATOM     27  C   UNL     1       8.093   7.186  18.408  0.00  0.00    +0.000 A 
ATOM     28  F   UNL     1       8.680   8.219  19.027  0.00  0.00    +0.000 F 
ATOM     29  C   UNL     1       7.494   7.379  17.172  0.00  0.00    +0.000 A 
ATOM     30  C   UNL     1       6.887   6.297  16.532  0.00  0.00    +0.000 A 
ENDBRANCH  23  24
ENDBRANCH  22  23
ENDBRANCH  20  22
ENDBRANCH   2  17
TORSDOF 6
ENDMDL
MODEL 7
REMARK VINA RESULT:      -8.2      2.969      3.634
REMARK  Name = 
REMARK  7 active torsions:
REMARK  status: ('A' for Active; 'I' for Inactive)
REMARK    1  A    between atoms: C_1  and  N_2
REMARK    2  A    between atoms: C_6  and  C_7
REMARK    3  A    between atoms: C_11  and  N_12
REMARK    4  A    between atoms: C_13  and  C_15
REMARK    5  A    between atoms: C_18  and  C_19
REMARK    6  A    between atoms: C_19  and  O_20
REMARK    7  A    between atoms: O_20  and  C_21
REMARK                            x       y       z     vdW  Elec       q    Type
REMARK                         _______ _______ _______ _____ _____    ______ ____
ROOT
ATOM      1  N   UNL     1       2.213   7.143  20.021  0.00  0.00    +0.000 N 
ATOM      2  C   UNL     1       1.874   8.117  19.094  0.00  0.00    +0.000 C 
ATOM      3  O   UNL     1       2.092   8.045  17.886  0.00  0.00    +0.000 OA
ATOM      4  H   UNL     1       1.875   7.316  20.962  0.00  0.00    +0.000 HD
ENDROOT
BRANCH   1   9
ATOM      5  C   UNL     1       4.733   4.715  18.762  0.00  0.00    +0.000 A 
ATOM      6  C   UNL     1       4.225   3.518  19.286  0.00  0.00    +0.000 A 
ATOM      7  C   UNL     1       3.026   3.498  19.994  0.00  0.00    +0.000 A 
ATOM      8  C   UNL     1       2.330   4.685  20.218  0.00  0.00    +0.000 A 
ATOM      9  C   UNL     1       2.832   5.901  19.753  0.00  0.00    +0.000 A 
ATOM     10  C   UNL     1       4.022   5.904  19.005  0.00  0.00    +0.000 A 
BRANCH   5  16
ATOM     11  C   UNL     1       5.331   4.904  15.602  0.00  0.00    +0.000 C 
ATOM     12  N   UNL     1       6.246   4.764  16.697  0.00  0.00    +0.000 N 
ATOM     13  N   UNL     1       7.558   4.623  16.441  0.00  0.00    +0.000 NA
ATOM     14  N   UNL     1       8.124   4.430  17.619  0.00  0.00    +0.000 NA
ATOM     15  N   UNL     1       7.189   4.444  18.616  0.00  0.00    +0.000 NA
ATOM     16  C   UNL     1       6.013   4.665  18.049  0.00  0.00    +0.000 A 
ENDBRANCH   5  16
ENDBRANCH   1   9
BRANCH   2  17
ATOM     17  C   UNL     1       1.182   9.259  19.664  0.00  0.00    +0.000 A 
ATOM     18  C   UNL     1       0.978  10.522  19.146  0.00  0.00    +0.000 A 
ATOM     19  C   UNL     1       0.256  11.252  20.114  0.00  0.00    +0.000 A 
ATOM     20  C   UNL     1       0.053  10.394  21.175  0.00  0.00    +0.000 A 
ATOM     21  O   UNL     1       0.602   9.171  20.903  0.00  0.00    +0.000 OA
BRANCH  20  22
ATOM     22  C   UNL     1      -0.614  10.561  22.492  0.00  0.00    +0.000 C 
BRANCH  22  23
ATOM     23  O   UNL     1      -0.347  11.898  22.905  0.00  0.00    +0.000 OA
BRANCH  23  24
ATOM     24  C   UNL     1      -1.421  12.680  23.226  0.00  0.00    +0.000 A 
ATOM     25  C   UNL     1      -1.396  14.055  23.472  0.00  0.00    +0.000 A 
ATOM     26  C   UNL     1      -2.580  14.730  23.785  0.00  0.00    +0.000 A 
ATOM     27  C   UNL     1      -3.779  14.028  23.851  0.00  0.00    +0.000 A 
ATOM     28  F   UNL     1      -4.910  14.682  24.148  0.00  0.00    +0.000 F 
ATOM     29  C   UNL     1      -3.819  12.662  23.617  0.00  0.00    +0.000 A 
ATOM     30  C   UNL     1      -2.636  11.989  23.306  0.00  0.00    +0.000 A 
ENDBRANCH  23  24
ENDBRANCH  22  23
ENDBRANCH  20  22
ENDBRANCH   2  17
TORSDOF 6
ENDMDL
MODEL 8
REMARK VINA RESULT:      -8.2      4.616      9.677
REMARK  Name = 
REMARK  7 active torsions:
REMARK  status: ('A' for Active; 'I' for Inactive)
REMARK    1  A    between atoms: C_1  and  N_2
REMARK    2  A    between atoms: C_6  and  C_7
REMARK    3  A    between atoms: C_11  and  N_12
REMARK    4  A    between atoms: C_13  and  C_15
REMARK    5  A    between atoms: C_18  and  C_19
REMARK    6  A    between atoms: C_19  and  O_20
REMARK    7  A    between atoms: O_20  and  C_21
REMARK                            x       y       z     vdW  Elec       q    Type
REMARK                         _______ _______ _______ _____ _____    ______ ____
ROOT
ATOM      1  N   UNL     1       0.998   8.926  18.847  0.00  0.00    +0.000 N 
ATOM      2  C   UNL     1       2.034   8.385  18.101  0.00  0.00    +0.000 C 
ATOM      3  O   UNL     1       2.559   8.925  17.130  0.00  0.00    +0.000 OA
ATOM      4  H   UNL     1       0.747   8.394  19.674  0.00  0.00    +0.000 HD
ENDROOT
BRANCH   1   9
ATOM      5  C   UNL     1      -1.668  11.425  18.159  0.00  0.00    +0.000 A 
ATOM      6  C   UNL     1      -0.969  12.620  18.387  0.00  0.00    +0.000 A 
ATOM      7  C   UNL     1       0.387  12.608  18.701  0.00  0.00    +0.000 A 
ATOM      8  C   UNL     1       1.062  11.394  18.824  0.00  0.00    +0.000 A 
ATOM      9  C   UNL     1       0.386  10.185  18.654  0.00  0.00    +0.000 A 
ATOM     10  C   UNL     1      -0.973  10.211  18.296  0.00  0.00    +0.000 A 
BRANCH   5  16
ATOM     11  C   UNL     1      -3.212  10.938  15.375  0.00  0.00    +0.000 C 
ATOM     12  N   UNL     1      -3.740  11.285  16.662  0.00  0.00    +0.000 N 
ATOM     13  N   UNL     1      -5.058  11.516  16.789  0.00  0.00    +0.000 NA
ATOM     14  N   UNL     1      -5.226  11.893  18.044  0.00  0.00    +0.000 NA
ATOM     15  N   UNL     1      -4.032  11.905  18.712  0.00  0.00    +0.000 NA
ATOM     16  C   UNL     1      -3.100  11.514  17.857  0.00  0.00    +0.000 A 
ENDBRANCH   5  16
ENDBRANCH   1   9
BRANCH   2  17
ATOM     17  C   UNL     1       2.502   7.099  18.586  0.00  0.00    +0.000 A 
ATOM     18  C   UNL     1       2.505   6.582  19.867  0.00  0.00    +0.000 A 
ATOM     19  C   UNL     1       3.082   5.297  19.790  0.00  0.00    +0.000 A 
ATOM     20  C   UNL     1       3.401   5.093  18.463  0.00  0.00    +0.000 A 
ATOM     21  O   UNL     1       3.037   6.182  17.718  0.00  0.00    +0.000 OA
BRANCH  20  22
ATOM     22  C   UNL     1       4.042   3.963  17.742  0.00  0.00    +0.000 C 
BRANCH  22  23
ATOM     23  O   UNL     1       5.023   4.544  16.888  0.00  0.00    +0.000 OA
BRANCH  23  24
ATOM     24  C   UNL     1       6.007   5.287  17.478  0.00  0.00    +0.000 A 
ATOM     25  C   UNL     1       6.767   4.914  18.589  0.00  0.00    +0.000 A 
ATOM     26  C   UNL     1       7.750   5.777  19.083  0.00  0.00    +0.000 A 
ATOM     27  C   UNL     1       7.967   7.004  18.466  0.00  0.00    +0.000 A 
ATOM     28  F   UNL     1       8.913   7.824  18.942  0.00  0.00    +0.000 F 
ATOM     29  C   UNL     1       7.215   7.391  17.366  0.00  0.00    +0.000 A 
ATOM     30  C   UNL     1       6.233   6.530  16.874  0.00  0.00    +0.000 A 
ENDBRANCH  23  24
ENDBRANCH  22  23
ENDBRANCH  20  22
ENDBRANCH   2  17
TORSDOF 6
ENDMDL
MODEL 9
REMARK VINA RESULT:      -8.2      2.589      2.986
REMARK  Name = 
REMARK  7 active torsions:
REMARK  status: ('A' for Active; 'I' for Inactive)
REMARK    1  A    between atoms: C_1  and  N_2
REMARK    2  A    between atoms: C_6  and  C_7
REMARK    3  A    between atoms: C_11  and  N_12
REMARK    4  A    between atoms: C_13  and  C_15
REMARK    5  A    between atoms: C_18  and  C_19
REMARK    6  A    between atoms: C_19  and  O_20
REMARK    7  A    between atoms: O_20  and  C_21
REMARK                            x       y       z     vdW  Elec       q    Type
REMARK                         _______ _______ _______ _____ _____    ______ ____
ROOT
ATOM      1  N   UNL     1       2.006   6.537  20.589  0.00  0.00    +0.000 N 
ATOM      2  C   UNL     1       1.850   7.755  19.944  0.00  0.00    +0.000 C 
ATOM      3  O   UNL     1       2.257   8.009  18.813  0.00  0.00    +0.000 OA
ATOM      4  H   UNL     1       1.527   6.463  21.480  0.00  0.00    +0.000 HD
ENDROOT
BRANCH   1   9
ATOM      5  C   UNL     1       4.546   4.410  18.899  0.00  0.00    +0.000 A 
ATOM      6  C   UNL     1       4.001   3.136  19.112  0.00  0.00    +0.000 A 
ATOM      7  C   UNL     1       2.773   2.979  19.751  0.00  0.00    +0.000 A 
ATOM      8  C   UNL     1       2.083   4.097  20.216  0.00  0.00    +0.000 A 
ATOM      9  C   UNL     1       2.620   5.377  20.065  0.00  0.00    +0.000 A 
ATOM     10  C   UNL     1       3.840   5.526  19.383  0.00  0.00    +0.000 A 
BRANCH   5  16
ATOM     11  C   UNL     1       5.292   4.194  15.773  0.00  0.00    +0.000 C 
ATOM     12  N   UNL     1       6.147   4.418  16.902  0.00  0.00    +0.000 N 
ATOM     13  N   UNL     1       7.475   4.500  16.711  0.00  0.00    +0.000 NA
ATOM     14  N   UNL     1       7.994   4.617  17.921  0.00  0.00    +0.000 NA
ATOM     15  N   UNL     1       7.013   4.609  18.873  0.00  0.00    +0.000 NA
ATOM     16  C   UNL     1       5.854   4.497  18.243  0.00  0.00    +0.000 A 
ENDBRANCH   5  16
ENDBRANCH   1   9
BRANCH   2  17
ATOM     17  C   UNL     1       1.113   8.740  20.715  0.00  0.00    +0.000 A 
ATOM     18  C   UNL     1       0.999   8.893  22.083  0.00  0.00    +0.000 A 
ATOM     19  C   UNL     1       0.153  10.000  22.304  0.00  0.00    +0.000 A 
ATOM     20  C   UNL     1      -0.207  10.469  21.057  0.00  0.00    +0.000 A 
ATOM     21  O   UNL     1       0.386   9.715  20.081  0.00  0.00    +0.000 OA
BRANCH  20  22
ATOM     22  C   UNL     1      -1.083  11.584  20.614  0.00  0.00    +0.000 C 
BRANCH  22  23
ATOM     23  O   UNL     1      -1.255  12.427  21.749  0.00  0.00    +0.000 OA
BRANCH  23  24
ATOM     24  C   UNL     1      -2.522  12.561  22.244  0.00  0.00    +0.000 A 
ATOM     25  C   UNL     1      -2.887  12.532  23.592  0.00  0.00    +0.000 A 
ATOM     26  C   UNL     1      -4.229  12.690  23.955  0.00  0.00    +0.000 A 
ATOM     27  C   UNL     1      -5.194  12.874  22.971  0.00  0.00    +0.000 A 
ATOM     28  F   UNL     1      -6.476  13.028  23.326  0.00  0.00    +0.000 F 
ATOM     29  C   UNL     1      -4.847  12.898  21.628  0.00  0.00    +0.000 A 
ATOM     30  C   UNL     1      -3.508  12.739  21.267  0.00  0.00    +0.000 A 
ENDBRANCH  23  24
ENDBRANCH  22  23
ENDBRANCH  20  22
ENDBRANCH   2  17
TORSDOF 6
ENDMDL
