MODEL 1
REMARK VINA RESULT:      -9.9      0.000      0.000
REMARK  Name = 
REMARK  4 active torsions:
REMARK  status: ('A' for Active; 'I' for Inactive)
REMARK    1  A    between atoms: C_7  and  S_8
REMARK    2  A    between atoms: S_8  and  N_11
REMARK    3  A    between atoms: C_15  and  C_16
REMARK    4  A    between atoms: C_16  and  C_17
REMARK                            x       y       z     vdW  Elec       q    Type
REMARK                         _______ _______ _______ _____ _____    ______ ____
ROOT
ATOM      1  S   UNL     1       3.193   2.845  17.894  0.00  0.00    +0.000 S 
ATOM      2  O   UNL     1       1.996   3.173  17.145  0.00  0.00    +0.000 OA
ATOM      3  O   UNL     1       3.558   1.471  18.169  0.00  0.00    +0.000 OA
ENDROOT
BRANCH   1  10
ATOM      4  O   UNL     1       8.755   5.996  13.028  0.00  0.00    +0.000 OA
ATOM      5  C   UNL     1       7.878   5.387  13.629  0.00  0.00    +0.000 A 
ATOM      6  C   UNL     1       6.981   4.446  12.916  0.00  0.00    +0.000 A 
ATOM      7  C   UNL     1       5.983   3.814  13.549  0.00  0.00    +0.000 A 
ATOM      8  C   UNL     1       5.766   4.033  14.980  0.00  0.00    +0.000 A 
ATOM      9  C   UNL     1       4.706   3.425  15.665  0.00  0.00    +0.000 A 
ATOM     10  C   UNL     1       4.563   3.629  17.044  0.00  0.00    +0.000 A 
ATOM     11  C   UNL     1       5.499   4.397  17.750  0.00  0.00    +0.000 A 
ATOM     12  C   UNL     1       6.540   5.030  17.060  0.00  0.00    +0.000 A 
ATOM     13  C   UNL     1       6.659   4.861  15.679  0.00  0.00    +0.000 A 
ATOM     14  N   UNL     1       7.676   5.523  14.976  0.00  0.00    +0.000 N 
ATOM     15  H   UNL     1       8.301   6.162  15.449  0.00  0.00    +0.000 HD
ENDBRANCH   1  10
BRANCH   1  16
ATOM     16  N   UNL     1       3.138   3.684  19.383  0.00  0.00    +0.000 NA
ATOM     17  C   UNL     1       2.905   2.843  20.584  0.00  0.00    +0.000 C 
ATOM     18  C   UNL     1       1.455   3.081  20.957  0.00  0.00    +0.000 C 
ATOM     19  C   UNL     1       1.231   4.542  20.628  0.00  0.00    +0.000 C 
ATOM     20  C   UNL     1       2.168   4.850  19.449  0.00  0.00    +0.000 C 
BRANCH  20  21
ATOM     21  C   UNL     1       2.968   6.154  19.683  0.00  0.00    +0.000 C 
BRANCH  21  22
ATOM     22  C   UNL     1       2.238   7.452  19.388  0.00  0.00    +0.000 A 
ATOM     23  C   UNL     1       1.563   8.138  20.413  0.00  0.00    +0.000 A 
ATOM     24  C   UNL     1       0.907   9.347  20.160  0.00  0.00    +0.000 A 
ATOM     25  C   UNL     1       0.924   9.892  18.880  0.00  0.00    +0.000 A 
ATOM     26  C   UNL     1       1.596   9.230  17.856  0.00  0.00    +0.000 A 
ATOM     27  C   UNL     1       2.251   8.017  18.106  0.00  0.00    +0.000 A 
ENDBRANCH  21  22
ENDBRANCH  20  21
ENDBRANCH   1  16
TORSDOF 4
ENDMDL
MODEL 2
REMARK VINA RESULT:      -8.9      3.092      6.890
REMARK  Name = 
REMARK  4 active torsions:
REMARK  status: ('A' for Active; 'I' for Inactive)
REMARK    1  A    between atoms: C_7  and  S_8
REMARK    2  A    between atoms: S_8  and  N_11
REMARK    3  A    between atoms: C_15  and  C_16
REMARK    4  A    between atoms: C_16  and  C_17
REMARK                            x       y       z     vdW  Elec       q    Type
REMARK                         _______ _______ _______ _____ _____    ______ ____
ROOT
ATOM      1  S   UNL     1       2.827   5.311  19.845  0.00  0.00    +0.000 S 
ATOM      2  O   UNL     1       4.234   5.417  20.178  0.00  0.00    +0.000 OA
ATOM      3  O   UNL     1       1.869   4.767  20.785  0.00  0.00    +0.000 OA
ENDROOT
BRANCH   1  10
ATOM      4  O   UNL     1       0.158  12.838  18.975  0.00  0.00    +0.000 OA
ATOM      5  C   UNL     1       0.445  11.682  19.260  0.00  0.00    +0.000 A 
ATOM      6  C   UNL     1       0.098  11.116  20.586  0.00  0.00    +0.000 A 
ATOM      7  C   UNL     1       0.454   9.871  20.931  0.00  0.00    +0.000 A 
ATOM      8  C   UNL     1       1.191   9.029  19.987  0.00  0.00    +0.000 A 
ATOM      9  C   UNL     1       1.619   7.740  20.328  0.00  0.00    +0.000 A 
ATOM     10  C   UNL     1       2.284   6.954  19.378  0.00  0.00    +0.000 A 
ATOM     11  C   UNL     1       2.479   7.429  18.074  0.00  0.00    +0.000 A 
ATOM     12  C   UNL     1       2.080   8.730  17.742  0.00  0.00    +0.000 A 
ATOM     13  C   UNL     1       1.456   9.529  18.701  0.00  0.00    +0.000 A 
ATOM     14  N   UNL     1       1.088  10.845  18.386  0.00  0.00    +0.000 N 
ATOM     15  H   UNL     1       1.310  11.243  17.484  0.00  0.00    +0.000 HD
ENDBRANCH   1  10
BRANCH   1  16
ATOM     16  N   UNL     1       2.688   4.433  18.384  0.00  0.00    +0.000 NA
ATOM     17  C   UNL     1       1.343   3.874  18.097  0.00  0.00    +0.000 C 
ATOM     18  C   UNL     1       1.457   2.394  18.403  0.00  0.00    +0.000 C 
ATOM     19  C   UNL     1       2.865   2.042  17.969  0.00  0.00    +0.000 C 
ATOM     20  C   UNL     1       3.697   3.317  18.185  0.00  0.00    +0.000 C 
BRANCH  20  21
ATOM     21  C   UNL     1       4.569   3.643  16.949  0.00  0.00    +0.000 C 
BRANCH  21  22
ATOM     22  C   UNL     1       5.567   4.774  17.111  0.00  0.00    +0.000 A 
ATOM     23  C   UNL     1       5.327   6.025  16.517  0.00  0.00    +0.000 A 
ATOM     24  C   UNL     1       6.227   7.084  16.679  0.00  0.00    +0.000 A 
ATOM     25  C   UNL     1       7.375   6.910  17.445  0.00  0.00    +0.000 A 
ATOM     26  C   UNL     1       7.621   5.679  18.049  0.00  0.00    +0.000 A 
ATOM     27  C   UNL     1       6.724   4.616  17.885  0.00  0.00    +0.000 A 
ENDBRANCH  21  22
ENDBRANCH  20  21
ENDBRANCH   1  16
TORSDOF 4
ENDMDL
MODEL 3
REMARK VINA RESULT:      -8.8      2.999      7.025
REMARK  Name = 
REMARK  4 active torsions:
REMARK  status: ('A' for Active; 'I' for Inactive)
REMARK    1  A    between atoms: C_7  and  S_8
REMARK    2  A    between atoms: S_8  and  N_11
REMARK    3  A    between atoms: C_15  and  C_16
REMARK    4  A    between atoms: C_16  and  C_17
REMARK                            x       y       z     vdW  Elec       q    Type
REMARK                         _______ _______ _______ _____ _____    ______ ____
ROOT
ATOM      1  S   UNL     1       2.951   5.339  20.010  0.00  0.00    +0.000 S 
ATOM      2  O   UNL     1       4.399   5.370  19.940  0.00  0.00    +0.000 OA
ATOM      3  O   UNL     1       2.263   5.020  21.244  0.00  0.00    +0.000 OA
ENDROOT
BRANCH   1  10
ATOM      4  O   UNL     1       0.090  12.727  18.678  0.00  0.00    +0.000 OA
ATOM      5  C   UNL     1       0.403  11.596  19.030  0.00  0.00    +0.000 A 
ATOM      6  C   UNL     1       0.032  11.087  20.372  0.00  0.00    +0.000 A 
ATOM      7  C   UNL     1       0.413   9.873  20.791  0.00  0.00    +0.000 A 
ATOM      8  C   UNL     1       1.203   9.008  19.914  0.00  0.00    +0.000 A 
ATOM      9  C   UNL     1       1.658   7.752  20.333  0.00  0.00    +0.000 A 
ATOM     10  C   UNL     1       2.374   6.940  19.444  0.00  0.00    +0.000 A 
ATOM     11  C   UNL     1       2.596   7.354  18.124  0.00  0.00    +0.000 A 
ATOM     12  C   UNL     1       2.168   8.623  17.713  0.00  0.00    +0.000 A 
ATOM     13  C   UNL     1       1.492   9.450  18.612  0.00  0.00    +0.000 A 
ATOM     14  N   UNL     1       1.095  10.737  18.220  0.00  0.00    +0.000 N 
ATOM     15  H   UNL     1       1.333  11.096  17.305  0.00  0.00    +0.000 HD
ENDBRANCH   1  10
BRANCH   1  16
ATOM     16  N   UNL     1       2.379   4.277  18.798  0.00  0.00    +0.000 NA
ATOM     17  C   UNL     1       1.201   3.455  19.170  0.00  0.00    +0.000 C 
ATOM     18  C   UNL     1       1.755   2.069  19.435  0.00  0.00    +0.000 C 
ATOM     19  C   UNL     1       2.869   1.924  18.420  0.00  0.00    +0.000 C 
ATOM     20  C   UNL     1       3.414   3.344  18.196  0.00  0.00    +0.000 C 
BRANCH  20  21
ATOM     21  C   UNL     1       3.564   3.665  16.690  0.00  0.00    +0.000 C 
BRANCH  21  22
ATOM     22  C   UNL     1       4.932   4.141  16.238  0.00  0.00    +0.000 A 
ATOM     23  C   UNL     1       5.963   4.336  17.174  0.00  0.00    +0.000 A 
ATOM     24  C   UNL     1       7.235   4.752  16.769  0.00  0.00    +0.000 A 
ATOM     25  C   UNL     1       7.499   4.969  15.419  0.00  0.00    +0.000 A 
ATOM     26  C   UNL     1       6.490   4.770  14.479  0.00  0.00    +0.000 A 
ATOM     27  C   UNL     1       5.214   4.358  14.884  0.00  0.00    +0.000 A 
ENDBRANCH  21  22
ENDBRANCH  20  21
ENDBRANCH   1  16
TORSDOF 4
ENDMDL
MODEL 4
REMARK VINA RESULT:      -8.6      1.072      1.402
REMARK  Name = 
REMARK  4 active torsions:
REMARK  status: ('A' for Active; 'I' for Inactive)
REMARK    1  A    between atoms: C_7  and  S_8
REMARK    2  A    between atoms: S_8  and  N_11
REMARK    3  A    between atoms: C_15  and  C_16
REMARK    4  A    between atoms: C_16  and  C_17
REMARK                            x       y       z     vdW  Elec       q    Type
REMARK                         _______ _______ _______ _____ _____    ______ ____
ROOT
ATOM      1  S   UNL     1       4.130   2.703  19.289  0.00  0.00    +0.000 S 
ATOM      2  O   UNL     1       3.598   1.520  18.640  0.00  0.00    +0.000 OA
ATOM      3  O   UNL     1       4.847   2.615  20.544  0.00  0.00    +0.000 OA
ENDROOT
BRANCH   1  10
ATOM      4  O   UNL     1       8.090   5.884  13.065  0.00  0.00    +0.000 OA
ATOM      5  C   UNL     1       7.431   5.262  13.890  0.00  0.00    +0.000 A 
ATOM      6  C   UNL     1       6.449   4.236  13.462  0.00  0.00    +0.000 A 
ATOM      7  C   UNL     1       5.684   3.586  14.349  0.00  0.00    +0.000 A 
ATOM      8  C   UNL     1       5.814   3.870  15.779  0.00  0.00    +0.000 A 
ATOM      9  C   UNL     1       5.001   3.243  16.731  0.00  0.00    +0.000 A 
ATOM     10  C   UNL     1       5.190   3.513  18.093  0.00  0.00    +0.000 A 
ATOM     11  C   UNL     1       6.220   4.367  18.511  0.00  0.00    +0.000 A 
ATOM     12  C   UNL     1       7.013   5.018  17.558  0.00  0.00    +0.000 A 
ATOM     13  C   UNL     1       6.796   4.782  16.199  0.00  0.00    +0.000 A 
ATOM     14  N   UNL     1       7.561   5.459  15.238  0.00  0.00    +0.000 N 
ATOM     15  H   UNL     1       8.240   6.155  15.514  0.00  0.00    +0.000 HD
ENDBRANCH   1  10
BRANCH   1  16
ATOM     16  N   UNL     1       2.853   3.823  19.489  0.00  0.00    +0.000 NA
ATOM     17  C   UNL     1       1.490   3.293  19.237  0.00  0.00    +0.000 C 
ATOM     18  C   UNL     1       1.100   3.836  17.877  0.00  0.00    +0.000 C 
ATOM     19  C   UNL     1       1.721   5.216  17.846  0.00  0.00    +0.000 C 
ATOM     20  C   UNL     1       2.987   5.122  18.714  0.00  0.00    +0.000 C 
BRANCH  20  21
ATOM     21  C   UNL     1       3.079   6.297  19.716  0.00  0.00    +0.000 C 
BRANCH  21  22
ATOM     22  C   UNL     1       2.357   7.572  19.324  0.00  0.00    +0.000 A 
ATOM     23  C   UNL     1       1.483   8.201  20.228  0.00  0.00    +0.000 A 
ATOM     24  C   UNL     1       0.829   9.391  19.889  0.00  0.00    +0.000 A 
ATOM     25  C   UNL     1       1.047   9.973  18.643  0.00  0.00    +0.000 A 
ATOM     26  C   UNL     1       1.918   9.366  17.741  0.00  0.00    +0.000 A 
ATOM     27  C   UNL     1       2.570   8.174  18.077  0.00  0.00    +0.000 A 
ENDBRANCH  21  22
ENDBRANCH  20  21
ENDBRANCH   1  16
TORSDOF 4
ENDMDL
MODEL 5
REMARK VINA RESULT:      -8.5      2.167      2.955
REMARK  Name = 
REMARK  4 active torsions:
REMARK  status: ('A' for Active; 'I' for Inactive)
REMARK    1  A    between atoms: C_7  and  S_8
REMARK    2  A    between atoms: S_8  and  N_11
REMARK    3  A    between atoms: C_15  and  C_16
REMARK    4  A    between atoms: C_16  and  C_17
REMARK                            x       y       z     vdW  Elec       q    Type
REMARK                         _______ _______ _______ _____ _____    ______ ____
ROOT
ATOM      1  S   UNL     1       4.007   2.440  19.261  0.00  0.00    +0.000 S 
ATOM      2  O   UNL     1       3.346   1.742  18.175  0.00  0.00    +0.000 OA
ATOM      3  O   UNL     1       4.981   1.776  20.101  0.00  0.00    +0.000 OA
ENDROOT
BRANCH   1  10
ATOM      4  O   UNL     1       8.385   8.742  16.882  0.00  0.00    +0.000 OA
ATOM      5  C   UNL     1       7.798   7.810  17.418  0.00  0.00    +0.000 A 
ATOM      6  C   UNL     1       8.252   7.275  18.725  0.00  0.00    +0.000 A 
ATOM      7  C   UNL     1       7.653   6.222  19.297  0.00  0.00    +0.000 A 
ATOM      8  C   UNL     1       6.514   5.578  18.640  0.00  0.00    +0.000 A 
ATOM      9  C   UNL     1       5.893   4.448  19.186  0.00  0.00    +0.000 A 
ATOM     10  C   UNL     1       4.779   3.891  18.544  0.00  0.00    +0.000 A 
ATOM     11  C   UNL     1       4.253   4.485  17.389  0.00  0.00    +0.000 A 
ATOM     12  C   UNL     1       4.893   5.595  16.826  0.00  0.00    +0.000 A 
ATOM     13  C   UNL     1       6.029   6.126  17.441  0.00  0.00    +0.000 A 
ATOM     14  N   UNL     1       6.698   7.214  16.862  0.00  0.00    +0.000 N 
ATOM     15  H   UNL     1       6.396   7.595  15.976  0.00  0.00    +0.000 HD
ENDBRANCH   1  10
BRANCH   1  16
ATOM     16  N   UNL     1       2.805   3.109  20.276  0.00  0.00    +0.000 NA
ATOM     17  C   UNL     1       1.766   2.161  20.752  0.00  0.00    +0.000 C 
ATOM     18  C   UNL     1       0.539   2.469  19.917  0.00  0.00    +0.000 C 
ATOM     19  C   UNL     1       0.595   3.970  19.731  0.00  0.00    +0.000 C 
ATOM     20  C   UNL     1       2.089   4.334  19.734  0.00  0.00    +0.000 C 
BRANCH  20  21
ATOM     21  C   UNL     1       2.380   5.537  20.663  0.00  0.00    +0.000 C 
BRANCH  21  22
ATOM     22  C   UNL     1       2.039   6.909  20.112  0.00  0.00    +0.000 A 
ATOM     23  C   UNL     1       2.401   7.258  18.799  0.00  0.00    +0.000 A 
ATOM     24  C   UNL     1       2.072   8.510  18.270  0.00  0.00    +0.000 A 
ATOM     25  C   UNL     1       1.366   9.428  19.043  0.00  0.00    +0.000 A 
ATOM     26  C   UNL     1       0.991   9.092  20.342  0.00  0.00    +0.000 A 
ATOM     27  C   UNL     1       1.324   7.840  20.875  0.00  0.00    +0.000 A 
ENDBRANCH  21  22
ENDBRANCH  20  21
ENDBRANCH   1  16
TORSDOF 4
ENDMDL
MODEL 6
REMARK VINA RESULT:      -8.5      1.128      1.656
REMARK  Name = 
REMARK  4 active torsions:
REMARK  status: ('A' for Active; 'I' for Inactive)
REMARK    1  A    between atoms: C_7  and  S_8
REMARK    2  A    between atoms: S_8  and  N_11
REMARK    3  A    between atoms: C_15  and  C_16
REMARK    4  A    between atoms: C_16  and  C_17
REMARK                            x       y       z     vdW  Elec       q    Type
REMARK                         _______ _______ _______ _____ _____    ______ ____
ROOT
ATOM      1  S   UNL     1       4.461   3.361  19.048  0.00  0.00    +0.000 S 
ATOM      2  O   UNL     1       3.721   2.244  18.495  0.00  0.00    +0.000 OA
ATOM      3  O   UNL     1       5.274   3.213  20.236  0.00  0.00    +0.000 OA
ENDROOT
BRANCH   1  10
ATOM      4  O   UNL     1       8.253   5.721  12.370  0.00  0.00    +0.000 OA
ATOM      5  C   UNL     1       7.603   5.218  13.279  0.00  0.00    +0.000 A 
ATOM      6  C   UNL     1       6.529   4.237  12.994  0.00  0.00    +0.000 A 
ATOM      7  C   UNL     1       5.774   3.720  13.973  0.00  0.00    +0.000 A 
ATOM      8  C   UNL     1       6.009   4.109  15.365  0.00  0.00    +0.000 A 
ATOM      9  C   UNL     1       5.213   3.624  16.409  0.00  0.00    +0.000 A 
ATOM     10  C   UNL     1       5.502   3.990  17.731  0.00  0.00    +0.000 A 
ATOM     11  C   UNL     1       6.611   4.797  18.018  0.00  0.00    +0.000 A 
ATOM     12  C   UNL     1       7.389   5.307  16.972  0.00  0.00    +0.000 A 
ATOM     13  C   UNL     1       7.076   4.977  15.652  0.00  0.00    +0.000 A 
ATOM     14  N   UNL     1       7.827   5.515  14.597  0.00  0.00    +0.000 N 
ATOM     15  H   UNL     1       8.568   6.179  14.775  0.00  0.00    +0.000 HD
ENDBRANCH   1  10
BRANCH   1  16
ATOM     16  N   UNL     1       3.365   4.647  19.316  0.00  0.00    +0.000 NA
ATOM     17  C   UNL     1       2.147   4.300  20.090  0.00  0.00    +0.000 C 
ATOM     18  C   UNL     1       1.037   4.218  19.062  0.00  0.00    +0.000 C 
ATOM     19  C   UNL     1       1.385   5.304  18.065  0.00  0.00    +0.000 C 
ATOM     20  C   UNL     1       2.918   5.403  18.077  0.00  0.00    +0.000 C 
BRANCH  20  21
ATOM     21  C   UNL     1       3.393   6.872  18.188  0.00  0.00    +0.000 C 
BRANCH  21  22
ATOM     22  C   UNL     1       2.381   7.865  18.730  0.00  0.00    +0.000 A 
ATOM     23  C   UNL     1       1.751   8.780  17.868  0.00  0.00    +0.000 A 
ATOM     24  C   UNL     1       0.799   9.684  18.350  0.00  0.00    +0.000 A 
ATOM     25  C   UNL     1       0.456   9.681  19.699  0.00  0.00    +0.000 A 
ATOM     26  C   UNL     1       1.065   8.773  20.563  0.00  0.00    +0.000 A 
ATOM     27  C   UNL     1       2.021   7.869  20.083  0.00  0.00    +0.000 A 
ENDBRANCH  21  22
ENDBRANCH  20  21
ENDBRANCH   1  16
TORSDOF 4
ENDMDL
MODEL 7
REMARK VINA RESULT:      -8.3      3.378      6.576
REMARK  Name = 
REMARK  4 active torsions:
REMARK  status: ('A' for Active; 'I' for Inactive)
REMARK    1  A    between atoms: C_7  and  S_8
REMARK    2  A    between atoms: S_8  and  N_11
REMARK    3  A    between atoms: C_15  and  C_16
REMARK    4  A    between atoms: C_16  and  C_17
REMARK                            x       y       z     vdW  Elec       q    Type
REMARK                         _______ _______ _______ _____ _____    ______ ____
ROOT
ATOM      1  S   UNL     1       2.016   4.788  20.139  0.00  0.00    +0.000 S 
ATOM      2  O   UNL     1       3.219   4.583  20.921  0.00  0.00    +0.000 OA
ATOM      3  O   UNL     1       0.783   4.098  20.457  0.00  0.00    +0.000 OA
ENDROOT
BRANCH   1  10
ATOM      4  O   UNL     1       0.879  12.654  18.966  0.00  0.00    +0.000 OA
ATOM      5  C   UNL     1       1.185  11.468  19.004  0.00  0.00    +0.000 A 
ATOM      6  C   UNL     1       1.946  10.842  17.896  0.00  0.00    +0.000 A 
ATOM      7  C   UNL     1       2.240   9.535  17.898  0.00  0.00    +0.000 A 
ATOM      8  C   UNL     1       1.821   8.690  19.019  0.00  0.00    +0.000 A 
ATOM      9  C   UNL     1       2.071   7.313  19.035  0.00  0.00    +0.000 A 
ATOM     10  C   UNL     1       1.690   6.551  20.148  0.00  0.00    +0.000 A 
ATOM     11  C   UNL     1       1.106   7.166  21.264  0.00  0.00    +0.000 A 
ATOM     12  C   UNL     1       0.828   8.537  21.235  0.00  0.00    +0.000 A 
ATOM     13  C   UNL     1       1.169   9.289  20.109  0.00  0.00    +0.000 A 
ATOM     14  N   UNL     1       0.858  10.656  20.057  0.00  0.00    +0.000 N 
ATOM     15  H   UNL     1       0.347  11.100  20.808  0.00  0.00    +0.000 HD
ENDBRANCH   1  10
BRANCH   1  16
ATOM     16  N   UNL     1       2.385   4.476  18.499  0.00  0.00    +0.000 NA
ATOM     17  C   UNL     1       1.533   3.461  17.831  0.00  0.00    +0.000 C 
ATOM     18  C   UNL     1       2.392   2.214  17.753  0.00  0.00    +0.000 C 
ATOM     19  C   UNL     1       3.787   2.751  17.509  0.00  0.00    +0.000 C 
ATOM     20  C   UNL     1       3.832   4.122  18.203  0.00  0.00    +0.000 C 
BRANCH  20  21
ATOM     21  C   UNL     1       4.436   5.207  17.280  0.00  0.00    +0.000 C 
BRANCH  21  22
ATOM     22  C   UNL     1       5.732   5.841  17.748  0.00  0.00    +0.000 A 
ATOM     23  C   UNL     1       6.429   5.307  18.847  0.00  0.00    +0.000 A 
ATOM     24  C   UNL     1       7.638   5.866  19.274  0.00  0.00    +0.000 A 
ATOM     25  C   UNL     1       8.173   6.962  18.602  0.00  0.00    +0.000 A 
ATOM     26  C   UNL     1       7.499   7.495  17.506  0.00  0.00    +0.000 A 
ATOM     27  C   UNL     1       6.287   6.939  17.079  0.00  0.00    +0.000 A 
ENDBRANCH  21  22
ENDBRANCH  20  21
ENDBRANCH   1  16
TORSDOF 4
ENDMDL
MODEL 8
REMARK VINA RESULT:      -8.3      3.409      7.378
REMARK  Name = 
REMARK  4 active torsions:
REMARK  status: ('A' for Active; 'I' for Inactive)
REMARK    1  A    between atoms: C_7  and  S_8
REMARK    2  A    between atoms: S_8  and  N_11
REMARK    3  A    between atoms: C_15  and  C_16
REMARK    4  A    between atoms: C_16  and  C_17
REMARK                            x       y       z     vdW  Elec       q    Type
REMARK                         _______ _______ _______ _____ _____    ______ ____
ROOT
ATOM      1  S   UNL     1       1.994   4.924  20.108  0.00  0.00    +0.000 S 
ATOM      2  O   UNL     1       3.193   4.734  20.901  0.00  0.00    +0.000 OA
ATOM      3  O   UNL     1       0.763   4.229  20.423  0.00  0.00    +0.000 OA
ENDROOT
BRANCH   1  10
ATOM      4  O   UNL     1       0.126  12.652  21.260  0.00  0.00    +0.000 OA
ATOM      5  C   UNL     1       0.274  11.437  21.217  0.00  0.00    +0.000 A 
ATOM      6  C   UNL     1      -0.273  10.565  22.284  0.00  0.00    +0.000 A 
ATOM      7  C   UNL     1      -0.072   9.240  22.278  0.00  0.00    +0.000 A 
ATOM      8  C   UNL     1       0.692   8.618  21.195  0.00  0.00    +0.000 A 
ATOM      9  C   UNL     1       0.960   7.244  21.178  0.00  0.00    +0.000 A 
ATOM     10  C   UNL     1       1.657   6.685  20.099  0.00  0.00    +0.000 A 
ATOM     11  C   UNL     1       2.044   7.483  19.013  0.00  0.00    +0.000 A 
ATOM     12  C   UNL     1       1.803   8.861  19.044  0.00  0.00    +0.000 A 
ATOM     13  C   UNL     1       1.146   9.425  20.139  0.00  0.00    +0.000 A 
ATOM     14  N   UNL     1       0.936  10.811  20.195  0.00  0.00    +0.000 N 
ATOM     15  H   UNL     1       1.296  11.418  19.471  0.00  0.00    +0.000 HD
ENDBRANCH   1  10
BRANCH   1  16
ATOM     16  N   UNL     1       2.378   4.601  18.473  0.00  0.00    +0.000 NA
ATOM     17  C   UNL     1       1.520   3.594  17.800  0.00  0.00    +0.000 C 
ATOM     18  C   UNL     1       2.363   2.336  17.736  0.00  0.00    +0.000 C 
ATOM     19  C   UNL     1       3.768   2.853  17.507  0.00  0.00    +0.000 C 
ATOM     20  C   UNL     1       3.823   4.226  18.196  0.00  0.00    +0.000 C 
BRANCH  20  21
ATOM     21  C   UNL     1       4.451   5.300  17.276  0.00  0.00    +0.000 C 
BRANCH  21  22
ATOM     22  C   UNL     1       5.778   5.880  17.729  0.00  0.00    +0.000 A 
ATOM     23  C   UNL     1       6.288   7.045  17.130  0.00  0.00    +0.000 A 
ATOM     24  C   UNL     1       7.497   7.604  17.555  0.00  0.00    +0.000 A 
ATOM     25  C   UNL     1       8.211   7.011  18.593  0.00  0.00    +0.000 A 
ATOM     26  C   UNL     1       7.714   5.862  19.203  0.00  0.00    +0.000 A 
ATOM     27  C   UNL     1       6.505   5.298  18.776  0.00  0.00    +0.000 A 
ENDBRANCH  21  22
ENDBRANCH  20  21
ENDBRANCH   1  16
TORSDOF 4
ENDMDL
MODEL 9
REMARK VINA RESULT:      -8.2      1.191      1.809
REMARK  Name = 
REMARK  4 active torsions:
REMARK  status: ('A' for Active; 'I' for Inactive)
REMARK    1  A    between atoms: C_7  and  S_8
REMARK    2  A    between atoms: S_8  and  N_11
REMARK    3  A    between atoms: C_15  and  C_16
REMARK    4  A    between atoms: C_16  and  C_17
REMARK                            x       y       z     vdW  Elec       q    Type
REMARK                         _______ _______ _______ _____ _____    ______ ____
ROOT
ATOM      1  S   UNL     1       3.790   2.812  19.447  0.00  0.00    +0.000 S 
ATOM      2  O   UNL     1       3.384   1.552  18.855  0.00  0.00    +0.000 OA
ATOM      3  O   UNL     1       4.382   2.869  20.767  0.00  0.00    +0.000 OA
ENDROOT
BRANCH   1  10
ATOM      4  O   UNL     1       8.106   5.812  13.371  0.00  0.00    +0.000 OA
ATOM      5  C   UNL     1       7.397   5.216  14.173  0.00  0.00    +0.000 A 
ATOM      6  C   UNL     1       6.414   4.205  13.714  0.00  0.00    +0.000 A 
ATOM      7  C   UNL     1       5.594   3.584  14.573  0.00  0.00    +0.000 A 
ATOM      8  C   UNL     1       5.663   3.888  16.004  0.00  0.00    +0.000 A 
ATOM      9  C   UNL     1       4.792   3.293  16.925  0.00  0.00    +0.000 A 
ATOM     10  C   UNL     1       4.923   3.581  18.290  0.00  0.00    +0.000 A 
ATOM     11  C   UNL     1       5.950   4.420  18.744  0.00  0.00    +0.000 A 
ATOM     12  C   UNL     1       6.800   5.039  17.820  0.00  0.00    +0.000 A 
ATOM     13  C   UNL     1       6.643   4.786  16.456  0.00  0.00    +0.000 A 
ATOM     14  N   UNL     1       7.466   5.432  15.523  0.00  0.00    +0.000 N 
ATOM     15  H   UNL     1       8.147   6.118  15.820  0.00  0.00    +0.000 HD
ENDBRANCH   1  10
BRANCH   1  16
ATOM     16  N   UNL     1       2.446   3.869  19.425  0.00  0.00    +0.000 NA
ATOM     17  C   UNL     1       1.230   3.347  18.754  0.00  0.00    +0.000 C 
ATOM     18  C   UNL     1       1.185   4.053  17.413  0.00  0.00    +0.000 C 
ATOM     19  C   UNL     1       1.715   5.439  17.716  0.00  0.00    +0.000 C 
ATOM     20  C   UNL     1       2.708   5.260  18.875  0.00  0.00    +0.000 C 
BRANCH  20  21
ATOM     21  C   UNL     1       2.466   6.297  19.998  0.00  0.00    +0.000 C 
BRANCH  21  22
ATOM     22  C   UNL     1       2.053   7.687  19.550  0.00  0.00    +0.000 A 
ATOM     23  C   UNL     1       2.442   8.173  18.290  0.00  0.00    +0.000 A 
ATOM     24  C   UNL     1       2.048   9.443  17.854  0.00  0.00    +0.000 A 
ATOM     25  C   UNL     1       1.251  10.241  18.670  0.00  0.00    +0.000 A 
ATOM     26  C   UNL     1       0.850   9.769  19.917  0.00  0.00    +0.000 A 
ATOM     27  C   UNL     1       1.247   8.500  20.357  0.00  0.00    +0.000 A 
ENDBRANCH  21  22
ENDBRANCH  20  21
ENDBRANCH   1  16
TORSDOF 4
ENDMDL
