MODEL 1
REMARK VINA RESULT:      -8.5      0.000      0.000
REMARK  Name = 
REMARK  7 active torsions:
REMARK  status: ('A' for Active; 'I' for Inactive)
REMARK    1  A    between atoms: C_1  and  C_2
REMARK    2  A    between atoms: C_2  and  C_3
REMARK    3  A    between atoms: C_2  and  C_10
REMARK    4  A    between atoms: C_3  and  C_4
REMARK    5  A    between atoms: N_8  and  C_9
REMARK    6  A    between atoms: C_14  and  N_15
REMARK    7  A    between atoms: C_16  and  C_18
REMARK                            x       y       z     vdW  Elec       q    Type
REMARK                         _______ _______ _______ _____ _____    ______ ____
ROOT
ATOM      1  C   UNL     1       4.727   5.158  17.175  0.00  0.00    +0.000 A 
ATOM      2  C   UNL     1       3.954   3.993  17.041  0.00  0.00    +0.000 A 
ATOM      3  C   UNL     1       2.616   3.985  17.415  0.00  0.00    +0.000 A 
ATOM      4  C   UNL     1       2.036   5.127  17.962  0.00  0.00    +0.000 A 
ATOM      5  C   UNL     1       2.789   6.284  18.178  0.00  0.00    +0.000 A 
ATOM      6  C   UNL     1       4.129   6.300  17.755  0.00  0.00    +0.000 A 
ENDROOT
BRANCH   5   7
ATOM      7  N   UNL     1       2.252   7.438  18.815  0.00  0.00    +0.000 N 
ATOM      8  C   UNL     1       1.678   7.433  20.080  0.00  0.00    +0.000 C 
ATOM      9  O   UNL     1       1.597   6.465  20.831  0.00  0.00    +0.000 OA
ATOM     10  H   UNL     1       2.451   8.329  18.383  0.00  0.00    +0.000 HD
BRANCH   8  11
ATOM     11  C   UNL     1       1.162   8.722  20.621  0.00  0.00    +0.000 A 
ATOM     12  C   UNL     1       0.997   9.874  19.842  0.00  0.00    +0.000 A 
ATOM     13  C   UNL     1       0.390  11.010  20.397  0.00  0.00    +0.000 A 
ATOM     14  C   UNL     1      -0.050  10.998  21.722  0.00  0.00    +0.000 A 
ATOM     15  C   UNL     1       0.123   9.856  22.491  0.00  0.00    +0.000 A 
ATOM     16  F   UNL     1      -0.309   9.836  23.758  0.00  0.00    +0.000 F 
ATOM     17  C   UNL     1       0.723   8.724  21.956  0.00  0.00    +0.000 A 
ENDBRANCH   8  11
ENDBRANCH   5   7
BRANCH   1  19
ATOM     18  C   UNL     1       7.181   4.938  17.837  0.00  0.00    +0.000 C 
ATOM     19  C   UNL     1       6.177   5.114  16.692  0.00  0.00    +0.000 C 
BRANCH  19  20
ATOM     20  C   UNL     1       6.355   4.062  15.577  0.00  0.00    +0.000 C 
BRANCH  20  21
ATOM     21  C   UNL     1       7.009   4.615  14.351  0.00  0.00    +0.000 A 
ATOM     22  N   UNL     1       7.959   5.530  14.331  0.00  0.00    +0.000 NA
ATOM     23  N   UNL     1       8.289   5.783  13.019  0.00  0.00    +0.000 NA
ATOM     24  C   UNL     1       7.541   5.012  12.267  0.00  0.00    +0.000 A 
ATOM     25  N   UNL     1       6.720   4.265  13.056  0.00  0.00    +0.000 N 
ATOM     26  C   UNL     1       5.755   3.306  12.595  0.00  0.00    +0.000 C 
ENDBRANCH  20  21
ENDBRANCH  19  20
ENDBRANCH   1  19
TORSDOF 5
ENDMDL
MODEL 2
REMARK VINA RESULT:      -8.3      1.088      1.450
REMARK  Name = 
REMARK  7 active torsions:
REMARK  status: ('A' for Active; 'I' for Inactive)
REMARK    1  A    between atoms: C_1  and  C_2
REMARK    2  A    between atoms: C_2  and  C_3
REMARK    3  A    between atoms: C_2  and  C_10
REMARK    4  A    between atoms: C_3  and  C_4
REMARK    5  A    between atoms: N_8  and  C_9
REMARK    6  A    between atoms: C_14  and  N_15
REMARK    7  A    between atoms: C_16  and  C_18
REMARK                            x       y       z     vdW  Elec       q    Type
REMARK                         _______ _______ _______ _____ _____    ______ ____
ROOT
ATOM      1  C   UNL     1       4.704   4.889  17.064  0.00  0.00    +0.000 A 
ATOM      2  C   UNL     1       3.970   3.692  17.028  0.00  0.00    +0.000 A 
ATOM      3  C   UNL     1       2.651   3.657  17.464  0.00  0.00    +0.000 A 
ATOM      4  C   UNL     1       2.053   4.806  17.976  0.00  0.00    +0.000 A 
ATOM      5  C   UNL     1       2.771   6.000  18.094  0.00  0.00    +0.000 A 
ATOM      6  C   UNL     1       4.089   6.040  17.609  0.00  0.00    +0.000 A 
ENDROOT
BRANCH   5   7
ATOM      7  N   UNL     1       2.220   7.167  18.693  0.00  0.00    +0.000 N 
ATOM      8  C   UNL     1       1.746   7.224  19.998  0.00  0.00    +0.000 C 
ATOM      9  O   UNL     1       1.778   6.308  20.817  0.00  0.00    +0.000 OA
ATOM     10  H   UNL     1       2.335   8.034  18.188  0.00  0.00    +0.000 HD
BRANCH   8  11
ATOM     11  C   UNL     1       1.201   8.520  20.490  0.00  0.00    +0.000 A 
ATOM     12  C   UNL     1       0.906   8.771  21.836  0.00  0.00    +0.000 A 
ATOM     13  C   UNL     1       0.511  10.057  22.235  0.00  0.00    +0.000 A 
ATOM     14  C   UNL     1       0.412  11.086  21.297  0.00  0.00    +0.000 A 
ATOM     15  C   UNL     1       0.698  10.829  19.964  0.00  0.00    +0.000 A 
ATOM     16  F   UNL     1       0.616  11.817  19.063  0.00  0.00    +0.000 F 
ATOM     17  C   UNL     1       1.088   9.561  19.553  0.00  0.00    +0.000 A 
ENDBRANCH   8  11
ENDBRANCH   5   7
BRANCH   1  19
ATOM     18  C   UNL     1       7.181   4.591  17.599  0.00  0.00    +0.000 C 
ATOM     19  C   UNL     1       6.131   4.870  16.516  0.00  0.00    +0.000 C 
BRANCH  19  20
ATOM     20  C   UNL     1       6.248   3.910  15.314  0.00  0.00    +0.000 C 
BRANCH  20  21
ATOM     21  C   UNL     1       6.922   4.532  14.133  0.00  0.00    +0.000 A 
ATOM     22  N   UNL     1       7.817   5.499  14.179  0.00  0.00    +0.000 NA
ATOM     23  N   UNL     1       8.189   5.807  12.890  0.00  0.00    +0.000 NA
ATOM     24  C   UNL     1       7.521   5.015  12.086  0.00  0.00    +0.000 A 
ATOM     25  N   UNL     1       6.711   4.201  12.818  0.00  0.00    +0.000 N 
ATOM     26  C   UNL     1       5.825   3.202  12.290  0.00  0.00    +0.000 C 
ENDBRANCH  20  21
ENDBRANCH  19  20
ENDBRANCH   1  19
TORSDOF 5
ENDMDL
MODEL 3
REMARK VINA RESULT:      -8.3      1.704      2.039
REMARK  Name = 
REMARK  7 active torsions:
REMARK  status: ('A' for Active; 'I' for Inactive)
REMARK    1  A    between atoms: C_1  and  C_2
REMARK    2  A    between atoms: C_2  and  C_3
REMARK    3  A    between atoms: C_2  and  C_10
REMARK    4  A    between atoms: C_3  and  C_4
REMARK    5  A    between atoms: N_8  and  C_9
REMARK    6  A    between atoms: C_14  and  N_15
REMARK    7  A    between atoms: C_16  and  C_18
REMARK                            x       y       z     vdW  Elec       q    Type
REMARK                         _______ _______ _______ _____ _____    ______ ____
ROOT
ATOM      1  C   UNL     1       4.551   5.068  17.337  0.00  0.00    +0.000 A 
ATOM      2  C   UNL     1       3.822   3.868  17.357  0.00  0.00    +0.000 A 
ATOM      3  C   UNL     1       2.528   3.834  17.861  0.00  0.00    +0.000 A 
ATOM      4  C   UNL     1       1.951   4.988  18.386  0.00  0.00    +0.000 A 
ATOM      5  C   UNL     1       2.669   6.186  18.450  0.00  0.00    +0.000 A 
ATOM      6  C   UNL     1       3.960   6.224  17.897  0.00  0.00    +0.000 A 
ENDROOT
BRANCH   5   7
ATOM      7  N   UNL     1       2.144   7.359  19.059  0.00  0.00    +0.000 N 
ATOM      8  C   UNL     1       1.944   8.562  18.391  0.00  0.00    +0.000 C 
ATOM      9  O   UNL     1       2.143   8.763  17.196  0.00  0.00    +0.000 OA
ATOM     10  H   UNL     1       1.749   7.254  19.983  0.00  0.00    +0.000 HD
BRANCH   8  11
ATOM     11  C   UNL     1       1.382   9.706  19.162  0.00  0.00    +0.000 A 
ATOM     12  C   UNL     1       0.819   9.575  20.437  0.00  0.00    +0.000 A 
ATOM     13  C   UNL     1       0.423  10.720  21.145  0.00  0.00    +0.000 A 
ATOM     14  C   UNL     1       0.589  11.988  20.585  0.00  0.00    +0.000 A 
ATOM     15  C   UNL     1       1.140  12.110  19.317  0.00  0.00    +0.000 A 
ATOM     16  F   UNL     1       1.311  13.325  18.781  0.00  0.00    +0.000 F 
ATOM     17  C   UNL     1       1.535  10.987  18.603  0.00  0.00    +0.000 A 
ENDBRANCH   8  11
ENDBRANCH   5   7
BRANCH   1  19
ATOM     18  C   UNL     1       7.055   4.801  17.750  0.00  0.00    +0.000 C 
ATOM     19  C   UNL     1       5.948   5.046  16.717  0.00  0.00    +0.000 C 
BRANCH  19  20
ATOM     20  C   UNL     1       6.011   4.059  15.533  0.00  0.00    +0.000 C 
BRANCH  20  21
ATOM     21  C   UNL     1       6.805   4.582  14.379  0.00  0.00    +0.000 A 
ATOM     22  N   UNL     1       7.763   5.485  14.449  0.00  0.00    +0.000 NA
ATOM     23  N   UNL     1       8.241   5.710  13.179  0.00  0.00    +0.000 NA
ATOM     24  C   UNL     1       7.572   4.933  12.361  0.00  0.00    +0.000 A 
ATOM     25  N   UNL     1       6.659   4.209  13.065  0.00  0.00    +0.000 N 
ATOM     26  C   UNL     1       5.740   3.252  12.516  0.00  0.00    +0.000 C 
ENDBRANCH  20  21
ENDBRANCH  19  20
ENDBRANCH   1  19
TORSDOF 5
ENDMDL
MODEL 4
REMARK VINA RESULT:      -8.2      1.970      3.070
REMARK  Name = 
REMARK  7 active torsions:
REMARK  status: ('A' for Active; 'I' for Inactive)
REMARK    1  A    between atoms: C_1  and  C_2
REMARK    2  A    between atoms: C_2  and  C_3
REMARK    3  A    between atoms: C_2  and  C_10
REMARK    4  A    between atoms: C_3  and  C_4
REMARK    5  A    between atoms: N_8  and  C_9
REMARK    6  A    between atoms: C_14  and  N_15
REMARK    7  A    between atoms: C_16  and  C_18
REMARK                            x       y       z     vdW  Elec       q    Type
REMARK                         _______ _______ _______ _____ _____    ______ ____
ROOT
ATOM      1  C   UNL     1       4.645   4.295  16.608  0.00  0.00    +0.000 A 
ATOM      2  C   UNL     1       3.989   3.081  16.870  0.00  0.00    +0.000 A 
ATOM      3  C   UNL     1       2.781   3.063  17.556  0.00  0.00    +0.000 A 
ATOM      4  C   UNL     1       2.223   4.251  18.022  0.00  0.00    +0.000 A 
ATOM      5  C   UNL     1       2.879   5.472  17.843  0.00  0.00    +0.000 A 
ATOM      6  C   UNL     1       4.077   5.489  17.110  0.00  0.00    +0.000 A 
ENDROOT
BRANCH   5   7
ATOM      7  N   UNL     1       2.383   6.692  18.383  0.00  0.00    +0.000 N 
ATOM      8  C   UNL     1       2.106   6.893  19.729  0.00  0.00    +0.000 C 
ATOM      9  O   UNL     1       2.291   6.081  20.632  0.00  0.00    +0.000 OA
ATOM     10  H   UNL     1       2.391   7.495  17.770  0.00  0.00    +0.000 HD
BRANCH   8  11
ATOM     11  C   UNL     1       1.595   8.228  20.148  0.00  0.00    +0.000 A 
ATOM     12  C   UNL     1       1.317   9.265  19.248  0.00  0.00    +0.000 A 
ATOM     13  C   UNL     1       0.723  10.449  19.710  0.00  0.00    +0.000 A 
ATOM     14  C   UNL     1       0.406  10.597  21.062  0.00  0.00    +0.000 A 
ATOM     15  C   UNL     1       0.690   9.570  21.950  0.00  0.00    +0.000 A 
ATOM     16  F   UNL     1       0.377   9.704  23.245  0.00  0.00    +0.000 F 
ATOM     17  C   UNL     1       1.280   8.393  21.508  0.00  0.00    +0.000 A 
ENDBRANCH   8  11
ENDBRANCH   5   7
BRANCH   1  19
ATOM     18  C   UNL     1       5.708   3.958  14.313  0.00  0.00    +0.000 C 
ATOM     19  C   UNL     1       5.942   4.248  15.800  0.00  0.00    +0.000 C 
BRANCH  19  20
ATOM     20  C   UNL     1       6.783   5.522  16.032  0.00  0.00    +0.000 C 
BRANCH  20  21
ATOM     21  C   UNL     1       7.353   5.601  17.412  0.00  0.00    +0.000 A 
ATOM     22  N   UNL     1       7.606   4.575  18.201  0.00  0.00    +0.000 NA
ATOM     23  N   UNL     1       8.111   5.055  19.388  0.00  0.00    +0.000 NA
ATOM     24  C   UNL     1       8.163   6.362  19.296  0.00  0.00    +0.000 A 
ATOM     25  N   UNL     1       7.696   6.752  18.078  0.00  0.00    +0.000 N 
ATOM     26  C   UNL     1       7.595   8.106  17.610  0.00  0.00    +0.000 C 
ENDBRANCH  20  21
ENDBRANCH  19  20
ENDBRANCH   1  19
TORSDOF 5
ENDMDL
MODEL 5
REMARK VINA RESULT:      -8.1      4.875      7.235
REMARK  Name = 
REMARK  7 active torsions:
REMARK  status: ('A' for Active; 'I' for Inactive)
REMARK    1  A    between atoms: C_1  and  C_2
REMARK    2  A    between atoms: C_2  and  C_3
REMARK    3  A    between atoms: C_2  and  C_10
REMARK    4  A    between atoms: C_3  and  C_4
REMARK    5  A    between atoms: N_8  and  C_9
REMARK    6  A    between atoms: C_14  and  N_15
REMARK    7  A    between atoms: C_16  and  C_18
REMARK                            x       y       z     vdW  Elec       q    Type
REMARK                         _______ _______ _______ _____ _____    ______ ____
ROOT
ATOM      1  C   UNL     1       4.477   5.257  17.122  0.00  0.00    +0.000 A 
ATOM      2  C   UNL     1       5.105   4.357  16.247  0.00  0.00    +0.000 A 
ATOM      3  C   UNL     1       6.376   4.621  15.752  0.00  0.00    +0.000 A 
ATOM      4  C   UNL     1       7.028   5.804  16.093  0.00  0.00    +0.000 A 
ATOM      5  C   UNL     1       6.408   6.758  16.905  0.00  0.00    +0.000 A 
ATOM      6  C   UNL     1       5.142   6.464  17.438  0.00  0.00    +0.000 A 
ENDROOT
BRANCH   5   7
ATOM      7  N   UNL     1       7.007   8.014  17.201  0.00  0.00    +0.000 N 
ATOM      8  C   UNL     1       7.988   8.202  18.167  0.00  0.00    +0.000 C 
ATOM      9  O   UNL     1       8.501   7.322  18.853  0.00  0.00    +0.000 OA
ATOM     10  H   UNL     1       6.817   8.771  16.558  0.00  0.00    +0.000 HD
BRANCH   8  11
ATOM     11  C   UNL     1       8.526   9.577  18.362  0.00  0.00    +0.000 A 
ATOM     12  C   UNL     1       9.601   9.872  19.210  0.00  0.00    +0.000 A 
ATOM     13  C   UNL     1      10.126  11.172  19.245  0.00  0.00    +0.000 A 
ATOM     14  C   UNL     1       9.581  12.174  18.439  0.00  0.00    +0.000 A 
ATOM     15  C   UNL     1       8.511  11.877  17.607  0.00  0.00    +0.000 A 
ATOM     16  F   UNL     1       7.994  12.832  16.823  0.00  0.00    +0.000 F 
ATOM     17  C   UNL     1       7.980  10.595  17.562  0.00  0.00    +0.000 A 
ENDBRANCH   8  11
ENDBRANCH   5   7
BRANCH   1  19
ATOM     18  C   UNL     1       2.583   3.547  17.116  0.00  0.00    +0.000 C 
ATOM     19  C   UNL     1       3.102   4.878  17.673  0.00  0.00    +0.000 C 
BRANCH  19  20
ATOM     20  C   UNL     1       3.095   4.920  19.216  0.00  0.00    +0.000 C 
BRANCH  20  21
ATOM     21  C   UNL     1       3.665   3.684  19.835  0.00  0.00    +0.000 A 
ATOM     22  N   UNL     1       4.885   3.219  19.646  0.00  0.00    +0.000 NA
ATOM     23  N   UNL     1       5.025   2.061  20.375  0.00  0.00    +0.000 NA
ATOM     24  C   UNL     1       3.893   1.847  21.001  0.00  0.00    +0.000 A 
ATOM     25  N   UNL     1       3.008   2.835  20.692  0.00  0.00    +0.000 N 
ATOM     26  C   UNL     1       1.663   2.943  21.182  0.00  0.00    +0.000 C 
ENDBRANCH  20  21
ENDBRANCH  19  20
ENDBRANCH   1  19
TORSDOF 5
ENDMDL
MODEL 6
REMARK VINA RESULT:      -8.1      4.471      9.245
REMARK  Name = 
REMARK  7 active torsions:
REMARK  status: ('A' for Active; 'I' for Inactive)
REMARK    1  A    between atoms: C_1  and  C_2
REMARK    2  A    between atoms: C_2  and  C_3
REMARK    3  A    between atoms: C_2  and  C_10
REMARK    4  A    between atoms: C_3  and  C_4
REMARK    5  A    between atoms: N_8  and  C_9
REMARK    6  A    between atoms: C_14  and  N_15
REMARK    7  A    between atoms: C_16  and  C_18
REMARK                            x       y       z     vdW  Elec       q    Type
REMARK                         _______ _______ _______ _____ _____    ______ ____
ROOT
ATOM      1  C   UNL     1       4.478   5.615  18.344  0.00  0.00    +0.000 A 
ATOM      2  C   UNL     1       5.658   5.645  19.105  0.00  0.00    +0.000 A 
ATOM      3  C   UNL     1       6.852   5.167  18.579  0.00  0.00    +0.000 A 
ATOM      4  C   UNL     1       6.883   4.620  17.299  0.00  0.00    +0.000 A 
ATOM      5  C   UNL     1       5.717   4.507  16.536  0.00  0.00    +0.000 A 
ATOM      6  C   UNL     1       4.522   5.034  17.057  0.00  0.00    +0.000 A 
ENDROOT
BRANCH   5   7
ATOM      7  N   UNL     1       5.695   3.874  15.262  0.00  0.00    +0.000 N 
ATOM      8  C   UNL     1       6.315   4.383  14.128  0.00  0.00    +0.000 C 
ATOM      9  O   UNL     1       6.994   5.405  14.076  0.00  0.00    +0.000 OA
ATOM     10  H   UNL     1       5.346   2.926  15.232  0.00  0.00    +0.000 HD
BRANCH   8  11
ATOM     11  C   UNL     1       6.209   3.605  12.862  0.00  0.00    +0.000 A 
ATOM     12  C   UNL     1       7.297   2.959  12.261  0.00  0.00    +0.000 A 
ATOM     13  C   UNL     1       7.090   2.145  11.137  0.00  0.00    +0.000 A 
ATOM     14  C   UNL     1       5.806   1.977  10.616  0.00  0.00    +0.000 A 
ATOM     15  C   UNL     1       4.734   2.626  11.211  0.00  0.00    +0.000 A 
ATOM     16  F   UNL     1       3.499   2.457  10.721  0.00  0.00    +0.000 F 
ATOM     17  C   UNL     1       4.922   3.435  12.323  0.00  0.00    +0.000 A 
ENDBRANCH   8  11
ENDBRANCH   5   7
BRANCH   1  19
ATOM     18  C   UNL     1       2.871   7.596  18.408  0.00  0.00    +0.000 C 
ATOM     19  C   UNL     1       3.212   6.208  18.964  0.00  0.00    +0.000 C 
BRANCH  19  20
ATOM     20  C   UNL     1       2.032   5.219  18.860  0.00  0.00    +0.000 C 
BRANCH  20  21
ATOM     21  C   UNL     1       1.946   4.288  20.027  0.00  0.00    +0.000 A 
ATOM     22  N   UNL     1       2.386   4.538  21.245  0.00  0.00    +0.000 NA
ATOM     23  N   UNL     1       2.136   3.436  22.031  0.00  0.00    +0.000 NA
ATOM     24  C   UNL     1       1.541   2.541  21.279  0.00  0.00    +0.000 A 
ATOM     25  N   UNL     1       1.403   3.027  20.014  0.00  0.00    +0.000 N 
ATOM     26  C   UNL     1       0.802   2.336  18.909  0.00  0.00    +0.000 C 
ENDBRANCH  20  21
ENDBRANCH  19  20
ENDBRANCH   1  19
TORSDOF 5
ENDMDL
MODEL 7
REMARK VINA RESULT:      -8.1      5.581      7.580
REMARK  Name = 
REMARK  7 active torsions:
REMARK  status: ('A' for Active; 'I' for Inactive)
REMARK    1  A    between atoms: C_1  and  C_2
REMARK    2  A    between atoms: C_2  and  C_3
REMARK    3  A    between atoms: C_2  and  C_10
REMARK    4  A    between atoms: C_3  and  C_4
REMARK    5  A    between atoms: N_8  and  C_9
REMARK    6  A    between atoms: C_14  and  N_15
REMARK    7  A    between atoms: C_16  and  C_18
REMARK                            x       y       z     vdW  Elec       q    Type
REMARK                         _______ _______ _______ _____ _____    ______ ____
ROOT
ATOM      1  C   UNL     1       6.149   5.653  17.125  0.00  0.00    +0.000 A 
ATOM      2  C   UNL     1       6.779   4.888  18.122  0.00  0.00    +0.000 A 
ATOM      3  C   UNL     1       7.745   5.455  18.944  0.00  0.00    +0.000 A 
ATOM      4  C   UNL     1       8.126   6.782  18.763  0.00  0.00    +0.000 A 
ATOM      5  C   UNL     1       7.576   7.556  17.737  0.00  0.00    +0.000 A 
ATOM      6  C   UNL     1       6.566   6.991  16.940  0.00  0.00    +0.000 A 
ENDROOT
BRANCH   5   7
ATOM      7  N   UNL     1       8.005   8.885  17.468  0.00  0.00    +0.000 N 
ATOM      8  C   UNL     1       8.710   9.674  18.368  0.00  0.00    +0.000 C 
ATOM      9  O   UNL     1       9.095   9.327  19.482  0.00  0.00    +0.000 OA
ATOM     10  H   UNL     1       7.929   9.202  16.511  0.00  0.00    +0.000 HD
BRANCH   8  11
ATOM     11  C   UNL     1       9.097  11.049  17.943  0.00  0.00    +0.000 A 
ATOM     12  C   UNL     1       8.171  12.075  17.718  0.00  0.00    +0.000 A 
ATOM     13  C   UNL     1       8.624  13.373  17.439  0.00  0.00    +0.000 A 
ATOM     14  C   UNL     1       9.992  13.646  17.386  0.00  0.00    +0.000 A 
ATOM     15  C   UNL     1      10.904  12.623  17.603  0.00  0.00    +0.000 A 
ATOM     16  F   UNL     1      12.217  12.883  17.564  0.00  0.00    +0.000 F 
ATOM     17  C   UNL     1      10.471  11.333  17.878  0.00  0.00    +0.000 A 
ENDBRANCH   8  11
ENDBRANCH   5   7
BRANCH   1  19
ATOM     18  C   UNL     1       5.345   5.018  14.789  0.00  0.00    +0.000 C 
ATOM     19  C   UNL     1       5.055   4.983  16.294  0.00  0.00    +0.000 C 
BRANCH  19  20
ATOM     20  C   UNL     1       4.764   3.557  16.811  0.00  0.00    +0.000 C 
BRANCH  20  21
ATOM     21  C   UNL     1       3.425   3.436  17.465  0.00  0.00    +0.000 A 
ATOM     22  N   UNL     1       2.260   3.601  16.870  0.00  0.00    +0.000 NA
ATOM     23  N   UNL     1       1.267   3.419  17.806  0.00  0.00    +0.000 NA
ATOM     24  C   UNL     1       1.846   3.139  18.949  0.00  0.00    +0.000 A 
ATOM     25  N   UNL     1       3.198   3.142  18.786  0.00  0.00    +0.000 N 
ATOM     26  C   UNL     1       4.168   2.882  19.813  0.00  0.00    +0.000 C 
ENDBRANCH  20  21
ENDBRANCH  19  20
ENDBRANCH   1  19
TORSDOF 5
ENDMDL
MODEL 8
REMARK VINA RESULT:      -8.1      1.250      1.391
REMARK  Name = 
REMARK  7 active torsions:
REMARK  status: ('A' for Active; 'I' for Inactive)
REMARK    1  A    between atoms: C_1  and  C_2
REMARK    2  A    between atoms: C_2  and  C_3
REMARK    3  A    between atoms: C_2  and  C_10
REMARK    4  A    between atoms: C_3  and  C_4
REMARK    5  A    between atoms: N_8  and  C_9
REMARK    6  A    between atoms: C_14  and  N_15
REMARK    7  A    between atoms: C_16  and  C_18
REMARK                            x       y       z     vdW  Elec       q    Type
REMARK                         _______ _______ _______ _____ _____    ______ ____
ROOT
ATOM      1  C   UNL     1       4.230   4.969  17.472  0.00  0.00    +0.000 A 
ATOM      2  C   UNL     1       4.577   3.781  18.138  0.00  0.00    +0.000 A 
ATOM      3  C   UNL     1       4.091   3.516  19.412  0.00  0.00    +0.000 A 
ATOM      4  C   UNL     1       3.280   4.445  20.058  0.00  0.00    +0.000 A 
ATOM      5  C   UNL     1       2.969   5.670  19.460  0.00  0.00    +0.000 A 
ATOM      6  C   UNL     1       3.426   5.911  18.153  0.00  0.00    +0.000 A 
ENDROOT
BRANCH   5   7
ATOM      7  N   UNL     1       2.218   6.677  20.126  0.00  0.00    +0.000 N 
ATOM      8  C   UNL     1       1.960   7.936  19.595  0.00  0.00    +0.000 C 
ATOM      9  O   UNL     1       2.295   8.331  18.482  0.00  0.00    +0.000 OA
ATOM     10  H   UNL     1       1.715   6.395  20.955  0.00  0.00    +0.000 HD
BRANCH   8  11
ATOM     11  C   UNL     1       1.152   8.887  20.409  0.00  0.00    +0.000 A 
ATOM     12  C   UNL     1       0.330   9.874  19.852  0.00  0.00    +0.000 A 
ATOM     13  C   UNL     1      -0.491  10.650  20.684  0.00  0.00    +0.000 A 
ATOM     14  C   UNL     1      -0.492  10.442  22.064  0.00  0.00    +0.000 A 
ATOM     15  C   UNL     1       0.330   9.467  22.611  0.00  0.00    +0.000 A 
ATOM     16  F   UNL     1       0.323   9.257  23.934  0.00  0.00    +0.000 F 
ATOM     17  C   UNL     1       1.150   8.693  21.801  0.00  0.00    +0.000 A 
ENDBRANCH   8  11
ENDBRANCH   5   7
BRANCH   1  19
ATOM     18  C   UNL     1       5.072   6.639  15.736  0.00  0.00    +0.000 C 
ATOM     19  C   UNL     1       4.754   5.172  16.050  0.00  0.00    +0.000 C 
BRANCH  19  20
ATOM     20  C   UNL     1       5.943   4.231  15.761  0.00  0.00    +0.000 C 
BRANCH  20  21
ATOM     21  C   UNL     1       6.784   4.689  14.613  0.00  0.00    +0.000 A 
ATOM     22  N   UNL     1       7.791   5.536  14.685  0.00  0.00    +0.000 NA
ATOM     23  N   UNL     1       8.301   5.713  13.419  0.00  0.00    +0.000 NA
ATOM     24  C   UNL     1       7.600   4.964  12.602  0.00  0.00    +0.000 A 
ATOM     25  N   UNL     1       6.635   4.306  13.302  0.00  0.00    +0.000 N 
ATOM     26  C   UNL     1       5.670   3.396  12.752  0.00  0.00    +0.000 C 
ENDBRANCH  20  21
ENDBRANCH  19  20
ENDBRANCH   1  19
TORSDOF 5
ENDMDL
MODEL 9
REMARK VINA RESULT:      -8.1      4.569      8.900
REMARK  Name = 
REMARK  7 active torsions:
REMARK  status: ('A' for Active; 'I' for Inactive)
REMARK    1  A    between atoms: C_1  and  C_2
REMARK    2  A    between atoms: C_2  and  C_3
REMARK    3  A    between atoms: C_2  and  C_10
REMARK    4  A    between atoms: C_3  and  C_4
REMARK    5  A    between atoms: N_8  and  C_9
REMARK    6  A    between atoms: C_14  and  N_15
REMARK    7  A    between atoms: C_16  and  C_18
REMARK                            x       y       z     vdW  Elec       q    Type
REMARK                         _______ _______ _______ _____ _____    ______ ____
ROOT
ATOM      1  C   UNL     1       5.094   5.633  18.409  0.00  0.00    +0.000 A 
ATOM      2  C   UNL     1       6.343   5.620  19.051  0.00  0.00    +0.000 A 
ATOM      3  C   UNL     1       7.460   5.091  18.416  0.00  0.00    +0.000 A 
ATOM      4  C   UNL     1       7.342   4.534  17.144  0.00  0.00    +0.000 A 
ATOM      5  C   UNL     1       6.104   4.462  16.501  0.00  0.00    +0.000 A 
ATOM      6  C   UNL     1       4.988   5.040  17.130  0.00  0.00    +0.000 A 
ENDROOT
BRANCH   5   7
ATOM      7  N   UNL     1       5.931   3.821  15.243  0.00  0.00    +0.000 N 
ATOM      8  C   UNL     1       6.408   4.326  14.039  0.00  0.00    +0.000 C 
ATOM      9  O   UNL     1       7.071   5.350  13.900  0.00  0.00    +0.000 OA
ATOM     10  H   UNL     1       5.586   2.872  15.261  0.00  0.00    +0.000 HD
BRANCH   8  11
ATOM     11  C   UNL     1       6.155   3.539  12.800  0.00  0.00    +0.000 A 
ATOM     12  C   UNL     1       7.123   2.736  12.185  0.00  0.00    +0.000 A 
ATOM     13  C   UNL     1       6.769   1.932  11.091  0.00  0.00    +0.000 A 
ATOM     14  C   UNL     1       5.457   1.929  10.614  0.00  0.00    +0.000 A 
ATOM     15  C   UNL     1       4.504   2.733  11.222  0.00  0.00    +0.000 A 
ATOM     16  F   UNL     1       3.242   2.724  10.774  0.00  0.00    +0.000 F 
ATOM     17  C   UNL     1       4.839   3.535  12.304  0.00  0.00    +0.000 A 
ENDBRANCH   8  11
ENDBRANCH   5   7
BRANCH   1  19
ATOM     18  C   UNL     1       2.964   7.023  18.201  0.00  0.00    +0.000 C 
ATOM     19  C   UNL     1       3.919   6.280  19.143  0.00  0.00    +0.000 C 
BRANCH  19  20
ATOM     20  C   UNL     1       3.193   5.253  20.037  0.00  0.00    +0.000 C 
BRANCH  20  21
ATOM     21  C   UNL     1       2.644   4.095  19.267  0.00  0.00    +0.000 A 
ATOM     22  N   UNL     1       1.559   4.113  18.517  0.00  0.00    +0.000 NA
ATOM     23  N   UNL     1       1.378   2.856  17.986  0.00  0.00    +0.000 NA
ATOM     24  C   UNL     1       2.360   2.100  18.415  0.00  0.00    +0.000 A 
ATOM     25  N   UNL     1       3.177   2.831  19.224  0.00  0.00    +0.000 N 
ATOM     26  C   UNL     1       4.357   2.347  19.884  0.00  0.00    +0.000 C 
ENDBRANCH  20  21
ENDBRANCH  19  20
ENDBRANCH   1  19
TORSDOF 5
ENDMDL
