MODEL 1
REMARK VINA RESULT:      -8.2      0.000      0.000
REMARK  Name = 
REMARK  5 active torsions:
REMARK  status: ('A' for Active; 'I' for Inactive)
REMARK    1  A    between atoms: C_2  and  C_17
REMARK    2  A    between atoms: N_3  and  C_4
REMARK    3  A    between atoms: C_7  and  C_8
REMARK    4  A    between atoms: C_8  and  N_9
REMARK    5  A    between atoms: C_20  and  C_21
REMARK                            x       y       z     vdW  Elec       q    Type
REMARK                         _______ _______ _______ _____ _____    ______ ____
ROOT
ATOM      1  O   UNL     1       1.551  10.016  21.937  0.00  0.00    +0.000 OA
ATOM      2  C   UNL     1       0.739  10.384  21.090  0.00  0.00    +0.000 C 
ATOM      3  N   UNL     1       0.681   9.852  19.805  0.00  0.00    +0.000 N 
ATOM      4  H   UNL     1       0.123  10.355  19.125  0.00  0.00    +0.000 HD
ENDROOT
BRANCH   3   5
ATOM      5  C   UNL     1       1.491   8.772  19.355  0.00  0.00    +0.000 A 
ATOM      6  C   UNL     1       1.715   7.630  20.134  0.00  0.00    +0.000 A 
ATOM      7  C   UNL     1       2.565   6.608  19.711  0.00  0.00    +0.000 A 
ATOM      8  C   UNL     1       3.204   6.680  18.472  0.00  0.00    +0.000 A 
ATOM      9  C   UNL     1       2.945   7.792  17.657  0.00  0.00    +0.000 A 
ATOM     10  C   UNL     1       2.092   8.827  18.091  0.00  0.00    +0.000 A 
BRANCH   8  11
ATOM     11  C   UNL     1       4.112   5.554  18.037  0.00  0.00    +0.000 C 
BRANCH  11  12
ATOM     12  N   UNL     1       3.507   4.248  18.219  0.00  0.00    +0.000 N 
ATOM     13  C   UNL     1       2.364   3.797  17.462  0.00  0.00    +0.000 C 
ATOM     14  C   UNL     1       2.000   2.484  18.127  0.00  0.00    +0.000 C 
ATOM     15  C   UNL     1       3.336   1.955  18.633  0.00  0.00    +0.000 C 
ATOM     16  C   UNL     1       4.116   3.216  18.913  0.00  0.00    +0.000 C 
ATOM     17  O   UNL     1       5.134   3.285  19.582  0.00  0.00    +0.000 OA
ENDBRANCH  11  12
ENDBRANCH   8  11
ENDBRANCH   3   5
BRANCH   2  18
ATOM     18  C   UNL     1      -0.180  11.455  21.422  0.00  0.00    +0.000 A 
ATOM     19  C   UNL     1       0.083  12.812  21.344  0.00  0.00    +0.000 A 
ATOM     20  C   UNL     1      -1.052  13.482  21.823  0.00  0.00    +0.000 A 
ATOM     21  C   UNL     1      -1.967  12.510  22.171  0.00  0.00    +0.000 A 
ATOM     22  O   UNL     1      -1.451  11.259  21.908  0.00  0.00    +0.000 OA
BRANCH  21  23
ATOM     23  C   UNL     1      -3.309  12.606  22.739  0.00  0.00    +0.000 A 
ATOM     24  C   UNL     1      -4.406  13.020  21.972  0.00  0.00    +0.000 A 
ATOM     25  C   UNL     1      -5.664  13.180  22.563  0.00  0.00    +0.000 A 
ATOM     26  C   UNL     1      -5.830  12.918  23.919  0.00  0.00    +0.000 A 
ATOM     27  F   UNL     1      -7.032  13.088  24.484  0.00  0.00    +0.000 F 
ATOM     28  C   UNL     1      -4.764  12.490  24.697  0.00  0.00    +0.000 A 
ATOM     29  C   UNL     1      -3.508  12.335  24.108  0.00  0.00    +0.000 A 
ENDBRANCH  21  23
ENDBRANCH   2  18
TORSDOF 5
ENDMDL
MODEL 2
REMARK VINA RESULT:      -8.2      7.877     11.335
REMARK  Name = 
REMARK  5 active torsions:
REMARK  status: ('A' for Active; 'I' for Inactive)
REMARK    1  A    between atoms: C_2  and  C_17
REMARK    2  A    between atoms: N_3  and  C_4
REMARK    3  A    between atoms: C_7  and  C_8
REMARK    4  A    between atoms: C_8  and  N_9
REMARK    5  A    between atoms: C_20  and  C_21
REMARK                            x       y       z     vdW  Elec       q    Type
REMARK                         _______ _______ _______ _____ _____    ______ ____
ROOT
ATOM      1  O   UNL     1       8.405   6.959  18.864  0.00  0.00    +0.000 OA
ATOM      2  C   UNL     1       7.614   7.277  17.978  0.00  0.00    +0.000 C 
ATOM      3  N   UNL     1       7.453   8.585  17.529  0.00  0.00    +0.000 N 
ATOM      4  H   UNL     1       6.643   8.775  16.950  0.00  0.00    +0.000 HD
ENDROOT
BRANCH   3   5
ATOM      5  C   UNL     1       8.239   9.682  17.981  0.00  0.00    +0.000 A 
ATOM      6  C   UNL     1       9.120   9.575  19.065  0.00  0.00    +0.000 A 
ATOM      7  C   UNL     1       9.835  10.674  19.541  0.00  0.00    +0.000 A 
ATOM      8  C   UNL     1       9.714  11.922  18.927  0.00  0.00    +0.000 A 
ATOM      9  C   UNL     1       8.878  12.031  17.806  0.00  0.00    +0.000 A 
ATOM     10  C   UNL     1       8.150  10.921  17.332  0.00  0.00    +0.000 A 
BRANCH   8  11
ATOM     11  C   UNL     1      10.508  13.091  19.460  0.00  0.00    +0.000 C 
BRANCH  11  12
ATOM     12  N   UNL     1      10.246  14.320  18.735  0.00  0.00    +0.000 N 
ATOM     13  C   UNL     1      10.927  14.675  17.514  0.00  0.00    +0.000 C 
ATOM     14  C   UNL     1      10.459  16.094  17.252  0.00  0.00    +0.000 C 
ATOM     15  C   UNL     1       9.057  16.124  17.848  0.00  0.00    +0.000 C 
ATOM     16  C   UNL     1       9.145  15.125  18.975  0.00  0.00    +0.000 C 
ATOM     17  O   UNL     1       8.346  15.019  19.891  0.00  0.00    +0.000 OA
ENDBRANCH  11  12
ENDBRANCH   8  11
ENDBRANCH   3   5
BRANCH   2  18
ATOM     18  C   UNL     1       6.771   6.252  17.395  0.00  0.00    +0.000 A 
ATOM     19  C   UNL     1       6.941   5.659  16.156  0.00  0.00    +0.000 A 
ATOM     20  C   UNL     1       5.866   4.780  15.964  0.00  0.00    +0.000 A 
ATOM     21  C   UNL     1       5.080   4.866  17.096  0.00  0.00    +0.000 A 
ATOM     22  O   UNL     1       5.639   5.752  17.992  0.00  0.00    +0.000 OA
BRANCH  21  23
ATOM     23  C   UNL     1       3.830   4.202  17.456  0.00  0.00    +0.000 A 
ATOM     24  C   UNL     1       2.681   4.928  17.791  0.00  0.00    +0.000 A 
ATOM     25  C   UNL     1       1.521   4.266  18.210  0.00  0.00    +0.000 A 
ATOM     26  C   UNL     1       1.507   2.877  18.285  0.00  0.00    +0.000 A 
ATOM     27  F   UNL     1       0.399   2.248  18.702  0.00  0.00    +0.000 F 
ATOM     28  C   UNL     1       2.626   2.134  17.943  0.00  0.00    +0.000 A 
ATOM     29  C   UNL     1       3.784   2.795  17.529  0.00  0.00    +0.000 A 
ENDBRANCH  21  23
ENDBRANCH   2  18
TORSDOF 5
ENDMDL
MODEL 3
REMARK VINA RESULT:      -8.1      9.801     13.169
REMARK  Name = 
REMARK  5 active torsions:
REMARK  status: ('A' for Active; 'I' for Inactive)
REMARK    1  A    between atoms: C_2  and  C_17
REMARK    2  A    between atoms: N_3  and  C_4
REMARK    3  A    between atoms: C_7  and  C_8
REMARK    4  A    between atoms: C_8  and  N_9
REMARK    5  A    between atoms: C_20  and  C_21
REMARK                            x       y       z     vdW  Elec       q    Type
REMARK                         _______ _______ _______ _____ _____    ______ ____
ROOT
ATOM      1  O   UNL     1       7.513   9.990  17.677  0.00  0.00    +0.000 OA
ATOM      2  C   UNL     1       8.163   9.081  18.190  0.00  0.00    +0.000 C 
ATOM      3  N   UNL     1       9.255   9.297  19.025  0.00  0.00    +0.000 N 
ATOM      4  H   UNL     1       9.842   8.497  19.230  0.00  0.00    +0.000 HD
ENDROOT
BRANCH   3   5
ATOM      5  C   UNL     1       9.689  10.586  19.446  0.00  0.00    +0.000 A 
ATOM      6  C   UNL     1       9.235  11.178  20.631  0.00  0.00    +0.000 A 
ATOM      7  C   UNL     1       9.615  12.469  21.000  0.00  0.00    +0.000 A 
ATOM      8  C   UNL     1      10.492  13.207  20.203  0.00  0.00    +0.000 A 
ATOM      9  C   UNL     1      10.999  12.606  19.042  0.00  0.00    +0.000 A 
ATOM     10  C   UNL     1      10.606  11.304  18.668  0.00  0.00    +0.000 A 
BRANCH   8  11
ATOM     11  C   UNL     1      10.893  14.599  20.633  0.00  0.00    +0.000 C 
BRANCH  11  12
ATOM     12  N   UNL     1      10.904  15.542  19.531  0.00  0.00    +0.000 N 
ATOM     13  C   UNL     1      12.096  15.871  18.787  0.00  0.00    +0.000 C 
ATOM     14  C   UNL     1      11.645  17.008  17.891  0.00  0.00    +0.000 C 
ATOM     15  C   UNL     1      10.172  16.709  17.645  0.00  0.00    +0.000 C 
ATOM     16  C   UNL     1       9.754  15.998  18.907  0.00  0.00    +0.000 C 
ATOM     17  O   UNL     1       8.603  15.812  19.268  0.00  0.00    +0.000 OA
ENDBRANCH  11  12
ENDBRANCH   8  11
ENDBRANCH   3   5
BRANCH   2  18
ATOM     18  C   UNL     1       7.809   7.709  17.881  0.00  0.00    +0.000 A 
ATOM     19  C   UNL     1       7.931   6.621  18.728  0.00  0.00    +0.000 A 
ATOM     20  C   UNL     1       7.543   5.485  18.004  0.00  0.00    +0.000 A 
ATOM     21  C   UNL     1       7.193   5.922  16.742  0.00  0.00    +0.000 A 
ATOM     22  O   UNL     1       7.331   7.291  16.662  0.00  0.00    +0.000 OA
BRANCH  21  23
ATOM     23  C   UNL     1       6.731   5.196  15.563  0.00  0.00    +0.000 A 
ATOM     24  C   UNL     1       5.608   4.361  15.604  0.00  0.00    +0.000 A 
ATOM     25  C   UNL     1       5.236   3.615  14.480  0.00  0.00    +0.000 A 
ATOM     26  C   UNL     1       5.983   3.709  13.310  0.00  0.00    +0.000 A 
ATOM     27  F   UNL     1       5.633   2.981  12.242  0.00  0.00    +0.000 F 
ATOM     28  C   UNL     1       7.089   4.541  13.237  0.00  0.00    +0.000 A 
ATOM     29  C   UNL     1       7.463   5.282  14.361  0.00  0.00    +0.000 A 
ENDBRANCH  21  23
ENDBRANCH   2  18
TORSDOF 5
ENDMDL
MODEL 4
REMARK VINA RESULT:      -8.1      1.329      2.403
REMARK  Name = 
REMARK  5 active torsions:
REMARK  status: ('A' for Active; 'I' for Inactive)
REMARK    1  A    between atoms: C_2  and  C_17
REMARK    2  A    between atoms: N_3  and  C_4
REMARK    3  A    between atoms: C_7  and  C_8
REMARK    4  A    between atoms: C_8  and  N_9
REMARK    5  A    between atoms: C_20  and  C_21
REMARK                            x       y       z     vdW  Elec       q    Type
REMARK                         _______ _______ _______ _____ _____    ______ ____
ROOT
ATOM      1  O   UNL     1       1.464  10.082  21.995  0.00  0.00    +0.000 OA
ATOM      2  C   UNL     1       0.676  10.519  21.159  0.00  0.00    +0.000 C 
ATOM      3  N   UNL     1       0.637  10.076  19.839  0.00  0.00    +0.000 N 
ATOM      4  H   UNL     1       0.100  10.633  19.184  0.00  0.00    +0.000 HD
ENDROOT
BRANCH   3   5
ATOM      5  C   UNL     1       1.441   9.017  19.334  0.00  0.00    +0.000 A 
ATOM      6  C   UNL     1       2.001   9.049  18.050  0.00  0.00    +0.000 A 
ATOM      7  C   UNL     1       2.731   7.975  17.540  0.00  0.00    +0.000 A 
ATOM      8  C   UNL     1       2.953   6.835  18.313  0.00  0.00    +0.000 A 
ATOM      9  C   UNL     1       2.446   6.810  19.621  0.00  0.00    +0.000 A 
ATOM     10  C   UNL     1       1.701   7.894  20.130  0.00  0.00    +0.000 A 
BRANCH   8  11
ATOM     11  C   UNL     1       3.756   5.692  17.737  0.00  0.00    +0.000 C 
BRANCH  11  12
ATOM     12  N   UNL     1       5.185   5.878  17.896  0.00  0.00    +0.000 N 
ATOM     13  C   UNL     1       5.903   6.993  17.328  0.00  0.00    +0.000 C 
ATOM     14  C   UNL     1       7.354   6.651  17.601  0.00  0.00    +0.000 C 
ATOM     15  C   UNL     1       7.296   5.850  18.896  0.00  0.00    +0.000 C 
ATOM     16  C   UNL     1       5.945   5.182  18.822  0.00  0.00    +0.000 C 
ATOM     17  O   UNL     1       5.583   4.239  19.506  0.00  0.00    +0.000 OA
ENDBRANCH  11  12
ENDBRANCH   8  11
ENDBRANCH   3   5
BRANCH   2  18
ATOM     18  C   UNL     1      -0.234  11.579  21.544  0.00  0.00    +0.000 A 
ATOM     19  C   UNL     1       0.046  12.935  21.557  0.00  0.00    +0.000 A 
ATOM     20  C   UNL     1      -1.087  13.589  22.061  0.00  0.00    +0.000 A 
ATOM     21  C   UNL     1      -2.020  12.609  22.332  0.00  0.00    +0.000 A 
ATOM     22  O   UNL     1      -1.515  11.370  21.997  0.00  0.00    +0.000 OA
BRANCH  21  23
ATOM     23  C   UNL     1      -3.369  12.687  22.885  0.00  0.00    +0.000 A 
ATOM     24  C   UNL     1      -3.634  12.390  24.227  0.00  0.00    +0.000 A 
ATOM     25  C   UNL     1      -4.948  12.395  24.709  0.00  0.00    +0.000 A 
ATOM     26  C   UNL     1      -5.998  12.707  23.851  0.00  0.00    +0.000 A 
ATOM     27  F   UNL     1      -7.256  12.694  24.313  0.00  0.00    +0.000 F 
ATOM     28  C   UNL     1      -5.761  13.021  22.522  0.00  0.00    +0.000 A 
ATOM     29  C   UNL     1      -4.451  13.010  22.040  0.00  0.00    +0.000 A 
ENDBRANCH  21  23
ENDBRANCH   2  18
TORSDOF 5
ENDMDL
MODEL 5
REMARK VINA RESULT:      -8.1      3.416      4.166
REMARK  Name = 
REMARK  5 active torsions:
REMARK  status: ('A' for Active; 'I' for Inactive)
REMARK    1  A    between atoms: C_2  and  C_17
REMARK    2  A    between atoms: N_3  and  C_4
REMARK    3  A    between atoms: C_7  and  C_8
REMARK    4  A    between atoms: C_8  and  N_9
REMARK    5  A    between atoms: C_20  and  C_21
REMARK                            x       y       z     vdW  Elec       q    Type
REMARK                         _______ _______ _______ _____ _____    ______ ____
ROOT
ATOM      1  O   UNL     1       1.803   8.880  20.375  0.00  0.00    +0.000 OA
ATOM      2  C   UNL     1       1.231   9.165  19.324  0.00  0.00    +0.000 C 
ATOM      3  N   UNL     1       1.509   8.545  18.109  0.00  0.00    +0.000 N 
ATOM      4  H   UNL     1       1.138   8.984  17.275  0.00  0.00    +0.000 HD
ENDROOT
BRANCH   3   5
ATOM      5  C   UNL     1       2.419   7.461  17.962  0.00  0.00    +0.000 A 
ATOM      6  C   UNL     1       3.757   7.651  17.595  0.00  0.00    +0.000 A 
ATOM      7  C   UNL     1       4.623   6.577  17.389  0.00  0.00    +0.000 A 
ATOM      8  C   UNL     1       4.183   5.264  17.570  0.00  0.00    +0.000 A 
ATOM      9  C   UNL     1       2.861   5.060  17.991  0.00  0.00    +0.000 A 
ATOM     10  C   UNL     1       1.987   6.148  18.191  0.00  0.00    +0.000 A 
BRANCH   8  11
ATOM     11  C   UNL     1       5.145   4.121  17.347  0.00  0.00    +0.000 C 
BRANCH  11  12
ATOM     12  N   UNL     1       5.772   4.166  16.040  0.00  0.00    +0.000 N 
ATOM     13  C   UNL     1       5.021   4.207  14.808  0.00  0.00    +0.000 C 
ATOM     14  C   UNL     1       6.090   4.056  13.742  0.00  0.00    +0.000 C 
ATOM     15  C   UNL     1       7.319   4.700  14.373  0.00  0.00    +0.000 C 
ATOM     16  C   UNL     1       7.112   4.453  15.847  0.00  0.00    +0.000 C 
ATOM     17  O   UNL     1       7.971   4.554  16.708  0.00  0.00    +0.000 OA
ENDBRANCH  11  12
ENDBRANCH   8  11
ENDBRANCH   3   5
BRANCH   2  18
ATOM     18  C   UNL     1       0.246  10.229  19.331  0.00  0.00    +0.000 A 
ATOM     19  C   UNL     1       0.348  11.435  20.004  0.00  0.00    +0.000 A 
ATOM     20  C   UNL     1      -0.851  12.130  19.795  0.00  0.00    +0.000 A 
ATOM     21  C   UNL     1      -1.640  11.325  18.998  0.00  0.00    +0.000 A 
ATOM     22  O   UNL     1      -0.966  10.163  18.688  0.00  0.00    +0.000 OA
BRANCH  21  23
ATOM     23  C   UNL     1      -2.989  11.512  18.473  0.00  0.00    +0.000 A 
ATOM     24  C   UNL     1      -3.317  11.191  17.150  0.00  0.00    +0.000 A 
ATOM     25  C   UNL     1      -4.597  11.456  16.651  0.00  0.00    +0.000 A 
ATOM     26  C   UNL     1      -5.555  12.035  17.478  0.00  0.00    +0.000 A 
ATOM     27  F   UNL     1      -6.774  12.302  16.992  0.00  0.00    +0.000 F 
ATOM     28  C   UNL     1      -5.261  12.347  18.796  0.00  0.00    +0.000 A 
ATOM     29  C   UNL     1      -3.982  12.087  19.292  0.00  0.00    +0.000 A 
ENDBRANCH  21  23
ENDBRANCH   2  18
TORSDOF 5
ENDMDL
MODEL 6
REMARK VINA RESULT:      -8.1      4.392     11.010
REMARK  Name = 
REMARK  5 active torsions:
REMARK  status: ('A' for Active; 'I' for Inactive)
REMARK    1  A    between atoms: C_2  and  C_17
REMARK    2  A    between atoms: N_3  and  C_4
REMARK    3  A    between atoms: C_7  and  C_8
REMARK    4  A    between atoms: C_8  and  N_9
REMARK    5  A    between atoms: C_20  and  C_21
REMARK                            x       y       z     vdW  Elec       q    Type
REMARK                         _______ _______ _______ _____ _____    ______ ____
ROOT
ATOM      1  O   UNL     1       1.462   9.043  18.815  0.00  0.00    +0.000 OA
ATOM      2  C   UNL     1       1.696   8.199  19.677  0.00  0.00    +0.000 C 
ATOM      3  N   UNL     1       1.356   8.358  21.017  0.00  0.00    +0.000 N 
ATOM      4  H   UNL     1       1.768   7.708  21.676  0.00  0.00    +0.000 HD
ENDROOT
BRANCH   3   5
ATOM      5  C   UNL     1       0.628   9.471  21.524  0.00  0.00    +0.000 A 
ATOM      6  C   UNL     1       0.771  10.761  20.998  0.00  0.00    +0.000 A 
ATOM      7  C   UNL     1       0.103  11.857  21.546  0.00  0.00    +0.000 A 
ATOM      8  C   UNL     1      -0.759  11.693  22.632  0.00  0.00    +0.000 A 
ATOM      9  C   UNL     1      -0.955  10.398  23.134  0.00  0.00    +0.000 A 
ATOM     10  C   UNL     1      -0.272   9.295  22.583  0.00  0.00    +0.000 A 
BRANCH   8  11
ATOM     11  C   UNL     1      -1.475  12.896  23.199  0.00  0.00    +0.000 C 
BRANCH  11  12
ATOM     12  N   UNL     1      -2.749  13.144  22.551  0.00  0.00    +0.000 N 
ATOM     13  C   UNL     1      -2.864  13.711  21.229  0.00  0.00    +0.000 C 
ATOM     14  C   UNL     1      -4.354  13.944  21.076  0.00  0.00    +0.000 C 
ATOM     15  C   UNL     1      -4.978  12.840  21.921  0.00  0.00    +0.000 C 
ATOM     16  C   UNL     1      -3.948  12.615  23.000  0.00  0.00    +0.000 C 
ATOM     17  O   UNL     1      -4.138  12.018  24.046  0.00  0.00    +0.000 OA
ENDBRANCH  11  12
ENDBRANCH   8  11
ENDBRANCH   3   5
BRANCH   2  18
ATOM     18  C   UNL     1       2.401   6.990  19.297  0.00  0.00    +0.000 A 
ATOM     19  C   UNL     1       2.557   5.855  20.074  0.00  0.00    +0.000 A 
ATOM     20  C   UNL     1       3.361   4.963  19.349  0.00  0.00    +0.000 A 
ATOM     21  C   UNL     1       3.660   5.584  18.154  0.00  0.00    +0.000 A 
ATOM     22  O   UNL     1       3.057   6.823  18.101  0.00  0.00    +0.000 OA
BRANCH  21  23
ATOM     23  C   UNL     1       4.469   5.152  17.017  0.00  0.00    +0.000 A 
ATOM     24  C   UNL     1       4.757   3.800  16.790  0.00  0.00    +0.000 A 
ATOM     25  C   UNL     1       5.601   3.422  15.740  0.00  0.00    +0.000 A 
ATOM     26  C   UNL     1       6.149   4.394  14.909  0.00  0.00    +0.000 A 
ATOM     27  F   UNL     1       6.969   4.028  13.914  0.00  0.00    +0.000 F 
ATOM     28  C   UNL     1       5.866   5.737  15.101  0.00  0.00    +0.000 A 
ATOM     29  C   UNL     1       5.028   6.115  16.153  0.00  0.00    +0.000 A 
ENDBRANCH  21  23
ENDBRANCH   2  18
TORSDOF 5
ENDMDL
MODEL 7
REMARK VINA RESULT:      -8.1      3.838     10.545
REMARK  Name = 
REMARK  5 active torsions:
REMARK  status: ('A' for Active; 'I' for Inactive)
REMARK    1  A    between atoms: C_2  and  C_17
REMARK    2  A    between atoms: N_3  and  C_4
REMARK    3  A    between atoms: C_7  and  C_8
REMARK    4  A    between atoms: C_8  and  N_9
REMARK    5  A    between atoms: C_20  and  C_21
REMARK                            x       y       z     vdW  Elec       q    Type
REMARK                         _______ _______ _______ _____ _____    ______ ____
ROOT
ATOM      1  O   UNL     1       0.066   9.961  18.671  0.00  0.00    +0.000 OA
ATOM      2  C   UNL     1       0.935   9.461  19.382  0.00  0.00    +0.000 C 
ATOM      3  N   UNL     1       1.133   9.819  20.713  0.00  0.00    +0.000 N 
ATOM      4  H   UNL     1       1.992   9.505  21.150  0.00  0.00    +0.000 HD
ENDROOT
BRANCH   3   5
ATOM      5  C   UNL     1       0.305  10.734  21.421  0.00  0.00    +0.000 A 
ATOM      6  C   UNL     1       0.363  12.117  21.205  0.00  0.00    +0.000 A 
ATOM      7  C   UNL     1      -0.406  13.010  21.951  0.00  0.00    +0.000 A 
ATOM      8  C   UNL     1      -1.288  12.545  22.929  0.00  0.00    +0.000 A 
ATOM      9  C   UNL     1      -1.398  11.159  23.118  0.00  0.00    +0.000 A 
ATOM     10  C   UNL     1      -0.613  10.260  22.367  0.00  0.00    +0.000 A 
BRANCH   8  11
ATOM     11  C   UNL     1      -2.114  13.535  23.715  0.00  0.00    +0.000 C 
BRANCH  11  12
ATOM     12  N   UNL     1      -3.474  13.642  23.224  0.00  0.00    +0.000 N 
ATOM     13  C   UNL     1      -3.824  14.365  22.025  0.00  0.00    +0.000 C 
ATOM     14  C   UNL     1      -5.340  14.347  22.035  0.00  0.00    +0.000 C 
ATOM     15  C   UNL     1      -5.678  13.039  22.740  0.00  0.00    +0.000 C 
ATOM     16  C   UNL     1      -4.513  12.848  23.679  0.00  0.00    +0.000 C 
ATOM     17  O   UNL     1      -4.487  12.081  24.628  0.00  0.00    +0.000 OA
ENDBRANCH  11  12
ENDBRANCH   8  11
ENDBRANCH   3   5
BRANCH   2  18
ATOM     18  C   UNL     1       1.833   8.480  18.805  0.00  0.00    +0.000 A 
ATOM     19  C   UNL     1       2.773   8.713  17.816  0.00  0.00    +0.000 A 
ATOM     20  C   UNL     1       3.367   7.481  17.508  0.00  0.00    +0.000 A 
ATOM     21  C   UNL     1       2.771   6.541  18.324  0.00  0.00    +0.000 A 
ATOM     22  O   UNL     1       1.841   7.148  19.142  0.00  0.00    +0.000 OA
BRANCH  21  23
ATOM     23  C   UNL     1       2.966   5.099  18.438  0.00  0.00    +0.000 A 
ATOM     24  C   UNL     1       4.051   4.555  19.137  0.00  0.00    +0.000 A 
ATOM     25  C   UNL     1       4.258   3.172  19.162  0.00  0.00    +0.000 A 
ATOM     26  C   UNL     1       3.375   2.329  18.495  0.00  0.00    +0.000 A 
ATOM     27  F   UNL     1       3.586   1.006  18.508  0.00  0.00    +0.000 F 
ATOM     28  C   UNL     1       2.283   2.840  17.810  0.00  0.00    +0.000 A 
ATOM     29  C   UNL     1       2.080   4.221  17.781  0.00  0.00    +0.000 A 
ENDBRANCH  21  23
ENDBRANCH   2  18
TORSDOF 5
ENDMDL
MODEL 8
REMARK VINA RESULT:      -8.0      7.754     11.642
REMARK  Name = 
REMARK  5 active torsions:
REMARK  status: ('A' for Active; 'I' for Inactive)
REMARK    1  A    between atoms: C_2  and  C_17
REMARK    2  A    between atoms: N_3  and  C_4
REMARK    3  A    between atoms: C_7  and  C_8
REMARK    4  A    between atoms: C_8  and  N_9
REMARK    5  A    between atoms: C_20  and  C_21
REMARK                            x       y       z     vdW  Elec       q    Type
REMARK                         _______ _______ _______ _____ _____    ______ ____
ROOT
ATOM      1  O   UNL     1       7.434   9.005  17.021  0.00  0.00    +0.000 OA
ATOM      2  C   UNL     1       7.756   8.257  17.942  0.00  0.00    +0.000 C 
ATOM      3  N   UNL     1       8.667   8.611  18.934  0.00  0.00    +0.000 N 
ATOM      4  H   UNL     1       9.016   7.865  19.523  0.00  0.00    +0.000 HD
ENDROOT
BRANCH   3   5
ATOM      5  C   UNL     1       9.261   9.900  19.041  0.00  0.00    +0.000 A 
ATOM      6  C   UNL     1       9.735  10.601  17.925  0.00  0.00    +0.000 A 
ATOM      7  C   UNL     1      10.376  11.834  18.050  0.00  0.00    +0.000 A 
ATOM      8  C   UNL     1      10.541  12.426  19.304  0.00  0.00    +0.000 A 
ATOM      9  C   UNL     1      10.022  11.762  20.425  0.00  0.00    +0.000 A 
ATOM     10  C   UNL     1       9.382  10.512  20.296  0.00  0.00    +0.000 A 
BRANCH   8  11
ATOM     11  C   UNL     1      11.231  13.766  19.407  0.00  0.00    +0.000 C 
BRANCH  11  12
ATOM     12  N   UNL     1      10.613  14.777  18.571  0.00  0.00    +0.000 N 
ATOM     13  C   UNL     1       9.397  15.464  18.934  0.00  0.00    +0.000 C 
ATOM     14  C   UNL     1       9.062  16.263  17.689  0.00  0.00    +0.000 C 
ATOM     15  C   UNL     1      10.425  16.565  17.079  0.00  0.00    +0.000 C 
ATOM     16  C   UNL     1      11.257  15.380  17.503  0.00  0.00    +0.000 C 
ATOM     17  O   UNL     1      12.331  15.061  17.021  0.00  0.00    +0.000 OA
ENDBRANCH  11  12
ENDBRANCH   8  11
ENDBRANCH   3   5
BRANCH   2  18
ATOM     18  C   UNL     1       7.197   6.919  17.984  0.00  0.00    +0.000 A 
ATOM     19  C   UNL     1       7.911   5.733  17.975  0.00  0.00    +0.000 A 
ATOM     20  C   UNL     1       6.978   4.687  17.953  0.00  0.00    +0.000 A 
ATOM     21  C   UNL     1       5.728   5.273  17.955  0.00  0.00    +0.000 A 
ATOM     22  O   UNL     1       5.850   6.645  17.996  0.00  0.00    +0.000 OA
BRANCH  21  23
ATOM     23  C   UNL     1       4.389   4.691  17.921  0.00  0.00    +0.000 A 
ATOM     24  C   UNL     1       3.242   5.471  18.114  0.00  0.00    +0.000 A 
ATOM     25  C   UNL     1       1.977   4.873  18.156  0.00  0.00    +0.000 A 
ATOM     26  C   UNL     1       1.857   3.497  17.996  0.00  0.00    +0.000 A 
ATOM     27  F   UNL     1       0.646   2.927  18.054  0.00  0.00    +0.000 F 
ATOM     28  C   UNL     1       2.975   2.704  17.787  0.00  0.00    +0.000 A 
ATOM     29  C   UNL     1       4.238   3.300  17.750  0.00  0.00    +0.000 A 
ENDBRANCH  21  23
ENDBRANCH   2  18
TORSDOF 5
ENDMDL
MODEL 9
REMARK VINA RESULT:      -8.0      7.856     11.234
REMARK  Name = 
REMARK  5 active torsions:
REMARK  status: ('A' for Active; 'I' for Inactive)
REMARK    1  A    between atoms: C_2  and  C_17
REMARK    2  A    between atoms: N_3  and  C_4
REMARK    3  A    between atoms: C_7  and  C_8
REMARK    4  A    between atoms: C_8  and  N_9
REMARK    5  A    between atoms: C_20  and  C_21
REMARK                            x       y       z     vdW  Elec       q    Type
REMARK                         _______ _______ _______ _____ _____    ______ ____
ROOT
ATOM      1  O   UNL     1       8.393   6.932  18.875  0.00  0.00    +0.000 OA
ATOM      2  C   UNL     1       7.604   7.257  17.990  0.00  0.00    +0.000 C 
ATOM      3  N   UNL     1       7.448   8.568  17.547  0.00  0.00    +0.000 N 
ATOM      4  H   UNL     1       6.640   8.764  16.968  0.00  0.00    +0.000 HD
ENDROOT
BRANCH   3   5
ATOM      5  C   UNL     1       8.238   9.659  18.005  0.00  0.00    +0.000 A 
ATOM      6  C   UNL     1       9.134   9.538  19.075  0.00  0.00    +0.000 A 
ATOM      7  C   UNL     1       9.854  10.630  19.559  0.00  0.00    +0.000 A 
ATOM      8  C   UNL     1       9.722  11.887  18.966  0.00  0.00    +0.000 A 
ATOM      9  C   UNL     1       8.871  12.013  17.858  0.00  0.00    +0.000 A 
ATOM     10  C   UNL     1       8.139  10.908  17.377  0.00  0.00    +0.000 A 
BRANCH   8  11
ATOM     11  C   UNL     1      10.521  13.050  19.506  0.00  0.00    +0.000 C 
BRANCH  11  12
ATOM     12  N   UNL     1       9.741  13.906  20.379  0.00  0.00    +0.000 N 
ATOM     13  C   UNL     1       9.695  13.739  21.812  0.00  0.00    +0.000 C 
ATOM     14  C   UNL     1       8.628  14.725  22.245  0.00  0.00    +0.000 C 
ATOM     15  C   UNL     1       8.729  15.840  21.212  0.00  0.00    +0.000 C 
ATOM     16  C   UNL     1       9.200  15.116  19.975  0.00  0.00    +0.000 C 
ATOM     17  O   UNL     1       9.160  15.557  18.839  0.00  0.00    +0.000 OA
ENDBRANCH  11  12
ENDBRANCH   8  11
ENDBRANCH   3   5
BRANCH   2  18
ATOM     18  C   UNL     1       6.757   6.239  17.400  0.00  0.00    +0.000 A 
ATOM     19  C   UNL     1       6.921   5.658  16.154  0.00  0.00    +0.000 A 
ATOM     20  C   UNL     1       5.844   4.782  15.959  0.00  0.00    +0.000 A 
ATOM     21  C   UNL     1       5.064   4.856  17.096  0.00  0.00    +0.000 A 
ATOM     22  O   UNL     1       5.628   5.732  17.998  0.00  0.00    +0.000 OA
BRANCH  21  23
ATOM     23  C   UNL     1       3.816   4.189  17.456  0.00  0.00    +0.000 A 
ATOM     24  C   UNL     1       2.660   4.912  17.773  0.00  0.00    +0.000 A 
ATOM     25  C   UNL     1       1.501   4.248  18.192  0.00  0.00    +0.000 A 
ATOM     26  C   UNL     1       1.495   2.860  18.286  0.00  0.00    +0.000 A 
ATOM     27  F   UNL     1       0.389   2.230  18.703  0.00  0.00    +0.000 F 
ATOM     28  C   UNL     1       2.622   2.120  17.961  0.00  0.00    +0.000 A 
ATOM     29  C   UNL     1       3.779   2.783  17.548  0.00  0.00    +0.000 A 
ENDBRANCH  21  23
ENDBRANCH   2  18
TORSDOF 5
ENDMDL
