MODEL 1
REMARK VINA RESULT:      -8.1      0.000      0.000
REMARK  Name = 
REMARK  5 active torsions:
REMARK  status: ('A' for Active; 'I' for Inactive)
REMARK    1  A    between atoms: C_1  and  C_2
REMARK    2  A    between atoms: C_9  and  N_10
REMARK    3  A    between atoms: C_11  and  C_13
REMARK    4  A    between atoms: C_19  and  C_20
REMARK    5  A    between atoms: N_22  and  C_23
REMARK                            x       y       z     vdW  Elec       q    Type
REMARK                         _______ _______ _______ _____ _____    ______ ____
ROOT
ATOM      1  N   UNL     1       1.381   8.687  20.445  0.00  0.00    +0.000 N 
ATOM      2  C   UNL     1       0.265   9.030  21.199  0.00  0.00    +0.000 C 
ATOM      3  O   UNL     1      -0.606   8.270  21.603  0.00  0.00    +0.000 OA
ATOM      4  H   UNL     1       2.029   9.414  20.173  0.00  0.00    +0.000 HD
ENDROOT
BRANCH   1  13
ATOM      5  C   UNL     1       3.824   1.421  18.120  0.00  0.00    +0.000 C 
ATOM      6  C   UNL     1       3.655   2.921  18.052  0.00  0.00    +0.000 C 
ATOM      7  O   UNL     1       4.095   3.546  17.089  0.00  0.00    +0.000 OA
ATOM      8  N   UNL     1       2.967   3.478  19.115  0.00  0.00    +0.000 N 
ATOM      9  C   UNL     1       2.582   2.767  20.349  0.00  0.00    +0.000 C 
ATOM     10  C   UNL     1       1.721   3.722  21.177  0.00  0.00    +0.000 C 
ATOM     11  C   UNL     1       1.948   5.016  20.469  0.00  0.00    +0.000 A 
ATOM     12  C   UNL     1       1.510   6.265  20.880  0.00  0.00    +0.000 A 
ATOM     13  C   UNL     1       1.749   7.372  20.068  0.00  0.00    +0.000 A 
ATOM     14  C   UNL     1       2.390   7.182  18.827  0.00  0.00    +0.000 A 
ATOM     15  C   UNL     1       2.839   5.911  18.424  0.00  0.00    +0.000 A 
ATOM     16  C   UNL     1       2.622   4.835  19.265  0.00  0.00    +0.000 A 
ENDBRANCH   1  13
BRANCH   2  17
ATOM     17  C   UNL     1       0.126  10.459  21.576  0.00  0.00    +0.000 A 
ATOM     18  C   UNL     1       1.039  11.377  21.057  0.00  0.00    +0.000 A 
ATOM     19  N   UNL     1       1.011  12.726  21.242  0.00  0.00    +0.000 NA
ATOM     20  C   UNL     1      -0.049  13.127  21.972  0.00  0.00    +0.000 A 
ATOM     21  C   UNL     1      -1.027  12.315  22.533  0.00  0.00    +0.000 A 
ATOM     22  C   UNL     1      -0.947  10.929  22.334  0.00  0.00    +0.000 A 
ATOM     23  C   UNL     1      -1.916  13.211  23.176  0.00  0.00    +0.000 A 
ATOM     24  C   UNL     1      -3.152  12.872  23.926  0.00  0.00    +0.000 C 
ATOM     25  N   UNL     1      -1.534  14.489  23.043  0.00  0.00    +0.000 NA
ATOM     26  N   UNL     1      -0.404  14.407  22.300  0.00  0.00    +0.000 N 
ATOM     27  C   UNL     1       0.292  15.611  21.912  0.00  0.00    +0.000 C 
ENDBRANCH   2  17
TORSDOF 2
ENDMDL
MODEL 2
REMARK VINA RESULT:      -8.1      2.835      9.662
REMARK  Name = 
REMARK  5 active torsions:
REMARK  status: ('A' for Active; 'I' for Inactive)
REMARK    1  A    between atoms: C_1  and  C_2
REMARK    2  A    between atoms: C_9  and  N_10
REMARK    3  A    between atoms: C_11  and  C_13
REMARK    4  A    between atoms: C_19  and  C_20
REMARK    5  A    between atoms: N_22  and  C_23
REMARK                            x       y       z     vdW  Elec       q    Type
REMARK                         _______ _______ _______ _____ _____    ______ ____
ROOT
ATOM      1  N   UNL     1       1.524   8.964  18.184  0.00  0.00    +0.000 N 
ATOM      2  C   UNL     1       2.083   7.895  18.875  0.00  0.00    +0.000 C 
ATOM      3  O   UNL     1       1.912   7.618  20.056  0.00  0.00    +0.000 OA
ATOM      4  H   UNL     1       1.746   9.082  17.205  0.00  0.00    +0.000 HD
ENDROOT
BRANCH   1  13
ATOM      5  C   UNL     1      -4.078  13.900  21.087  0.00  0.00    +0.000 C 
ATOM      6  C   UNL     1      -3.496  12.816  20.210  0.00  0.00    +0.000 C 
ATOM      7  O   UNL     1      -4.192  12.287  19.345  0.00  0.00    +0.000 OA
ATOM      8  N   UNL     1      -2.168  12.520  20.454  0.00  0.00    +0.000 N 
ATOM      9  C   UNL     1      -1.375  13.025  21.591  0.00  0.00    +0.000 C 
ATOM     10  C   UNL     1       0.068  12.563  21.384  0.00  0.00    +0.000 C 
ATOM     11  C   UNL     1      -0.095  11.563  20.287  0.00  0.00    +0.000 A 
ATOM     12  C   UNL     1       0.887  10.723  19.789  0.00  0.00    +0.000 A 
ATOM     13  C   UNL     1       0.590   9.889  18.712  0.00  0.00    +0.000 A 
ATOM     14  C   UNL     1      -0.692   9.959  18.130  0.00  0.00    +0.000 A 
ATOM     15  C   UNL     1      -1.685  10.809  18.649  0.00  0.00    +0.000 A 
ATOM     16  C   UNL     1      -1.375  11.599  19.742  0.00  0.00    +0.000 A 
ENDBRANCH   1  13
BRANCH   2  17
ATOM     17  C   UNL     1       2.957   6.981  18.099  0.00  0.00    +0.000 A 
ATOM     18  C   UNL     1       4.010   7.528  17.364  0.00  0.00    +0.000 A 
ATOM     19  N   UNL     1       4.943   6.830  16.661  0.00  0.00    +0.000 NA
ATOM     20  C   UNL     1       4.783   5.496  16.769  0.00  0.00    +0.000 A 
ATOM     21  C   UNL     1       3.786   4.834  17.474  0.00  0.00    +0.000 A 
ATOM     22  C   UNL     1       2.833   5.593  18.168  0.00  0.00    +0.000 A 
ATOM     23  C   UNL     1       4.068   3.457  17.292  0.00  0.00    +0.000 A 
ATOM     24  C   UNL     1       3.317   2.302  17.845  0.00  0.00    +0.000 C 
ATOM     25  N   UNL     1       5.151   3.257  16.528  0.00  0.00    +0.000 NA
ATOM     26  N   UNL     1       5.568   4.511  16.234  0.00  0.00    +0.000 N 
ATOM     27  C   UNL     1       6.759   4.708  15.441  0.00  0.00    +0.000 C 
ENDBRANCH   2  17
TORSDOF 2
ENDMDL
MODEL 3
REMARK VINA RESULT:      -8.0      0.947      1.721
REMARK  Name = 
REMARK  5 active torsions:
REMARK  status: ('A' for Active; 'I' for Inactive)
REMARK    1  A    between atoms: C_1  and  C_2
REMARK    2  A    between atoms: C_9  and  N_10
REMARK    3  A    between atoms: C_11  and  C_13
REMARK    4  A    between atoms: C_19  and  C_20
REMARK    5  A    between atoms: N_22  and  C_23
REMARK                            x       y       z     vdW  Elec       q    Type
REMARK                         _______ _______ _______ _____ _____    ______ ____
ROOT
ATOM      1  N   UNL     1       1.364   8.770  20.516  0.00  0.00    +0.000 N 
ATOM      2  C   UNL     1       0.201   8.998  21.244  0.00  0.00    +0.000 C 
ATOM      3  O   UNL     1      -0.629   8.162  21.575  0.00  0.00    +0.000 OA
ATOM      4  H   UNL     1       1.971   9.550  20.307  0.00  0.00    +0.000 HD
ENDROOT
BRANCH   1  13
ATOM      5  C   UNL     1       3.626   1.436  18.220  0.00  0.00    +0.000 C 
ATOM      6  C   UNL     1       2.903   2.477  19.044  0.00  0.00    +0.000 C 
ATOM      7  O   UNL     1       2.216   2.131  20.003  0.00  0.00    +0.000 OA
ATOM      8  N   UNL     1       3.109   3.783  18.642  0.00  0.00    +0.000 N 
ATOM      9  C   UNL     1       3.792   4.198  17.401  0.00  0.00    +0.000 C 
ATOM     10  C   UNL     1       3.919   5.721  17.436  0.00  0.00    +0.000 C 
ATOM     11  C   UNL     1       3.012   6.069  18.569  0.00  0.00    +0.000 A 
ATOM     12  C   UNL     1       2.638   7.344  18.960  0.00  0.00    +0.000 A 
ATOM     13  C   UNL     1       1.832   7.503  20.087  0.00  0.00    +0.000 A 
ATOM     14  C   UNL     1       1.459   6.361  20.825  0.00  0.00    +0.000 A 
ATOM     15  C   UNL     1       1.837   5.070  20.413  0.00  0.00    +0.000 A 
ATOM     16  C   UNL     1       2.605   4.938  19.271  0.00  0.00    +0.000 A 
ENDBRANCH   1  13
BRANCH   2  17
ATOM     17  C   UNL     1      -0.046  10.392  21.687  0.00  0.00    +0.000 A 
ATOM     18  C   UNL     1       0.808  11.398  21.234  0.00  0.00    +0.000 A 
ATOM     19  N   UNL     1       0.680  12.730  21.483  0.00  0.00    +0.000 NA
ATOM     20  C   UNL     1      -0.419  13.019  22.209  0.00  0.00    +0.000 A 
ATOM     21  C   UNL     1      -1.346  12.112  22.709  0.00  0.00    +0.000 A 
ATOM     22  C   UNL     1      -1.163  10.747  22.444  0.00  0.00    +0.000 A 
ATOM     23  C   UNL     1      -2.308  12.909  23.376  0.00  0.00    +0.000 A 
ATOM     24  C   UNL     1      -3.530  12.447  24.081  0.00  0.00    +0.000 C 
ATOM     25  N   UNL     1      -2.016  14.216  23.314  0.00  0.00    +0.000 NA
ATOM     26  N   UNL     1      -0.871  14.252  22.593  0.00  0.00    +0.000 N 
ATOM     27  C   UNL     1      -0.256  15.520  22.279  0.00  0.00    +0.000 C 
ENDBRANCH   2  17
TORSDOF 2
ENDMDL
MODEL 4
REMARK VINA RESULT:      -7.9      2.500      9.502
REMARK  Name = 
REMARK  5 active torsions:
REMARK  status: ('A' for Active; 'I' for Inactive)
REMARK    1  A    between atoms: C_1  and  C_2
REMARK    2  A    between atoms: C_9  and  N_10
REMARK    3  A    between atoms: C_11  and  C_13
REMARK    4  A    between atoms: C_19  and  C_20
REMARK    5  A    between atoms: N_22  and  C_23
REMARK                            x       y       z     vdW  Elec       q    Type
REMARK                         _______ _______ _______ _____ _____    ______ ____
ROOT
ATOM      1  N   UNL     1       1.628   8.848  18.987  0.00  0.00    +0.000 N 
ATOM      2  C   UNL     1       2.057   7.598  19.420  0.00  0.00    +0.000 C 
ATOM      3  O   UNL     1       1.814   7.076  20.500  0.00  0.00    +0.000 OA
ATOM      4  H   UNL     1       1.899   9.166  18.067  0.00  0.00    +0.000 HD
ENDROOT
BRANCH   1  13
ATOM      5  C   UNL     1      -3.516  13.773  22.657  0.00  0.00    +0.000 C 
ATOM      6  C   UNL     1      -2.748  13.168  21.504  0.00  0.00    +0.000 C 
ATOM      7  O   UNL     1      -2.876  13.630  20.372  0.00  0.00    +0.000 OA
ATOM      8  N   UNL     1      -1.916  12.118  21.847  0.00  0.00    +0.000 N 
ATOM      9  C   UNL     1      -1.879  11.451  23.162  0.00  0.00    +0.000 C 
ATOM     10  C   UNL     1      -0.721  10.452  23.137  0.00  0.00    +0.000 C 
ATOM     11  C   UNL     1      -0.387  10.423  21.683  0.00  0.00    +0.000 A 
ATOM     12  C   UNL     1       0.513   9.570  21.064  0.00  0.00    +0.000 A 
ATOM     13  C   UNL     1       0.763   9.715  19.700  0.00  0.00    +0.000 A 
ATOM     14  C   UNL     1       0.126  10.758  18.998  0.00  0.00    +0.000 A 
ATOM     15  C   UNL     1      -0.793  11.613  19.633  0.00  0.00    +0.000 A 
ATOM     16  C   UNL     1      -1.051  11.423  20.979  0.00  0.00    +0.000 A 
ENDBRANCH   1  13
BRANCH   2  17
ATOM     17  C   UNL     1       2.872   6.806  18.468  0.00  0.00    +0.000 A 
ATOM     18  C   UNL     1       3.758   7.479  17.625  0.00  0.00    +0.000 A 
ATOM     19  N   UNL     1       4.626   6.901  16.751  0.00  0.00    +0.000 NA
ATOM     20  C   UNL     1       4.588   5.555  16.793  0.00  0.00    +0.000 A 
ATOM     21  C   UNL     1       3.761   4.773  17.591  0.00  0.00    +0.000 A 
ATOM     22  C   UNL     1       2.867   5.410  18.464  0.00  0.00    +0.000 A 
ATOM     23  C   UNL     1       4.118   3.437  17.281  0.00  0.00    +0.000 A 
ATOM     24  C   UNL     1       3.550   2.194  17.861  0.00  0.00    +0.000 C 
ATOM     25  N   UNL     1       5.086   3.371  16.357  0.00  0.00    +0.000 NA
ATOM     26  N   UNL     1       5.357   4.671  16.088  0.00  0.00    +0.000 N 
ATOM     27  C   UNL     1       6.397   5.010  15.145  0.00  0.00    +0.000 C 
ENDBRANCH   2  17
TORSDOF 2
ENDMDL
MODEL 5
REMARK VINA RESULT:      -7.9      2.525      9.642
REMARK  Name = 
REMARK  5 active torsions:
REMARK  status: ('A' for Active; 'I' for Inactive)
REMARK    1  A    between atoms: C_1  and  C_2
REMARK    2  A    between atoms: C_9  and  N_10
REMARK    3  A    between atoms: C_11  and  C_13
REMARK    4  A    between atoms: C_19  and  C_20
REMARK    5  A    between atoms: N_22  and  C_23
REMARK                            x       y       z     vdW  Elec       q    Type
REMARK                         _______ _______ _______ _____ _____    ______ ____
ROOT
ATOM      1  N   UNL     1       1.499   8.956  18.932  0.00  0.00    +0.000 N 
ATOM      2  C   UNL     1       1.927   7.727  19.419  0.00  0.00    +0.000 C 
ATOM      3  O   UNL     1       1.669   7.246  20.516  0.00  0.00    +0.000 OA
ATOM      4  H   UNL     1       1.783   9.239  18.004  0.00  0.00    +0.000 HD
ENDROOT
BRANCH   1  13
ATOM      5  C   UNL     1      -3.111  14.172  22.897  0.00  0.00    +0.000 C 
ATOM      6  C   UNL     1      -1.930  13.260  22.655  0.00  0.00    +0.000 C 
ATOM      7  O   UNL     1      -1.079  13.112  23.530  0.00  0.00    +0.000 OA
ATOM      8  N   UNL     1      -1.926  12.628  21.425  0.00  0.00    +0.000 N 
ATOM      9  C   UNL     1      -2.845  12.923  20.310  0.00  0.00    +0.000 C 
ATOM     10  C   UNL     1      -2.575  11.895  19.210  0.00  0.00    +0.000 C 
ATOM     11  C   UNL     1      -1.297  11.285  19.681  0.00  0.00    +0.000 A 
ATOM     12  C   UNL     1      -0.516  10.376  18.987  0.00  0.00    +0.000 A 
ATOM     13  C   UNL     1       0.621   9.848  19.597  0.00  0.00    +0.000 A 
ATOM     14  C   UNL     1       0.918  10.219  20.924  0.00  0.00    +0.000 A 
ATOM     15  C   UNL     1       0.123  11.151  21.617  0.00  0.00    +0.000 A 
ATOM     16  C   UNL     1      -0.979  11.688  20.975  0.00  0.00    +0.000 A 
ENDBRANCH   1  13
BRANCH   2  17
ATOM     17  C   UNL     1       2.759   6.901  18.511  0.00  0.00    +0.000 A 
ATOM     18  C   UNL     1       3.704   7.539  17.706  0.00  0.00    +0.000 A 
ATOM     19  N   UNL     1       4.593   6.927  16.877  0.00  0.00    +0.000 NA
ATOM     20  C   UNL     1       4.508   5.582  16.926  0.00  0.00    +0.000 A 
ATOM     21  C   UNL     1       3.621   4.834  17.689  0.00  0.00    +0.000 A 
ATOM     22  C   UNL     1       2.709   5.506  18.515  0.00  0.00    +0.000 A 
ATOM     23  C   UNL     1       3.947   3.484  17.404  0.00  0.00    +0.000 A 
ATOM     24  C   UNL     1       3.313   2.265  17.965  0.00  0.00    +0.000 C 
ATOM     25  N   UNL     1       4.955   3.381  16.526  0.00  0.00    +0.000 NA
ATOM     26  N   UNL     1       5.280   4.669  16.262  0.00  0.00    +0.000 N 
ATOM     27  C   UNL     1       6.373   4.967  15.366  0.00  0.00    +0.000 C 
ENDBRANCH   2  17
TORSDOF 2
ENDMDL
MODEL 6
REMARK VINA RESULT:      -7.9      1.658      2.131
REMARK  Name = 
REMARK  5 active torsions:
REMARK  status: ('A' for Active; 'I' for Inactive)
REMARK    1  A    between atoms: C_1  and  C_2
REMARK    2  A    between atoms: C_9  and  N_10
REMARK    3  A    between atoms: C_11  and  C_13
REMARK    4  A    between atoms: C_19  and  C_20
REMARK    5  A    between atoms: N_22  and  C_23
REMARK                            x       y       z     vdW  Elec       q    Type
REMARK                         _______ _______ _______ _____ _____    ______ ____
ROOT
ATOM      1  N   UNL     1       0.324   9.980  20.552  0.00  0.00    +0.000 N 
ATOM      2  C   UNL     1       0.316  10.374  21.886  0.00  0.00    +0.000 C 
ATOM      3  O   UNL     1       0.905   9.830  22.811  0.00  0.00    +0.000 OA
ATOM      4  H   UNL     1      -0.207  10.518  19.881  0.00  0.00    +0.000 HD
ENDROOT
BRANCH   1  13
ATOM      5  C   UNL     1       4.885   4.234  17.335  0.00  0.00    +0.000 C 
ATOM      6  C   UNL     1       4.242   5.596  17.460  0.00  0.00    +0.000 C 
ATOM      7  O   UNL     1       4.428   6.444  16.588  0.00  0.00    +0.000 OA
ATOM      8  N   UNL     1       3.449   5.765  18.579  0.00  0.00    +0.000 N 
ATOM      9  C   UNL     1       3.352   4.821  19.708  0.00  0.00    +0.000 C 
ATOM     10  C   UNL     1       2.259   5.337  20.644  0.00  0.00    +0.000 C 
ATOM     11  C   UNL     1       2.036   6.713  20.111  0.00  0.00    +0.000 A 
ATOM     12  C   UNL     1       1.236   7.693  20.674  0.00  0.00    +0.000 A 
ATOM     13  C   UNL     1       1.081   8.911  20.013  0.00  0.00    +0.000 A 
ATOM     14  C   UNL     1       1.707   9.093  18.763  0.00  0.00    +0.000 A 
ATOM     15  C   UNL     1       2.526   8.094  18.204  0.00  0.00    +0.000 A 
ATOM     16  C   UNL     1       2.693   6.910  18.899  0.00  0.00    +0.000 A 
ENDBRANCH   1  13
BRANCH   2  17
ATOM     17  C   UNL     1      -0.464  11.591  22.218  0.00  0.00    +0.000 A 
ATOM     18  C   UNL     1      -0.110  12.797  21.612  0.00  0.00    +0.000 A 
ATOM     19  N   UNL     1      -0.763  13.984  21.750  0.00  0.00    +0.000 NA
ATOM     20  C   UNL     1      -1.859  13.887  22.528  0.00  0.00    +0.000 A 
ATOM     21  C   UNL     1      -2.318  12.747  23.176  0.00  0.00    +0.000 A 
ATOM     22  C   UNL     1      -1.603  11.550  23.023  0.00  0.00    +0.000 A 
ATOM     23  C   UNL     1      -3.500  13.160  23.840  0.00  0.00    +0.000 A 
ATOM     24  C   UNL     1      -4.403  12.328  24.675  0.00  0.00    +0.000 C 
ATOM     25  N   UNL     1      -3.769  14.457  23.638  0.00  0.00    +0.000 NA
ATOM     26  N   UNL     1      -2.762  14.869  22.831  0.00  0.00    +0.000 N 
ATOM     27  C   UNL     1      -2.729  16.232  22.358  0.00  0.00    +0.000 C 
ENDBRANCH   2  17
TORSDOF 2
ENDMDL
MODEL 7
REMARK VINA RESULT:      -7.9      2.528      9.589
REMARK  Name = 
REMARK  5 active torsions:
REMARK  status: ('A' for Active; 'I' for Inactive)
REMARK    1  A    between atoms: C_1  and  C_2
REMARK    2  A    between atoms: C_9  and  N_10
REMARK    3  A    between atoms: C_11  and  C_13
REMARK    4  A    between atoms: C_19  and  C_20
REMARK    5  A    between atoms: N_22  and  C_23
REMARK                            x       y       z     vdW  Elec       q    Type
REMARK                         _______ _______ _______ _____ _____    ______ ____
ROOT
ATOM      1  N   UNL     1       1.133   8.669  19.340  0.00  0.00    +0.000 N 
ATOM      2  C   UNL     1       1.958   8.791  18.227  0.00  0.00    +0.000 C 
ATOM      3  O   UNL     1       2.134   9.799  17.555  0.00  0.00    +0.000 OA
ATOM      4  H   UNL     1       1.076   7.777  19.811  0.00  0.00    +0.000 HD
ENDROOT
BRANCH   1  13
ATOM      5  C   UNL     1      -2.640  14.765  22.916  0.00  0.00    +0.000 C 
ATOM      6  C   UNL     1      -1.595  13.688  22.732  0.00  0.00    +0.000 C 
ATOM      7  O   UNL     1      -0.744  13.504  23.601  0.00  0.00    +0.000 OA
ATOM      8  N   UNL     1      -1.710  12.959  21.563  0.00  0.00    +0.000 N 
ATOM      9  C   UNL     1      -2.617  13.276  20.444  0.00  0.00    +0.000 C 
ATOM     10  C   UNL     1      -2.515  12.132  19.434  0.00  0.00    +0.000 C 
ATOM     11  C   UNL     1      -1.314  11.401  19.934  0.00  0.00    +0.000 A 
ATOM     12  C   UNL     1      -0.678  10.341  19.308  0.00  0.00    +0.000 A 
ATOM     13  C   UNL     1       0.399   9.722  19.941  0.00  0.00    +0.000 A 
ATOM     14  C   UNL     1       0.781  10.163  21.224  0.00  0.00    +0.000 A 
ATOM     15  C   UNL     1       0.134  11.246  21.847  0.00  0.00    +0.000 A 
ATOM     16  C   UNL     1      -0.907  11.867  21.181  0.00  0.00    +0.000 A 
ENDBRANCH   1  13
BRANCH   2  17
ATOM     17  C   UNL     1       2.722   7.584  17.828  0.00  0.00    +0.000 A 
ATOM     18  C   UNL     1       3.997   7.750  17.285  0.00  0.00    +0.000 A 
ATOM     19  N   UNL     1       4.855   6.752  16.937  0.00  0.00    +0.000 NA
ATOM     20  C   UNL     1       4.365   5.527  17.209  0.00  0.00    +0.000 A 
ATOM     21  C   UNL     1       3.121   5.233  17.754  0.00  0.00    +0.000 A 
ATOM     22  C   UNL     1       2.260   6.292  18.079  0.00  0.00    +0.000 A 
ATOM     23  C   UNL     1       3.096   3.820  17.858  0.00  0.00    +0.000 A 
ATOM     24  C   UNL     1       1.999   2.974  18.391  0.00  0.00    +0.000 C 
ATOM     25  N   UNL     1       4.227   3.258  17.410  0.00  0.00    +0.000 NA
ATOM     26  N   UNL     1       4.981   4.318  17.032  0.00  0.00    +0.000 N 
ATOM     27  C   UNL     1       6.314   4.109  16.520  0.00  0.00    +0.000 C 
ENDBRANCH   2  17
TORSDOF 2
ENDMDL
MODEL 8
REMARK VINA RESULT:      -7.9      2.633      9.820
REMARK  Name = 
REMARK  5 active torsions:
REMARK  status: ('A' for Active; 'I' for Inactive)
REMARK    1  A    between atoms: C_1  and  C_2
REMARK    2  A    between atoms: C_9  and  N_10
REMARK    3  A    between atoms: C_11  and  C_13
REMARK    4  A    between atoms: C_19  and  C_20
REMARK    5  A    between atoms: N_22  and  C_23
REMARK                            x       y       z     vdW  Elec       q    Type
REMARK                         _______ _______ _______ _____ _____    ______ ____
ROOT
ATOM      1  N   UNL     1       1.657   9.263  18.154  0.00  0.00    +0.000 N 
ATOM      2  C   UNL     1       2.042   8.175  18.929  0.00  0.00    +0.000 C 
ATOM      3  O   UNL     1       1.847   8.028  20.129  0.00  0.00    +0.000 OA
ATOM      4  H   UNL     1       1.880   9.264  17.168  0.00  0.00    +0.000 HD
ENDROOT
BRANCH   1  13
ATOM      5  C   UNL     1      -2.851  15.252  20.981  0.00  0.00    +0.000 C 
ATOM      6  C   UNL     1      -2.511  13.837  20.574  0.00  0.00    +0.000 C 
ATOM      7  O   UNL     1      -3.364  12.954  20.648  0.00  0.00    +0.000 OA
ATOM      8  N   UNL     1      -1.220  13.658  20.111  0.00  0.00    +0.000 N 
ATOM      9  C   UNL     1      -0.143  14.665  20.174  0.00  0.00    +0.000 C 
ATOM     10  C   UNL     1       1.061  14.095  19.424  0.00  0.00    +0.000 C 
ATOM     11  C   UNL     1       0.659  12.667  19.259  0.00  0.00    +0.000 A 
ATOM     12  C   UNL     1       1.448  11.644  18.759  0.00  0.00    +0.000 A 
ATOM     13  C   UNL     1       0.899  10.371  18.606  0.00  0.00    +0.000 A 
ATOM     14  C   UNL     1      -0.460  10.173  18.923  0.00  0.00    +0.000 A 
ATOM     15  C   UNL     1      -1.250  11.216  19.439  0.00  0.00    +0.000 A 
ATOM     16  C   UNL     1      -0.671  12.460  19.615  0.00  0.00    +0.000 A 
ENDBRANCH   1  13
BRANCH   2  17
ATOM     17  C   UNL     1       2.739   7.069  18.229  0.00  0.00    +0.000 A 
ATOM     18  C   UNL     1       3.899   7.360  17.508  0.00  0.00    +0.000 A 
ATOM     19  N   UNL     1       4.694   6.457  16.873  0.00  0.00    +0.000 NA
ATOM     20  C   UNL     1       4.272   5.188  17.037  0.00  0.00    +0.000 A 
ATOM     21  C   UNL     1       3.145   4.771  17.735  0.00  0.00    +0.000 A 
ATOM     22  C   UNL     1       2.343   5.738  18.358  0.00  0.00    +0.000 A 
ATOM     23  C   UNL     1       3.155   3.358  17.627  0.00  0.00    +0.000 A 
ATOM     24  C   UNL     1       2.177   2.403  18.206  0.00  0.00    +0.000 C 
ATOM     25  N   UNL     1       4.198   2.910  16.914  0.00  0.00    +0.000 NA
ATOM     26  N   UNL     1       4.862   4.042  16.577  0.00  0.00    +0.000 N 
ATOM     27  C   UNL     1       6.088   3.959  15.820  0.00  0.00    +0.000 C 
ENDBRANCH   2  17
TORSDOF 2
ENDMDL
MODEL 9
REMARK VINA RESULT:      -7.9      1.303      2.497
REMARK  Name = 
REMARK  5 active torsions:
REMARK  status: ('A' for Active; 'I' for Inactive)
REMARK    1  A    between atoms: C_1  and  C_2
REMARK    2  A    between atoms: C_9  and  N_10
REMARK    3  A    between atoms: C_11  and  C_13
REMARK    4  A    between atoms: C_19  and  C_20
REMARK    5  A    between atoms: N_22  and  C_23
REMARK                            x       y       z     vdW  Elec       q    Type
REMARK                         _______ _______ _______ _____ _____    ______ ____
ROOT
ATOM      1  N   UNL     1       1.274   8.847  20.421  0.00  0.00    +0.000 N 
ATOM      2  C   UNL     1       0.131   9.083  21.176  0.00  0.00    +0.000 C 
ATOM      3  O   UNL     1      -0.669   8.245  21.571  0.00  0.00    +0.000 OA
ATOM      4  H   UNL     1       1.856   9.630  20.157  0.00  0.00    +0.000 HD
ENDROOT
BRANCH   1  13
ATOM      5  C   UNL     1       3.635   1.466  18.388  0.00  0.00    +0.000 C 
ATOM      6  C   UNL     1       2.921   2.529  19.192  0.00  0.00    +0.000 C 
ATOM      7  O   UNL     1       2.287   2.215  20.198  0.00  0.00    +0.000 OA
ATOM      8  N   UNL     1       3.073   3.818  18.716  0.00  0.00    +0.000 N 
ATOM      9  C   UNL     1       3.687   4.187  17.427  0.00  0.00    +0.000 C 
ATOM     10  C   UNL     1       3.773   5.713  17.380  0.00  0.00    +0.000 C 
ATOM     11  C   UNL     1       2.909   6.094  18.536  0.00  0.00    +0.000 A 
ATOM     12  C   UNL     1       2.517   7.378  18.880  0.00  0.00    +0.000 A 
ATOM     13  C   UNL     1       1.758   7.573  20.033  0.00  0.00    +0.000 A 
ATOM     14  C   UNL     1       1.450   6.461  20.843  0.00  0.00    +0.000 A 
ATOM     15  C   UNL     1       1.845   5.160  20.479  0.00  0.00    +0.000 A 
ATOM     16  C   UNL     1       2.565   4.990  19.311  0.00  0.00    +0.000 A 
ENDBRANCH   1  13
BRANCH   2  17
ATOM     17  C   UNL     1      -0.135  10.490  21.563  0.00  0.00    +0.000 A 
ATOM     18  C   UNL     1      -0.890  10.735  22.711  0.00  0.00    +0.000 A 
ATOM     19  N   UNL     1      -1.162  11.958  23.244  0.00  0.00    +0.000 NA
ATOM     20  C   UNL     1      -0.580  12.964  22.560  0.00  0.00    +0.000 A 
ATOM     21  C   UNL     1       0.198  12.848  21.415  0.00  0.00    +0.000 A 
ATOM     22  C   UNL     1       0.436  11.570  20.889  0.00  0.00    +0.000 A 
ATOM     23  C   UNL     1       0.583  14.175  21.103  0.00  0.00    +0.000 A 
ATOM     24  C   UNL     1       1.437  14.625  19.975  0.00  0.00    +0.000 C 
ATOM     25  N   UNL     1       0.085  15.066  21.973  0.00  0.00    +0.000 NA
ATOM     26  N   UNL     1      -0.607  14.300  22.850  0.00  0.00    +0.000 N 
ATOM     27  C   UNL     1      -1.268  14.915  23.977  0.00  0.00    +0.000 C 
ENDBRANCH   2  17
TORSDOF 2
ENDMDL
