MODEL 1
REMARK VINA RESULT:      -9.5      0.000      0.000
REMARK  Name = 
REMARK  4 active torsions:
REMARK  status: ('A' for Active; 'I' for Inactive)
REMARK    1  A    between atoms: C_7  and  C_8
REMARK    2  A    between atoms: C_13  and  C_15
REMARK    3  A    between atoms: N_20  and  C_21
REMARK    4  A    between atoms: C_21  and  C_22
REMARK                            x       y       z     vdW  Elec       q    Type
REMARK                         _______ _______ _______ _____ _____    ______ ____
ROOT
ATOM      1  C   UNL     1       3.588   5.552  18.851  0.00  0.00    +0.000 A 
ATOM      2  C   UNL     1       3.158   4.469  19.599  0.00  0.00    +0.000 A 
ATOM      3  S   UNL     1       2.074   4.996  20.833  0.00  0.00    +0.000 S 
ATOM      4  C   UNL     1       2.188   6.580  20.223  0.00  0.00    +0.000 A 
ATOM      5  N   UNL     1       1.411   7.516  20.846  0.00  0.00    +0.000 N 
ATOM      6  C   UNL     1       1.232   8.755  20.283  0.00  0.00    +0.000 C 
ATOM      7  O   UNL     1       1.652   9.166  19.208  0.00  0.00    +0.000 OA
ATOM      8  N   UNL     1       3.000   6.753  19.215  0.00  0.00    +0.000 NA
ATOM      9  H   UNL     1       0.916   7.273  21.693  0.00  0.00    +0.000 HD
ENDROOT
BRANCH   1  16
ATOM     10  O   UNL     1       8.160   4.794  12.636  0.00  0.00    +0.000 OA
ATOM     11  C   UNL     1       7.279   4.787  13.497  0.00  0.00    +0.000 C 
ATOM     12  C   UNL     1       5.949   4.097  13.289  0.00  0.00    +0.000 C 
ATOM     13  C   UNL     1       5.406   3.530  14.591  0.00  0.00    +0.000 C 
ATOM     14  C   UNL     1       5.431   4.572  15.674  0.00  0.00    +0.000 A 
ATOM     15  C   UNL     1       4.491   4.562  16.719  0.00  0.00    +0.000 A 
ATOM     16  C   UNL     1       4.558   5.507  17.755  0.00  0.00    +0.000 A 
ATOM     17  C   UNL     1       5.613   6.437  17.738  0.00  0.00    +0.000 A 
ATOM     18  C   UNL     1       6.571   6.434  16.717  0.00  0.00    +0.000 A 
ATOM     19  C   UNL     1       6.466   5.513  15.683  0.00  0.00    +0.000 A 
ATOM     20  N   UNL     1       7.407   5.514  14.650  0.00  0.00    +0.000 N 
ATOM     21  H   UNL     1       8.237   6.092  14.718  0.00  0.00    +0.000 HD
ENDBRANCH   1  16
BRANCH   6  22
ATOM     22  C   UNL     1       0.352   9.695  21.108  0.00  0.00    +0.000 A 
ATOM     23  C   UNL     1      -0.037   9.197  22.442  0.00  0.00    +0.000 A 
ATOM     24  C   UNL     1      -0.803   9.988  23.189  0.00  0.00    +0.000 A 
ATOM     25  C   UNL     1      -1.261  11.294  22.680  0.00  0.00    +0.000 A 
ATOM     26  O   UNL     1      -1.995  11.976  23.391  0.00  0.00    +0.000 OA
ATOM     27  N   UNL     1      -0.832  11.641  21.400  0.00  0.00    +0.000 N 
ATOM     28  N   UNL     1      -0.006  10.842  20.607  0.00  0.00    +0.000 NA
BRANCH  27  29
ATOM     29  C   UNL     1      -1.447  12.802  20.759  0.00  0.00    +0.000 C 
BRANCH  29  30
ATOM     30  C   UNL     1      -2.690  12.392  19.998  0.00  0.00    +0.000 A 
ATOM     31  C   UNL     1      -2.584  11.757  18.751  0.00  0.00    +0.000 A 
ATOM     32  C   UNL     1      -3.724  11.509  17.985  0.00  0.00    +0.000 A 
ATOM     33  C   UNL     1      -4.979  11.885  18.461  0.00  0.00    +0.000 A 
ATOM     34  C   UNL     1      -5.099  12.491  19.710  0.00  0.00    +0.000 A 
ATOM     35  C   UNL     1      -3.960  12.744  20.475  0.00  0.00    +0.000 A 
ENDBRANCH  29  30
ENDBRANCH  27  29
ENDBRANCH   6  22
TORSDOF 4
ENDMDL
MODEL 2
REMARK VINA RESULT:      -9.3      2.668     11.051
REMARK  Name = 
REMARK  4 active torsions:
REMARK  status: ('A' for Active; 'I' for Inactive)
REMARK    1  A    between atoms: C_7  and  C_8
REMARK    2  A    between atoms: C_13  and  C_15
REMARK    3  A    between atoms: N_20  and  C_21
REMARK    4  A    between atoms: C_21  and  C_22
REMARK                            x       y       z     vdW  Elec       q    Type
REMARK                         _______ _______ _______ _____ _____    ______ ____
ROOT
ATOM      1  C   UNL     1       0.205  10.512  19.943  0.00  0.00    +0.000 A 
ATOM      2  C   UNL     1       0.691  11.007  18.745  0.00  0.00    +0.000 A 
ATOM      3  S   UNL     1       1.862   9.923  18.089  0.00  0.00    +0.000 S 
ATOM      4  C   UNL     1       1.563   8.857  19.381  0.00  0.00    +0.000 A 
ATOM      5  N   UNL     1       2.247   7.674  19.347  0.00  0.00    +0.000 N 
ATOM      6  C   UNL     1       1.898   6.647  20.188  0.00  0.00    +0.000 C 
ATOM      7  O   UNL     1       0.972   6.606  20.989  0.00  0.00    +0.000 OA
ATOM      8  N   UNL     1       0.706   9.264  20.278  0.00  0.00    +0.000 NA
ATOM      9  H   UNL     1       2.972   7.533  18.657  0.00  0.00    +0.000 HD
ENDROOT
BRANCH   1  16
ATOM     10  O   UNL     1      -5.341  14.246  23.868  0.00  0.00    +0.000 OA
ATOM     11  C   UNL     1      -4.597  13.694  23.056  0.00  0.00    +0.000 C 
ATOM     12  C   UNL     1      -4.929  13.607  21.583  0.00  0.00    +0.000 C 
ATOM     13  C   UNL     1      -3.675  13.655  20.725  0.00  0.00    +0.000 C 
ATOM     14  C   UNL     1      -2.657  12.664  21.218  0.00  0.00    +0.000 A 
ATOM     15  C   UNL     1      -1.738  12.063  20.341  0.00  0.00    +0.000 A 
ATOM     16  C   UNL     1      -0.758  11.181  20.821  0.00  0.00    +0.000 A 
ATOM     17  C   UNL     1      -0.696  10.947  22.206  0.00  0.00    +0.000 A 
ATOM     18  C   UNL     1      -1.588  11.565  23.090  0.00  0.00    +0.000 A 
ATOM     19  C   UNL     1      -2.573  12.407  22.590  0.00  0.00    +0.000 A 
ATOM     20  N   UNL     1      -3.480  13.015  23.463  0.00  0.00    +0.000 N 
ATOM     21  H   UNL     1      -3.342  12.952  24.465  0.00  0.00    +0.000 HD
ENDBRANCH   1  16
BRANCH   6  22
ATOM     22  C   UNL     1       2.767   5.397  20.043  0.00  0.00    +0.000 A 
ATOM     23  C   UNL     1       2.245   4.179  20.694  0.00  0.00    +0.000 A 
ATOM     24  C   UNL     1       2.975   3.072  20.589  0.00  0.00    +0.000 A 
ATOM     25  C   UNL     1       4.264   3.082  19.875  0.00  0.00    +0.000 A 
ATOM     26  O   UNL     1       4.921   2.045  19.832  0.00  0.00    +0.000 OA
ATOM     27  N   UNL     1       4.648   4.300  19.315  0.00  0.00    +0.000 N 
ATOM     28  N   UNL     1       3.889   5.469  19.387  0.00  0.00    +0.000 NA
BRANCH  27  29
ATOM     29  C   UNL     1       6.014   4.425  18.810  0.00  0.00    +0.000 C 
BRANCH  29  30
ATOM     30  C   UNL     1       6.015   4.531  17.300  0.00  0.00    +0.000 A 
ATOM     31  C   UNL     1       4.988   3.944  16.545  0.00  0.00    +0.000 A 
ATOM     32  C   UNL     1       5.063   3.917  15.151  0.00  0.00    +0.000 A 
ATOM     33  C   UNL     1       6.158   4.481  14.500  0.00  0.00    +0.000 A 
ATOM     34  C   UNL     1       7.170   5.091  15.239  0.00  0.00    +0.000 A 
ATOM     35  C   UNL     1       7.100   5.116  16.632  0.00  0.00    +0.000 A 
ENDBRANCH  29  30
ENDBRANCH  27  29
ENDBRANCH   6  22
TORSDOF 4
ENDMDL
MODEL 3
REMARK VINA RESULT:      -9.2      2.759     10.120
REMARK  Name = 
REMARK  4 active torsions:
REMARK  status: ('A' for Active; 'I' for Inactive)
REMARK    1  A    between atoms: C_7  and  C_8
REMARK    2  A    between atoms: C_13  and  C_15
REMARK    3  A    between atoms: N_20  and  C_21
REMARK    4  A    between atoms: C_21  and  C_22
REMARK                            x       y       z     vdW  Elec       q    Type
REMARK                         _______ _______ _______ _____ _____    ______ ____
ROOT
ATOM      1  C   UNL     1       0.625  10.064  20.410  0.00  0.00    +0.000 A 
ATOM      2  C   UNL     1       0.397   9.345  21.570  0.00  0.00    +0.000 A 
ATOM      3  S   UNL     1       1.038   7.751  21.413  0.00  0.00    +0.000 S 
ATOM      4  C   UNL     1       1.640   8.171  19.878  0.00  0.00    +0.000 A 
ATOM      5  N   UNL     1       2.365   7.205  19.238  0.00  0.00    +0.000 N 
ATOM      6  C   UNL     1       3.104   7.516  18.124  0.00  0.00    +0.000 C 
ATOM      7  O   UNL     1       3.264   8.614  17.604  0.00  0.00    +0.000 OA
ATOM      8  N   UNL     1       1.361   9.375  19.459  0.00  0.00    +0.000 NA
ATOM      9  H   UNL     1       2.407   6.271  19.624  0.00  0.00    +0.000 HD
ENDROOT
BRANCH   1  16
ATOM     10  O   UNL     1      -0.923  17.496  18.838  0.00  0.00    +0.000 OA
ATOM     11  C   UNL     1      -0.456  16.372  19.023  0.00  0.00    +0.000 C 
ATOM     12  C   UNL     1       0.999  16.048  18.770  0.00  0.00    +0.000 C 
ATOM     13  C   UNL     1       1.512  14.995  19.739  0.00  0.00    +0.000 C 
ATOM     14  C   UNL     1       0.584  13.812  19.777  0.00  0.00    +0.000 A 
ATOM     15  C   UNL     1       1.058  12.519  20.057  0.00  0.00    +0.000 A 
ATOM     16  C   UNL     1       0.174  11.433  20.145  0.00  0.00    +0.000 A 
ATOM     17  C   UNL     1      -1.201  11.681  19.983  0.00  0.00    +0.000 A 
ATOM     18  C   UNL     1      -1.684  12.970  19.735  0.00  0.00    +0.000 A 
ATOM     19  C   UNL     1      -0.790  14.026  19.617  0.00  0.00    +0.000 A 
ATOM     20  N   UNL     1      -1.261  15.314  19.351  0.00  0.00    +0.000 N 
ATOM     21  H   UNL     1      -2.256  15.507  19.375  0.00  0.00    +0.000 HD
ENDBRANCH   1  16
BRANCH   6  22
ATOM     22  C   UNL     1       3.844   6.326  17.513  0.00  0.00    +0.000 A 
ATOM     23  C   UNL     1       4.803   6.655  16.439  0.00  0.00    +0.000 A 
ATOM     24  C   UNL     1       5.466   5.645  15.882  0.00  0.00    +0.000 A 
ATOM     25  C   UNL     1       5.222   4.255  16.311  0.00  0.00    +0.000 A 
ATOM     26  O   UNL     1       5.832   3.351  15.746  0.00  0.00    +0.000 OA
ATOM     27  N   UNL     1       4.283   4.080  17.327  0.00  0.00    +0.000 N 
ATOM     28  N   UNL     1       3.594   5.124  17.946  0.00  0.00    +0.000 NA
BRANCH  27  29
ATOM     29  C   UNL     1       3.831   2.721  17.618  0.00  0.00    +0.000 C 
BRANCH  29  30
ATOM     30  C   UNL     1       2.930   2.710  18.834  0.00  0.00    +0.000 A 
ATOM     31  C   UNL     1       1.545   2.890  18.696  0.00  0.00    +0.000 A 
ATOM     32  C   UNL     1       0.734   3.024  19.824  0.00  0.00    +0.000 A 
ATOM     33  C   UNL     1       1.296   2.971  21.098  0.00  0.00    +0.000 A 
ATOM     34  C   UNL     1       2.666   2.764  21.248  0.00  0.00    +0.000 A 
ATOM     35  C   UNL     1       3.480   2.635  20.122  0.00  0.00    +0.000 A 
ENDBRANCH  29  30
ENDBRANCH  27  29
ENDBRANCH   6  22
TORSDOF 4
ENDMDL
MODEL 4
REMARK VINA RESULT:      -9.2      3.410      9.942
REMARK  Name = 
REMARK  4 active torsions:
REMARK  status: ('A' for Active; 'I' for Inactive)
REMARK    1  A    between atoms: C_7  and  C_8
REMARK    2  A    between atoms: C_13  and  C_15
REMARK    3  A    between atoms: N_20  and  C_21
REMARK    4  A    between atoms: C_21  and  C_22
REMARK                            x       y       z     vdW  Elec       q    Type
REMARK                         _______ _______ _______ _____ _____    ______ ____
ROOT
ATOM      1  C   UNL     1       0.376  11.255  21.135  0.00  0.00    +0.000 A 
ATOM      2  C   UNL     1      -0.248  11.046  22.353  0.00  0.00    +0.000 A 
ATOM      3  S   UNL     1      -0.278   9.361  22.721  0.00  0.00    +0.000 S 
ATOM      4  C   UNL     1       0.611   9.060  21.301  0.00  0.00    +0.000 A 
ATOM      5  N   UNL     1       0.961   7.758  21.082  0.00  0.00    +0.000 N 
ATOM      6  C   UNL     1       1.883   7.440  20.116  0.00  0.00    +0.000 C 
ATOM      7  O   UNL     1       2.522   8.201  19.400  0.00  0.00    +0.000 OA
ATOM      8  N   UNL     1       0.880  10.100  20.558  0.00  0.00    +0.000 NA
ATOM      9  H   UNL     1       0.585   7.031  21.676  0.00  0.00    +0.000 HD
ENDROOT
BRANCH   1  16
ATOM     10  O   UNL     1       2.075  17.880  17.485  0.00  0.00    +0.000 OA
ATOM     11  C   UNL     1       2.031  16.772  18.020  0.00  0.00    +0.000 C 
ATOM     12  C   UNL     1       3.227  15.848  18.068  0.00  0.00    +0.000 C 
ATOM     13  C   UNL     1       3.237  15.015  19.340  0.00  0.00    +0.000 C 
ATOM     14  C   UNL     1       1.902  14.356  19.552  0.00  0.00    +0.000 A 
ATOM     15  C   UNL     1       1.793  13.125  20.222  0.00  0.00    +0.000 A 
ATOM     16  C   UNL     1       0.537  12.547  20.463  0.00  0.00    +0.000 A 
ATOM     17  C   UNL     1      -0.608  13.250  20.050  0.00  0.00    +0.000 A 
ATOM     18  C   UNL     1      -0.510  14.491  19.409  0.00  0.00    +0.000 A 
ATOM     19  C   UNL     1       0.744  15.029  19.149  0.00  0.00    +0.000 A 
ATOM     20  N   UNL     1       0.853  16.259  18.494  0.00  0.00    +0.000 N 
ATOM     21  H   UNL     1       0.026  16.821  18.326  0.00  0.00    +0.000 HD
ENDBRANCH   1  16
BRANCH   6  22
ATOM     22  C   UNL     1       2.154   5.941  19.980  0.00  0.00    +0.000 A 
ATOM     23  C   UNL     1       1.050   5.053  20.393  0.00  0.00    +0.000 A 
ATOM     24  C   UNL     1       1.250   3.742  20.289  0.00  0.00    +0.000 A 
ATOM     25  C   UNL     1       2.538   3.212  19.806  0.00  0.00    +0.000 A 
ATOM     26  O   UNL     1       2.691   1.994  19.758  0.00  0.00    +0.000 OA
ATOM     27  N   UNL     1       3.502   4.157  19.459  0.00  0.00    +0.000 N 
ATOM     28  N   UNL     1       3.308   5.538  19.533  0.00  0.00    +0.000 NA
BRANCH  27  29
ATOM     29  C   UNL     1       4.865   3.690  19.208  0.00  0.00    +0.000 C 
BRANCH  29  30
ATOM     30  C   UNL     1       5.380   4.237  17.894  0.00  0.00    +0.000 A 
ATOM     31  C   UNL     1       4.756   3.893  16.685  0.00  0.00    +0.000 A 
ATOM     32  C   UNL     1       5.314   4.279  15.466  0.00  0.00    +0.000 A 
ATOM     33  C   UNL     1       6.496   5.018  15.443  0.00  0.00    +0.000 A 
ATOM     34  C   UNL     1       7.109   5.390  16.638  0.00  0.00    +0.000 A 
ATOM     35  C   UNL     1       6.555   5.001  17.858  0.00  0.00    +0.000 A 
ENDBRANCH  29  30
ENDBRANCH  27  29
ENDBRANCH   6  22
TORSDOF 4
ENDMDL
MODEL 5
REMARK VINA RESULT:      -9.0      3.262     10.507
REMARK  Name = 
REMARK  4 active torsions:
REMARK  status: ('A' for Active; 'I' for Inactive)
REMARK    1  A    between atoms: C_7  and  C_8
REMARK    2  A    between atoms: C_13  and  C_15
REMARK    3  A    between atoms: N_20  and  C_21
REMARK    4  A    between atoms: C_21  and  C_22
REMARK                            x       y       z     vdW  Elec       q    Type
REMARK                         _______ _______ _______ _____ _____    ______ ____
ROOT
ATOM      1  C   UNL     1      -0.098  11.251  21.253  0.00  0.00    +0.000 A 
ATOM      2  C   UNL     1      -0.432  10.994  22.572  0.00  0.00    +0.000 A 
ATOM      3  S   UNL     1      -0.111   9.342  22.951  0.00  0.00    +0.000 S 
ATOM      4  C   UNL     1       0.524   9.131  21.386  0.00  0.00    +0.000 A 
ATOM      5  N   UNL     1       1.035   7.894  21.112  0.00  0.00    +0.000 N 
ATOM      6  C   UNL     1       1.792   7.690  19.985  0.00  0.00    +0.000 C 
ATOM      7  O   UNL     1       2.147   8.515  19.152  0.00  0.00    +0.000 OA
ATOM      8  N   UNL     1       0.469  10.170  20.597  0.00  0.00    +0.000 NA
ATOM      9  H   UNL     1       0.907   7.141  21.774  0.00  0.00    +0.000 HD
ENDROOT
BRANCH   1  16
ATOM     10  O   UNL     1      -1.393  18.303  18.303  0.00  0.00    +0.000 OA
ATOM     11  C   UNL     1      -1.254  17.281  18.977  0.00  0.00    +0.000 C 
ATOM     12  C   UNL     1      -1.533  17.247  20.463  0.00  0.00    +0.000 C 
ATOM     13  C   UNL     1      -2.069  15.892  20.898  0.00  0.00    +0.000 C 
ATOM     14  C   UNL     1      -1.194  14.785  20.379  0.00  0.00    +0.000 A 
ATOM     15  C   UNL     1      -1.061  13.571  21.075  0.00  0.00    +0.000 A 
ATOM     16  C   UNL     1      -0.285  12.524  20.553  0.00  0.00    +0.000 A 
ATOM     17  C   UNL     1       0.322  12.710  19.298  0.00  0.00    +0.000 A 
ATOM     18  C   UNL     1       0.170  13.904  18.585  0.00  0.00    +0.000 A 
ATOM     19  C   UNL     1      -0.573  14.941  19.135  0.00  0.00    +0.000 A 
ATOM     20  N   UNL     1      -0.716  16.144  18.438  0.00  0.00    +0.000 N 
ATOM     21  H   UNL     1      -0.394  16.217  17.479  0.00  0.00    +0.000 HD
ENDBRANCH   1  16
BRANCH   6  22
ATOM     22  C   UNL     1       2.277   6.250  19.809  0.00  0.00    +0.000 A 
ATOM     23  C   UNL     1       1.749   5.277  20.786  0.00  0.00    +0.000 A 
ATOM     24  C   UNL     1       2.149   4.014  20.664  0.00  0.00    +0.000 A 
ATOM     25  C   UNL     1       3.102   3.622  19.610  0.00  0.00    +0.000 A 
ATOM     26  O   UNL     1       3.470   2.452  19.556  0.00  0.00    +0.000 OA
ATOM     27  N   UNL     1       3.532   4.640  18.760  0.00  0.00    +0.000 N 
ATOM     28  N   UNL     1       3.108   5.967  18.849  0.00  0.00    +0.000 NA
BRANCH  27  29
ATOM     29  C   UNL     1       4.650   4.359  17.861  0.00  0.00    +0.000 C 
BRANCH  29  30
ATOM     30  C   UNL     1       5.764   5.362  18.069  0.00  0.00    +0.000 A 
ATOM     31  C   UNL     1       5.950   6.418  17.163  0.00  0.00    +0.000 A 
ATOM     32  C   UNL     1       7.061   7.257  17.274  0.00  0.00    +0.000 A 
ATOM     33  C   UNL     1       7.990   7.053  18.292  0.00  0.00    +0.000 A 
ATOM     34  C   UNL     1       7.800   6.026  19.214  0.00  0.00    +0.000 A 
ATOM     35  C   UNL     1       6.694   5.183  19.103  0.00  0.00    +0.000 A 
ENDBRANCH  29  30
ENDBRANCH  27  29
ENDBRANCH   6  22
TORSDOF 4
ENDMDL
MODEL 6
REMARK VINA RESULT:      -9.0      3.311     10.985
REMARK  Name = 
REMARK  4 active torsions:
REMARK  status: ('A' for Active; 'I' for Inactive)
REMARK    1  A    between atoms: C_7  and  C_8
REMARK    2  A    between atoms: C_13  and  C_15
REMARK    3  A    between atoms: N_20  and  C_21
REMARK    4  A    between atoms: C_21  and  C_22
REMARK                            x       y       z     vdW  Elec       q    Type
REMARK                         _______ _______ _______ _____ _____    ______ ____
ROOT
ATOM      1  C   UNL     1       0.645  10.943  20.115  0.00  0.00    +0.000 A 
ATOM      2  C   UNL     1       0.875  11.329  18.806  0.00  0.00    +0.000 A 
ATOM      3  S   UNL     1       1.700  10.074  17.956  0.00  0.00    +0.000 S 
ATOM      4  C   UNL     1       1.601   9.100  19.347  0.00  0.00    +0.000 A 
ATOM      5  N   UNL     1       2.099   7.833  19.225  0.00  0.00    +0.000 N 
ATOM      6  C   UNL     1       1.845   6.891  20.189  0.00  0.00    +0.000 C 
ATOM      7  O   UNL     1       1.149   7.002  21.192  0.00  0.00    +0.000 OA
ATOM      8  N   UNL     1       1.052   9.648  20.398  0.00  0.00    +0.000 NA
ATOM      9  H   UNL     1       2.606   7.573  18.390  0.00  0.00    +0.000 HD
ENDROOT
BRANCH   1  16
ATOM     10  O   UNL     1      -2.343  15.987  25.187  0.00  0.00    +0.000 OA
ATOM     11  C   UNL     1      -1.807  15.379  24.260  0.00  0.00    +0.000 C 
ATOM     12  C   UNL     1      -1.176  16.091  23.084  0.00  0.00    +0.000 C 
ATOM     13  C   UNL     1       0.027  15.328  22.551  0.00  0.00    +0.000 C 
ATOM     14  C   UNL     1      -0.321  13.883  22.322  0.00  0.00    +0.000 A 
ATOM     15  C   UNL     1       0.317  13.127  21.324  0.00  0.00    +0.000 A 
ATOM     16  C   UNL     1       0.024  11.765  21.156  0.00  0.00    +0.000 A 
ATOM     17  C   UNL     1      -0.896  11.170  22.038  0.00  0.00    +0.000 A 
ATOM     18  C   UNL     1      -1.513  11.908  23.054  0.00  0.00    +0.000 A 
ATOM     19  C   UNL     1      -1.236  13.263  23.181  0.00  0.00    +0.000 A 
ATOM     20  N   UNL     1      -1.861  14.014  24.181  0.00  0.00    +0.000 N 
ATOM     21  H   UNL     1      -2.412  13.550  24.895  0.00  0.00    +0.000 HD
ENDBRANCH   1  16
BRANCH   6  22
ATOM     22  C   UNL     1       2.486   5.529  19.918  0.00  0.00    +0.000 A 
ATOM     23  C   UNL     1       2.251   4.498  20.948  0.00  0.00    +0.000 A 
ATOM     24  C   UNL     1       2.794   3.300  20.746  0.00  0.00    +0.000 A 
ATOM     25  C   UNL     1       3.618   3.036  19.553  0.00  0.00    +0.000 A 
ATOM     26  O   UNL     1       4.127   1.926  19.424  0.00  0.00    +0.000 OA
ATOM     27  N   UNL     1       3.771   4.099  18.663  0.00  0.00    +0.000 N 
ATOM     28  N   UNL     1       3.190   5.356  18.837  0.00  0.00    +0.000 NA
BRANCH  27  29
ATOM     29  C   UNL     1       4.765   3.968  17.599  0.00  0.00    +0.000 C 
BRANCH  29  30
ATOM     30  C   UNL     1       5.926   4.909  17.837  0.00  0.00    +0.000 A 
ATOM     31  C   UNL     1       6.639   4.868  19.045  0.00  0.00    +0.000 A 
ATOM     32  C   UNL     1       7.614   5.828  19.324  0.00  0.00    +0.000 A 
ATOM     33  C   UNL     1       7.889   6.831  18.396  0.00  0.00    +0.000 A 
ATOM     34  C   UNL     1       7.207   6.865  17.182  0.00  0.00    +0.000 A 
ATOM     35  C   UNL     1       6.229   5.909  16.904  0.00  0.00    +0.000 A 
ENDBRANCH  29  30
ENDBRANCH  27  29
ENDBRANCH   6  22
TORSDOF 4
ENDMDL
MODEL 7
REMARK VINA RESULT:      -9.0      2.860     10.945
REMARK  Name = 
REMARK  4 active torsions:
REMARK  status: ('A' for Active; 'I' for Inactive)
REMARK    1  A    between atoms: C_7  and  C_8
REMARK    2  A    between atoms: C_13  and  C_15
REMARK    3  A    between atoms: N_20  and  C_21
REMARK    4  A    between atoms: C_21  and  C_22
REMARK                            x       y       z     vdW  Elec       q    Type
REMARK                         _______ _______ _______ _____ _____    ______ ____
ROOT
ATOM      1  C   UNL     1       0.312  10.486  19.910  0.00  0.00    +0.000 A 
ATOM      2  C   UNL     1       0.805  10.993  18.720  0.00  0.00    +0.000 A 
ATOM      3  S   UNL     1       1.931   9.884  18.027  0.00  0.00    +0.000 S 
ATOM      4  C   UNL     1       1.605   8.798  19.296  0.00  0.00    +0.000 A 
ATOM      5  N   UNL     1       2.246   7.593  19.227  0.00  0.00    +0.000 N 
ATOM      6  C   UNL     1       1.867   6.559  20.046  0.00  0.00    +0.000 C 
ATOM      7  O   UNL     1       0.947   6.531  20.855  0.00  0.00    +0.000 OA
ATOM      8  N   UNL     1       0.771   9.213  20.210  0.00  0.00    +0.000 NA
ATOM      9  H   UNL     1       2.960   7.443  18.527  0.00  0.00    +0.000 HD
ENDROOT
BRANCH   1  16
ATOM     10  O   UNL     1      -5.112  14.237  23.986  0.00  0.00    +0.000 OA
ATOM     11  C   UNL     1      -4.399  13.670  23.157  0.00  0.00    +0.000 C 
ATOM     12  C   UNL     1      -4.813  13.505  21.711  0.00  0.00    +0.000 C 
ATOM     13  C   UNL     1      -3.613  13.549  20.779  0.00  0.00    +0.000 C 
ATOM     14  C   UNL     1      -2.538  12.611  21.255  0.00  0.00    +0.000 A 
ATOM     15  C   UNL     1      -1.652  11.997  20.352  0.00  0.00    +0.000 A 
ATOM     16  C   UNL     1      -0.618  11.167  20.813  0.00  0.00    +0.000 A 
ATOM     17  C   UNL     1      -0.469  11.000  22.201  0.00  0.00    +0.000 A 
ATOM     18  C   UNL     1      -1.327  11.633  23.107  0.00  0.00    +0.000 A 
ATOM     19  C   UNL     1      -2.366  12.422  22.630  0.00  0.00    +0.000 A 
ATOM     20  N   UNL     1      -3.240  13.044  23.527  0.00  0.00    +0.000 N 
ATOM     21  H   UNL     1      -3.041  13.032  24.521  0.00  0.00    +0.000 HD
ENDBRANCH   1  16
BRANCH   6  22
ATOM     22  C   UNL     1       2.690   5.283  19.863  0.00  0.00    +0.000 A 
ATOM     23  C   UNL     1       2.602   4.304  20.966  0.00  0.00    +0.000 A 
ATOM     24  C   UNL     1       3.305   3.181  20.841  0.00  0.00    +0.000 A 
ATOM     25  C   UNL     1       4.155   2.950  19.660  0.00  0.00    +0.000 A 
ATOM     26  O   UNL     1       4.813   1.914  19.603  0.00  0.00    +0.000 OA
ATOM     27  N   UNL     1       4.158   3.958  18.696  0.00  0.00    +0.000 N 
ATOM     28  N   UNL     1       3.409   5.133  18.789  0.00  0.00    +0.000 NA
BRANCH  27  29
ATOM     29  C   UNL     1       5.158   3.890  17.632  0.00  0.00    +0.000 C 
BRANCH  29  30
ATOM     30  C   UNL     1       6.166   5.009  17.779  0.00  0.00    +0.000 A 
ATOM     31  C   UNL     1       7.099   4.995  18.828  0.00  0.00    +0.000 A 
ATOM     32  C   UNL     1       7.931   6.094  19.048  0.00  0.00    +0.000 A 
ATOM     33  C   UNL     1       7.846   7.212  18.219  0.00  0.00    +0.000 A 
ATOM     34  C   UNL     1       6.943   7.225  17.158  0.00  0.00    +0.000 A 
ATOM     35  C   UNL     1       6.107   6.130  16.939  0.00  0.00    +0.000 A 
ENDBRANCH  29  30
ENDBRANCH  27  29
ENDBRANCH   6  22
TORSDOF 4
ENDMDL
MODEL 8
REMARK VINA RESULT:      -9.0      3.437      9.978
REMARK  Name = 
REMARK  4 active torsions:
REMARK  status: ('A' for Active; 'I' for Inactive)
REMARK    1  A    between atoms: C_7  and  C_8
REMARK    2  A    between atoms: C_13  and  C_15
REMARK    3  A    between atoms: N_20  and  C_21
REMARK    4  A    between atoms: C_21  and  C_22
REMARK                            x       y       z     vdW  Elec       q    Type
REMARK                         _______ _______ _______ _____ _____    ______ ____
ROOT
ATOM      1  C   UNL     1       0.401  11.415  21.044  0.00  0.00    +0.000 A 
ATOM      2  C   UNL     1      -0.156  11.152  22.284  0.00  0.00    +0.000 A 
ATOM      3  S   UNL     1      -0.145   9.455  22.589  0.00  0.00    +0.000 S 
ATOM      4  C   UNL     1       0.672   9.219  21.115  0.00  0.00    +0.000 A 
ATOM      5  N   UNL     1       1.027   7.931  20.829  0.00  0.00    +0.000 N 
ATOM      6  C   UNL     1       1.901   7.663  19.806  0.00  0.00    +0.000 C 
ATOM      7  O   UNL     1       2.493   8.459  19.087  0.00  0.00    +0.000 OA
ATOM      8  N   UNL     1       0.890  10.290  20.399  0.00  0.00    +0.000 NA
ATOM      9  H   UNL     1       0.692   7.177  21.414  0.00  0.00    +0.000 HD
ENDROOT
BRANCH   1  16
ATOM     10  O   UNL     1       1.798  18.160  17.486  0.00  0.00    +0.000 OA
ATOM     11  C   UNL     1       1.791  17.028  17.972  0.00  0.00    +0.000 C 
ATOM     12  C   UNL     1       2.949  16.069  17.807  0.00  0.00    +0.000 C 
ATOM     13  C   UNL     1       3.110  15.175  19.026  0.00  0.00    +0.000 C 
ATOM     14  C   UNL     1       1.796  14.544  19.398  0.00  0.00    +0.000 A 
ATOM     15  C   UNL     1       1.740  13.286  20.022  0.00  0.00    +0.000 A 
ATOM     16  C   UNL     1       0.511  12.733  20.414  0.00  0.00    +0.000 A 
ATOM     17  C   UNL     1      -0.656  13.489  20.202  0.00  0.00    +0.000 A 
ATOM     18  C   UNL     1      -0.605  14.755  19.609  0.00  0.00    +0.000 A 
ATOM     19  C   UNL     1       0.617  15.270  19.196  0.00  0.00    +0.000 A 
ATOM     20  N   UNL     1       0.675  16.527  18.587  0.00  0.00    +0.000 N 
ATOM     21  H   UNL     1      -0.146  17.120  18.565  0.00  0.00    +0.000 HD
ENDBRANCH   1  16
BRANCH   6  22
ATOM     22  C   UNL     1       2.184   6.174  19.599  0.00  0.00    +0.000 A 
ATOM     23  C   UNL     1       1.547   5.263  20.571  0.00  0.00    +0.000 A 
ATOM     24  C   UNL     1       1.771   3.960  20.423  0.00  0.00    +0.000 A 
ATOM     25  C   UNL     1       2.646   3.463  19.346  0.00  0.00    +0.000 A 
ATOM     26  O   UNL     1       2.852   2.255  19.268  0.00  0.00    +0.000 OA
ATOM     27  N   UNL     1       3.194   4.428  18.503  0.00  0.00    +0.000 N 
ATOM     28  N   UNL     1       2.954   5.798  18.620  0.00  0.00    +0.000 NA
BRANCH  27  29
ATOM     29  C   UNL     1       4.249   4.015  17.579  0.00  0.00    +0.000 C 
BRANCH  29  30
ATOM     30  C   UNL     1       5.498   4.843  17.794  0.00  0.00    +0.000 A 
ATOM     31  C   UNL     1       6.147   4.843  19.038  0.00  0.00    +0.000 A 
ATOM     32  C   UNL     1       7.211   5.713  19.281  0.00  0.00    +0.000 A 
ATOM     33  C   UNL     1       7.640   6.585  18.282  0.00  0.00    +0.000 A 
ATOM     34  C   UNL     1       7.022   6.575  17.034  0.00  0.00    +0.000 A 
ATOM     35  C   UNL     1       5.955   5.709  16.790  0.00  0.00    +0.000 A 
ENDBRANCH  29  30
ENDBRANCH  27  29
ENDBRANCH   6  22
TORSDOF 4
ENDMDL
MODEL 9
REMARK VINA RESULT:      -9.0      3.228     10.909
REMARK  Name = 
REMARK  4 active torsions:
REMARK  status: ('A' for Active; 'I' for Inactive)
REMARK    1  A    between atoms: C_7  and  C_8
REMARK    2  A    between atoms: C_13  and  C_15
REMARK    3  A    between atoms: N_20  and  C_21
REMARK    4  A    between atoms: C_21  and  C_22
REMARK                            x       y       z     vdW  Elec       q    Type
REMARK                         _______ _______ _______ _____ _____    ______ ____
ROOT
ATOM      1  C   UNL     1       0.565  11.177  19.932  0.00  0.00    +0.000 A 
ATOM      2  C   UNL     1       0.864  11.509  18.622  0.00  0.00    +0.000 A 
ATOM      3  S   UNL     1       1.720  10.217  17.865  0.00  0.00    +0.000 S 
ATOM      4  C   UNL     1       1.544   9.299  19.287  0.00  0.00    +0.000 A 
ATOM      5  N   UNL     1       2.039   8.026  19.240  0.00  0.00    +0.000 N 
ATOM      6  C   UNL     1       1.729   7.124  20.226  0.00  0.00    +0.000 C 
ATOM      7  O   UNL     1       0.985   7.279  21.187  0.00  0.00    +0.000 OA
ATOM      8  N   UNL     1       0.948   9.892  20.286  0.00  0.00    +0.000 NA
ATOM      9  H   UNL     1       2.585   7.730  18.442  0.00  0.00    +0.000 HD
ENDROOT
BRANCH   1  16
ATOM     10  O   UNL     1      -3.543  15.113  25.199  0.00  0.00    +0.000 OA
ATOM     11  C   UNL     1      -3.041  14.311  24.410  0.00  0.00    +0.000 C 
ATOM     12  C   UNL     1      -3.575  12.907  24.232  0.00  0.00    +0.000 C 
ATOM     13  C   UNL     1      -3.405  12.423  22.801  0.00  0.00    +0.000 C 
ATOM     14  C   UNL     1      -1.992  12.641  22.332  0.00  0.00    +0.000 A 
ATOM     15  C   UNL     1      -1.401  11.796  21.378  0.00  0.00    +0.000 A 
ATOM     16  C   UNL     1      -0.101  12.042  20.908  0.00  0.00    +0.000 A 
ATOM     17  C   UNL     1       0.575  13.178  21.389  0.00  0.00    +0.000 A 
ATOM     18  C   UNL     1      -0.019  14.041  22.316  0.00  0.00    +0.000 A 
ATOM     19  C   UNL     1      -1.292  13.760  22.796  0.00  0.00    +0.000 A 
ATOM     20  N   UNL     1      -1.887  14.607  23.736  0.00  0.00    +0.000 N 
ATOM     21  H   UNL     1      -1.452  15.492  23.970  0.00  0.00    +0.000 HD
ENDBRANCH   1  16
BRANCH   6  22
ATOM     22  C   UNL     1       2.372   5.749  20.041  0.00  0.00    +0.000 A 
ATOM     23  C   UNL     1       2.042   4.746  21.073  0.00  0.00    +0.000 A 
ATOM     24  C   UNL     1       2.584   3.538  20.946  0.00  0.00    +0.000 A 
ATOM     25  C   UNL     1       3.499   3.236  19.830  0.00  0.00    +0.000 A 
ATOM     26  O   UNL     1       4.002   2.117  19.771  0.00  0.00    +0.000 OA
ATOM     27  N   UNL     1       3.737   4.274  18.930  0.00  0.00    +0.000 N 
ATOM     28  N   UNL     1       3.160   5.542  19.026  0.00  0.00    +0.000 NA
BRANCH  27  29
ATOM     29  C   UNL     1       4.812   4.105  17.954  0.00  0.00    +0.000 C 
BRANCH  29  30
ATOM     30  C   UNL     1       5.838   5.208  18.099  0.00  0.00    +0.000 A 
ATOM     31  C   UNL     1       5.894   6.256  17.166  0.00  0.00    +0.000 A 
ATOM     32  C   UNL     1       6.927   7.193  17.216  0.00  0.00    +0.000 A 
ATOM     33  C   UNL     1       7.909   7.096  18.201  0.00  0.00    +0.000 A 
ATOM     34  C   UNL     1       7.848   6.077  19.149  0.00  0.00    +0.000 A 
ATOM     35  C   UNL     1       6.818   5.137  19.098  0.00  0.00    +0.000 A 
ENDBRANCH  29  30
ENDBRANCH  27  29
ENDBRANCH   6  22
TORSDOF 4
ENDMDL
