MODEL 1
REMARK VINA RESULT:      -8.6      0.000      0.000
REMARK  Name = 
REMARK  4 active torsions:
REMARK  status: ('A' for Active; 'I' for Inactive)
REMARK    1  A    between atoms: C_1  and  C_2
REMARK    2  A    between atoms: C_5  and  C_6
REMARK    3  A    between atoms: C_10  and  C_12
REMARK    4  A    between atoms: C_18  and  C_19
REMARK                            x       y       z     vdW  Elec       q    Type
REMARK                         _______ _______ _______ _____ _____    ______ ____
ROOT
ATOM      1  C   UNL     1       5.633   5.500  15.307  0.00  0.00    +0.000 C 
ATOM      2  C   UNL     1       6.723   5.767  16.361  0.00  0.00    +0.000 C 
ATOM      3  C   UNL     1       6.822   4.691  17.442  0.00  0.00    +0.000 C 
ATOM      4  N   UNL     1       5.501   4.358  17.968  0.00  0.00    +0.000 N 
ATOM      5  C   UNL     1       5.135   4.847  19.240  0.00  0.00    +0.000 C 
ATOM      6  O   UNL     1       5.869   5.607  19.872  0.00  0.00    +0.000 OA
ATOM      7  C   UNL     1       4.631   3.795  16.938  0.00  0.00    +0.000 C 
ATOM      8  C   UNL     1       4.348   4.878  15.889  0.00  0.00    +0.000 C 
ENDROOT
BRANCH   5   9
ATOM      9  C   UNL     1       3.843   4.443  19.887  0.00  0.00    +0.000 A 
ATOM     10  C   UNL     1       3.769   3.134  20.389  0.00  0.00    +0.000 A 
ATOM     11  C   UNL     1       2.632   2.682  21.043  0.00  0.00    +0.000 A 
ATOM     12  F   UNL     1       2.625   1.455  21.577  0.00  0.00    +0.000 F 
ATOM     13  C   UNL     1       1.518   3.487  21.159  0.00  0.00    +0.000 A 
ATOM     14  C   UNL     1       1.541   4.759  20.586  0.00  0.00    +0.000 A 
ATOM     15  C   UNL     1       2.683   5.276  19.912  0.00  0.00    +0.000 A 
BRANCH  15  16
ATOM     16  C   UNL     1       2.545   6.616  19.262  0.00  0.00    +0.000 A 
ATOM     17  C   UNL     1       3.098   6.921  18.011  0.00  0.00    +0.000 A 
ATOM     18  C   UNL     1       2.917   8.176  17.411  0.00  0.00    +0.000 A 
ATOM     19  C   UNL     1       2.220   9.181  18.072  0.00  0.00    +0.000 A 
ATOM     20  C   UNL     1       1.695   8.932  19.332  0.00  0.00    +0.000 A 
ATOM     21  C   UNL     1       1.847   7.665  19.910  0.00  0.00    +0.000 A 
ENDBRANCH  15  16
ENDBRANCH   5   9
BRANCH   1  26
ATOM     22  C   UNL     1       6.300   2.379  11.508  0.00  0.00    +0.000 C 
ATOM     23  C   UNL     1       6.481   3.446  12.509  0.00  0.00    +0.000 A 
ATOM     24  N   UNL     1       7.472   4.342  12.426  0.00  0.00    +0.000 NA
ATOM     25  O   UNL     1       7.242   5.172  13.522  0.00  0.00    +0.000 OA
ATOM     26  C   UNL     1       6.124   4.696  14.149  0.00  0.00    +0.000 A 
ATOM     27  N   UNL     1       5.622   3.631  13.565  0.00  0.00    +0.000 NA
ENDBRANCH   1  26
TORSDOF 3
ENDMDL
MODEL 2
REMARK VINA RESULT:      -7.3      0.777      1.275
REMARK  Name = 
REMARK  4 active torsions:
REMARK  status: ('A' for Active; 'I' for Inactive)
REMARK    1  A    between atoms: C_1  and  C_2
REMARK    2  A    between atoms: C_5  and  C_6
REMARK    3  A    between atoms: C_10  and  C_12
REMARK    4  A    between atoms: C_18  and  C_19
REMARK                            x       y       z     vdW  Elec       q    Type
REMARK                         _______ _______ _______ _____ _____    ______ ____
ROOT
ATOM      1  C   UNL     1       5.361   5.302  15.083  0.00  0.00    +0.000 C 
ATOM      2  C   UNL     1       6.560   5.604  16.000  0.00  0.00    +0.000 C 
ATOM      3  C   UNL     1       6.794   4.555  17.087  0.00  0.00    +0.000 C 
ATOM      4  N   UNL     1       5.545   4.224  17.767  0.00  0.00    +0.000 N 
ATOM      5  C   UNL     1       5.320   4.740  19.061  0.00  0.00    +0.000 C 
ATOM      6  O   UNL     1       6.113   5.520  19.588  0.00  0.00    +0.000 OA
ATOM      7  C   UNL     1       4.570   3.628  16.856  0.00  0.00    +0.000 C 
ATOM      8  C   UNL     1       4.158   4.683  15.822  0.00  0.00    +0.000 C 
ENDROOT
BRANCH   5   9
ATOM      9  C   UNL     1       4.115   4.340  19.860  0.00  0.00    +0.000 A 
ATOM     10  C   UNL     1       4.120   3.048  20.410  0.00  0.00    +0.000 A 
ATOM     11  C   UNL     1       3.071   2.604  21.201  0.00  0.00    +0.000 A 
ATOM     12  F   UNL     1       3.145   1.396  21.773  0.00  0.00    +0.000 F 
ATOM     13  C   UNL     1       1.962   3.396  21.413  0.00  0.00    +0.000 A 
ATOM     14  C   UNL     1       1.899   4.647  20.798  0.00  0.00    +0.000 A 
ATOM     15  C   UNL     1       2.950   5.156  19.986  0.00  0.00    +0.000 A 
BRANCH  15  16
ATOM     16  C   UNL     1       2.717   6.471  19.310  0.00  0.00    +0.000 A 
ATOM     17  C   UNL     1       1.992   7.516  19.899  0.00  0.00    +0.000 A 
ATOM     18  C   UNL     1       1.825   8.751  19.255  0.00  0.00    +0.000 A 
ATOM     19  C   UNL     1       2.336   8.957  17.978  0.00  0.00    +0.000 A 
ATOM     20  C   UNL     1       3.023   7.931  17.344  0.00  0.00    +0.000 A 
ATOM     21  C   UNL     1       3.218   6.713  18.008  0.00  0.00    +0.000 A 
ENDBRANCH  15  16
ENDBRANCH   5   9
BRANCH   1  26
ATOM     22  C   UNL     1       7.542   2.544  11.583  0.00  0.00    +0.000 C 
ATOM     23  C   UNL     1       6.549   3.272  12.394  0.00  0.00    +0.000 A 
ATOM     24  N   UNL     1       5.232   3.145  12.194  0.00  0.00    +0.000 NA
ATOM     25  O   UNL     1       4.680   3.952  13.187  0.00  0.00    +0.000 OA
ATOM     26  C   UNL     1       5.726   4.475  13.896  0.00  0.00    +0.000 A 
ATOM     27  N   UNL     1       6.898   4.090  13.442  0.00  0.00    +0.000 NA
ENDBRANCH   1  26
TORSDOF 3
ENDMDL
MODEL 3
REMARK VINA RESULT:      -7.1     10.767     12.544
REMARK  Name = 
REMARK  4 active torsions:
REMARK  status: ('A' for Active; 'I' for Inactive)
REMARK    1  A    between atoms: C_1  and  C_2
REMARK    2  A    between atoms: C_5  and  C_6
REMARK    3  A    between atoms: C_10  and  C_12
REMARK    4  A    between atoms: C_18  and  C_19
REMARK                            x       y       z     vdW  Elec       q    Type
REMARK                         _______ _______ _______ _____ _____    ______ ____
ROOT
ATOM      1  C   UNL     1       5.943  16.180  20.224  0.00  0.00    +0.000 C 
ATOM      2  C   UNL     1       6.814  17.398  19.865  0.00  0.00    +0.000 C 
ATOM      3  C   UNL     1       7.614  17.234  18.573  0.00  0.00    +0.000 C 
ATOM      4  N   UNL     1       8.291  15.941  18.541  0.00  0.00    +0.000 N 
ATOM      5  C   UNL     1       9.682  15.897  18.779  0.00  0.00    +0.000 C 
ATOM      6  O   UNL     1      10.312  16.908  19.089  0.00  0.00    +0.000 OA
ATOM      7  C   UNL     1       7.343  14.829  18.555  0.00  0.00    +0.000 C 
ATOM      8  C   UNL     1       6.609  14.827  19.902  0.00  0.00    +0.000 C 
ENDROOT
BRANCH   5   9
ATOM      9  C   UNL     1      10.455  14.619  18.642  0.00  0.00    +0.000 A 
ATOM     10  C   UNL     1      10.993  14.337  17.376  0.00  0.00    +0.000 A 
ATOM     11  C   UNL     1      11.760  13.202  17.162  0.00  0.00    +0.000 A 
ATOM     12  F   UNL     1      12.321  13.005  15.962  0.00  0.00    +0.000 F 
ATOM     13  C   UNL     1      11.960  12.284  18.171  0.00  0.00    +0.000 A 
ATOM     14  C   UNL     1      11.357  12.502  19.411  0.00  0.00    +0.000 A 
ATOM     15  C   UNL     1      10.568  13.653  19.688  0.00  0.00    +0.000 A 
BRANCH  15  16
ATOM     16  C   UNL     1       9.902  13.720  21.026  0.00  0.00    +0.000 A 
ATOM     17  C   UNL     1      10.004  14.829  21.877  0.00  0.00    +0.000 A 
ATOM     18  C   UNL     1       9.335  14.876  23.110  0.00  0.00    +0.000 A 
ATOM     19  C   UNL     1       8.585  13.791  23.548  0.00  0.00    +0.000 A 
ATOM     20  C   UNL     1       8.495  12.657  22.752  0.00  0.00    +0.000 A 
ATOM     21  C   UNL     1       9.135  12.631  21.506  0.00  0.00    +0.000 A 
ENDBRANCH  15  16
ENDBRANCH   5   9
BRANCH   1  26
ATOM     22  C   UNL     1       1.176  15.632  18.962  0.00  0.00    +0.000 C 
ATOM     23  C   UNL     1       2.567  16.113  19.059  0.00  0.00    +0.000 A 
ATOM     24  N   UNL     1       2.966  17.259  18.494  0.00  0.00    +0.000 NA
ATOM     25  O   UNL     1       4.306  17.346  18.866  0.00  0.00    +0.000 OA
ATOM     26  C   UNL     1       4.575  16.244  19.630  0.00  0.00    +0.000 A 
ATOM     27  N   UNL     1       3.536  15.452  19.773  0.00  0.00    +0.000 NA
ENDBRANCH   1  26
TORSDOF 3
ENDMDL
MODEL 4
REMARK VINA RESULT:      -6.9      2.078      3.858
REMARK  Name = 
REMARK  4 active torsions:
REMARK  status: ('A' for Active; 'I' for Inactive)
REMARK    1  A    between atoms: C_1  and  C_2
REMARK    2  A    between atoms: C_5  and  C_6
REMARK    3  A    between atoms: C_10  and  C_12
REMARK    4  A    between atoms: C_18  and  C_19
REMARK                            x       y       z     vdW  Elec       q    Type
REMARK                         _______ _______ _______ _____ _____    ______ ____
ROOT
ATOM      1  C   UNL     1       6.768   5.350  14.985  0.00  0.00    +0.000 C 
ATOM      2  C   UNL     1       7.098   4.583  16.279  0.00  0.00    +0.000 C 
ATOM      3  C   UNL     1       5.875   4.005  16.990  0.00  0.00    +0.000 C 
ATOM      4  N   UNL     1       4.816   5.006  17.100  0.00  0.00    +0.000 N 
ATOM      5  C   UNL     1       4.590   5.620  18.350  0.00  0.00    +0.000 C 
ATOM      6  O   UNL     1       5.313   5.389  19.319  0.00  0.00    +0.000 OA
ATOM      7  C   UNL     1       4.335   5.436  15.788  0.00  0.00    +0.000 C 
ATOM      8  C   UNL     1       5.470   6.177  15.069  0.00  0.00    +0.000 C 
ENDROOT
BRANCH   5   9
ATOM      9  C   UNL     1       3.443   6.564  18.557  0.00  0.00    +0.000 A 
ATOM     10  C   UNL     1       3.616   7.881  18.102  0.00  0.00    +0.000 A 
ATOM     11  C   UNL     1       2.596   8.814  18.208  0.00  0.00    +0.000 A 
ATOM     12  F   UNL     1       2.769  10.038  17.694  0.00  0.00    +0.000 F 
ATOM     13  C   UNL     1       1.406   8.492  18.826  0.00  0.00    +0.000 A 
ATOM     14  C   UNL     1       1.250   7.215  19.366  0.00  0.00    +0.000 A 
ATOM     15  C   UNL     1       2.259   6.216  19.277  0.00  0.00    +0.000 A 
BRANCH  15  16
ATOM     16  C   UNL     1       2.003   4.919  19.979  0.00  0.00    +0.000 A 
ATOM     17  C   UNL     1       2.471   4.642  21.270  0.00  0.00    +0.000 A 
ATOM     18  C   UNL     1       2.179   3.431  21.916  0.00  0.00    +0.000 A 
ATOM     19  C   UNL     1       1.454   2.440  21.264  0.00  0.00    +0.000 A 
ATOM     20  C   UNL     1       1.010   2.660  19.968  0.00  0.00    +0.000 A 
ATOM     21  C   UNL     1       1.272   3.886  19.343  0.00  0.00    +0.000 A 
ENDBRANCH  15  16
ENDBRANCH   5   9
BRANCH   1  26
ATOM     22  C   UNL     1       5.836   2.041  11.406  0.00  0.00    +0.000 C 
ATOM     23  C   UNL     1       6.416   3.142  12.198  0.00  0.00    +0.000 A 
ATOM     24  N   UNL     1       7.319   3.989  11.688  0.00  0.00    +0.000 NA
ATOM     25  O   UNL     1       7.552   4.874  12.739  0.00  0.00    +0.000 OA
ATOM     26  C   UNL     1       6.753   4.476  13.775  0.00  0.00    +0.000 A 
ATOM     27  N   UNL     1       6.038   3.410  13.491  0.00  0.00    +0.000 NA
ENDBRANCH   1  26
TORSDOF 3
ENDMDL
MODEL 5
REMARK VINA RESULT:      -6.8     10.926     12.512
REMARK  Name = 
REMARK  4 active torsions:
REMARK  status: ('A' for Active; 'I' for Inactive)
REMARK    1  A    between atoms: C_1  and  C_2
REMARK    2  A    between atoms: C_5  and  C_6
REMARK    3  A    between atoms: C_10  and  C_12
REMARK    4  A    between atoms: C_18  and  C_19
REMARK                            x       y       z     vdW  Elec       q    Type
REMARK                         _______ _______ _______ _____ _____    ______ ____
ROOT
ATOM      1  C   UNL     1       5.736  16.390  20.207  0.00  0.00    +0.000 C 
ATOM      2  C   UNL     1       6.683  17.522  19.768  0.00  0.00    +0.000 C 
ATOM      3  C   UNL     1       7.580  17.160  18.584  0.00  0.00    +0.000 C 
ATOM      4  N   UNL     1       8.203  15.855  18.783  0.00  0.00    +0.000 N 
ATOM      5  C   UNL     1       9.566  15.802  19.146  0.00  0.00    +0.000 C 
ATOM      6  O   UNL     1      10.210  16.826  19.373  0.00  0.00    +0.000 OA
ATOM      7  C   UNL     1       7.211  14.784  18.861  0.00  0.00    +0.000 C 
ATOM      8  C   UNL     1       6.369  14.987  20.126  0.00  0.00    +0.000 C 
ENDROOT
BRANCH   5   9
ATOM      9  C   UNL     1      10.294  14.495  19.247  0.00  0.00    +0.000 A 
ATOM     10  C   UNL     1      10.843  13.982  18.061  0.00  0.00    +0.000 A 
ATOM     11  C   UNL     1      11.573  12.803  18.061  0.00  0.00    +0.000 A 
ATOM     12  F   UNL     1      12.147  12.384  16.927  0.00  0.00    +0.000 F 
ATOM     13  C   UNL     1      11.721  12.065  19.218  0.00  0.00    +0.000 A 
ATOM     14  C   UNL     1      11.105  12.513  20.387  0.00  0.00    +0.000 A 
ATOM     15  C   UNL     1      10.354  13.720  20.445  0.00  0.00    +0.000 A 
BRANCH  15  16
ATOM     16  C   UNL     1       9.668  14.037  21.736  0.00  0.00    +0.000 A 
ATOM     17  C   UNL     1       8.688  13.212  22.305  0.00  0.00    +0.000 A 
ATOM     18  C   UNL     1       8.091  13.519  23.538  0.00  0.00    +0.000 A 
ATOM     19  C   UNL     1       8.422  14.690  24.210  0.00  0.00    +0.000 A 
ATOM     20  C   UNL     1       9.356  15.554  23.657  0.00  0.00    +0.000 A 
ATOM     21  C   UNL     1       9.976  15.224  22.445  0.00  0.00    +0.000 A 
ENDBRANCH  15  16
ENDBRANCH   5   9
BRANCH   1  26
ATOM     22  C   UNL     1       0.999  16.105  18.757  0.00  0.00    +0.000 C 
ATOM     23  C   UNL     1       2.449  16.368  18.806  0.00  0.00    +0.000 A 
ATOM     24  N   UNL     1       3.071  17.113  17.884  0.00  0.00    +0.000 NA
ATOM     25  O   UNL     1       4.390  17.139  18.334  0.00  0.00    +0.000 OA
ATOM     26  C   UNL     1       4.426  16.414  19.493  0.00  0.00    +0.000 A 
ATOM     27  N   UNL     1       3.255  15.915  19.822  0.00  0.00    +0.000 NA
ENDBRANCH   1  26
TORSDOF 3
ENDMDL
MODEL 6
REMARK VINA RESULT:      -6.7     10.470     12.247
REMARK  Name = 
REMARK  4 active torsions:
REMARK  status: ('A' for Active; 'I' for Inactive)
REMARK    1  A    between atoms: C_1  and  C_2
REMARK    2  A    between atoms: C_5  and  C_6
REMARK    3  A    between atoms: C_10  and  C_12
REMARK    4  A    between atoms: C_18  and  C_19
REMARK                            x       y       z     vdW  Elec       q    Type
REMARK                         _______ _______ _______ _____ _____    ______ ____
ROOT
ATOM      1  C   UNL     1       5.618  16.040  20.376  0.00  0.00    +0.000 C 
ATOM      2  C   UNL     1       6.583  17.221  20.164  0.00  0.00    +0.000 C 
ATOM      3  C   UNL     1       7.555  17.032  19.000  0.00  0.00    +0.000 C 
ATOM      4  N   UNL     1       8.175  15.710  19.050  0.00  0.00    +0.000 N 
ATOM      5  C   UNL     1       9.512  15.604  19.487  0.00  0.00    +0.000 C 
ATOM      6  O   UNL     1      10.133  16.585  19.898  0.00  0.00    +0.000 OA
ATOM      7  C   UNL     1       7.188  14.640  18.911  0.00  0.00    +0.000 C 
ATOM      8  C   UNL     1       6.266  14.662  20.136  0.00  0.00    +0.000 C 
ENDROOT
BRANCH   5   9
ATOM      9  C   UNL     1      10.243  14.295  19.447  0.00  0.00    +0.000 A 
ATOM     10  C   UNL     1      10.908  13.977  18.252  0.00  0.00    +0.000 A 
ATOM     11  C   UNL     1      11.648  12.810  18.134  0.00  0.00    +0.000 A 
ATOM     12  F   UNL     1      12.333  12.577  17.008  0.00  0.00    +0.000 F 
ATOM     13  C   UNL     1      11.694  11.896  19.166  0.00  0.00    +0.000 A 
ATOM     14  C   UNL     1      10.964  12.152  20.328  0.00  0.00    +0.000 A 
ATOM     15  C   UNL     1      10.197  13.337  20.505  0.00  0.00    +0.000 A 
BRANCH  15  16
ATOM     16  C   UNL     1       9.387  13.446  21.759  0.00  0.00    +0.000 A 
ATOM     17  C   UNL     1       9.476  14.536  22.636  0.00  0.00    +0.000 A 
ATOM     18  C   UNL     1       8.673  14.627  23.783  0.00  0.00    +0.000 A 
ATOM     19  C   UNL     1       7.795  13.601  24.113  0.00  0.00    +0.000 A 
ATOM     20  C   UNL     1       7.709  12.485  23.292  0.00  0.00    +0.000 A 
ATOM     21  C   UNL     1       8.487  12.418  22.129  0.00  0.00    +0.000 A 
ENDBRANCH  15  16
ENDBRANCH   5   9
BRANCH   1  26
ATOM     22  C   UNL     1       1.836  17.398  17.466  0.00  0.00    +0.000 C 
ATOM     23  C   UNL     1       2.735  16.636  18.352  0.00  0.00    +0.000 A 
ATOM     24  N   UNL     1       2.565  15.330  18.589  0.00  0.00    +0.000 NA
ATOM     25  O   UNL     1       3.638  15.016  19.421  0.00  0.00    +0.000 OA
ATOM     26  C   UNL     1       4.356  16.168  19.591  0.00  0.00    +0.000 A 
ATOM     27  N   UNL     1       3.836  17.194  18.956  0.00  0.00    +0.000 NA
ENDBRANCH   1  26
TORSDOF 3
ENDMDL
MODEL 7
REMARK VINA RESULT:      -6.7     10.595     12.590
REMARK  Name = 
REMARK  4 active torsions:
REMARK  status: ('A' for Active; 'I' for Inactive)
REMARK    1  A    between atoms: C_1  and  C_2
REMARK    2  A    between atoms: C_5  and  C_6
REMARK    3  A    between atoms: C_10  and  C_12
REMARK    4  A    between atoms: C_18  and  C_19
REMARK                            x       y       z     vdW  Elec       q    Type
REMARK                         _______ _______ _______ _____ _____    ______ ____
ROOT
ATOM      1  C   UNL     1       6.015  16.824  20.442  0.00  0.00    +0.000 C 
ATOM      2  C   UNL     1       7.018  17.682  19.648  0.00  0.00    +0.000 C 
ATOM      3  C   UNL     1       7.636  16.969  18.446  0.00  0.00    +0.000 C 
ATOM      4  N   UNL     1       8.100  15.634  18.815  0.00  0.00    +0.000 N 
ATOM      5  C   UNL     1       9.485  15.418  18.980  0.00  0.00    +0.000 C 
ATOM      6  O   UNL     1      10.293  16.343  18.898  0.00  0.00    +0.000 OA
ATOM      7  C   UNL     1       6.999  14.777  19.252  0.00  0.00    +0.000 C 
ATOM      8  C   UNL     1       6.426  15.342  20.558  0.00  0.00    +0.000 C 
ENDROOT
BRANCH   5   9
ATOM      9  C   UNL     1      10.033  14.047  19.240  0.00  0.00    +0.000 A 
ATOM     10  C   UNL     1      10.297  13.247  18.117  0.00  0.00    +0.000 A 
ATOM     11  C   UNL     1      10.847  11.981  18.253  0.00  0.00    +0.000 A 
ATOM     12  F   UNL     1      11.158  11.277  17.157  0.00  0.00    +0.000 F 
ATOM     13  C   UNL     1      11.087  11.447  19.502  0.00  0.00    +0.000 A 
ATOM     14  C   UNL     1      10.746  12.192  20.632  0.00  0.00    +0.000 A 
ATOM     15  C   UNL     1      10.188  13.498  20.549  0.00  0.00    +0.000 A 
BRANCH  15  16
ATOM     16  C   UNL     1       9.781  14.150  21.833  0.00  0.00    +0.000 A 
ATOM     17  C   UNL     1      10.306  15.374  22.270  0.00  0.00    +0.000 A 
ATOM     18  C   UNL     1       9.874  15.978  23.460  0.00  0.00    +0.000 A 
ATOM     19  C   UNL     1       8.940  15.347  24.274  0.00  0.00    +0.000 A 
ATOM     20  C   UNL     1       8.429  14.113  23.897  0.00  0.00    +0.000 A 
ATOM     21  C   UNL     1       8.837  13.533  22.689  0.00  0.00    +0.000 A 
ENDBRANCH  15  16
ENDBRANCH   5   9
BRANCH   1  26
ATOM     22  C   UNL     1       1.123  17.326  19.785  0.00  0.00    +0.000 C 
ATOM     23  C   UNL     1       2.573  17.184  19.557  0.00  0.00    +0.000 A 
ATOM     24  N   UNL     1       3.123  17.340  18.346  0.00  0.00    +0.000 NA
ATOM     25  O   UNL     1       4.485  17.169  18.593  0.00  0.00    +0.000 OA
ATOM     26  C   UNL     1       4.617  16.939  19.934  0.00  0.00    +0.000 A 
ATOM     27  N   UNL     1       3.466  16.934  20.570  0.00  0.00    +0.000 NA
ENDBRANCH   1  26
TORSDOF 3
ENDMDL
MODEL 8
REMARK VINA RESULT:      -6.7      8.552     10.864
REMARK  Name = 
REMARK  4 active torsions:
REMARK  status: ('A' for Active; 'I' for Inactive)
REMARK    1  A    between atoms: C_1  and  C_2
REMARK    2  A    between atoms: C_5  and  C_6
REMARK    3  A    between atoms: C_10  and  C_12
REMARK    4  A    between atoms: C_18  and  C_19
REMARK                            x       y       z     vdW  Elec       q    Type
REMARK                         _______ _______ _______ _____ _____    ______ ____
ROOT
ATOM      1  C   UNL     1       2.664  14.796  18.801  0.00  0.00    +0.000 C 
ATOM      2  C   UNL     1       1.202  15.207  18.544  0.00  0.00    +0.000 C 
ATOM      3  C   UNL     1       0.310  15.149  19.784  0.00  0.00    +0.000 C 
ATOM      4  N   UNL     1       0.496  13.889  20.500  0.00  0.00    +0.000 N 
ATOM      5  C   UNL     1      -0.499  12.895  20.392  0.00  0.00    +0.000 C 
ATOM      6  O   UNL     1      -1.471  13.036  19.650  0.00  0.00    +0.000 OA
ATOM      7  C   UNL     1       1.863  13.742  20.997  0.00  0.00    +0.000 C 
ATOM      8  C   UNL     1       2.811  13.628  19.797  0.00  0.00    +0.000 C 
ENDROOT
BRANCH   5   9
ATOM      9  C   UNL     1      -0.426  11.631  21.195  0.00  0.00    +0.000 A 
ATOM     10  C   UNL     1       0.167  10.519  20.576  0.00  0.00    +0.000 A 
ATOM     11  C   UNL     1       0.320   9.319  21.254  0.00  0.00    +0.000 A 
ATOM     12  F   UNL     1       0.959   8.304  20.659  0.00  0.00    +0.000 F 
ATOM     13  C   UNL     1      -0.167   9.165  22.535  0.00  0.00    +0.000 A 
ATOM     14  C   UNL     1      -0.841  10.231  23.134  0.00  0.00    +0.000 A 
ATOM     15  C   UNL     1      -1.018  11.486  22.487  0.00  0.00    +0.000 A 
BRANCH  15  16
ATOM     16  C   UNL     1      -1.839  12.513  23.201  0.00  0.00    +0.000 A 
ATOM     17  C   UNL     1      -1.325  13.748  23.620  0.00  0.00    +0.000 A 
ATOM     18  C   UNL     1      -2.131  14.706  24.253  0.00  0.00    +0.000 A 
ATOM     19  C   UNL     1      -3.466  14.432  24.531  0.00  0.00    +0.000 A 
ATOM     20  C   UNL     1      -4.001  13.204  24.170  0.00  0.00    +0.000 A 
ATOM     21  C   UNL     1      -3.199  12.266  23.506  0.00  0.00    +0.000 A 
ENDBRANCH  15  16
ENDBRANCH   5   9
BRANCH   1  26
ATOM     22  C   UNL     1       5.076  18.473  21.097  0.00  0.00    +0.000 C 
ATOM     23  C   UNL     1       4.627  17.481  20.103  0.00  0.00    +0.000 A 
ATOM     24  N   UNL     1       5.299  17.255  18.967  0.00  0.00    +0.000 NA
ATOM     25  O   UNL     1       4.566  16.234  18.364  0.00  0.00    +0.000 OA
ATOM     26  C   UNL     1       3.531  15.941  19.207  0.00  0.00    +0.000 A 
ATOM     27  N   UNL     1       3.523  16.686  20.290  0.00  0.00    +0.000 NA
ENDBRANCH   1  26
TORSDOF 3
ENDMDL
MODEL 9
REMARK VINA RESULT:      -6.6      8.141      9.898
REMARK  Name = 
REMARK  4 active torsions:
REMARK  status: ('A' for Active; 'I' for Inactive)
REMARK    1  A    between atoms: C_1  and  C_2
REMARK    2  A    between atoms: C_5  and  C_6
REMARK    3  A    between atoms: C_10  and  C_12
REMARK    4  A    between atoms: C_18  and  C_19
REMARK                            x       y       z     vdW  Elec       q    Type
REMARK                         _______ _______ _______ _____ _____    ______ ____
ROOT
ATOM      1  C   UNL     1       2.865  15.154  18.480  0.00  0.00    +0.000 C 
ATOM      2  C   UNL     1       1.935  15.569  19.635  0.00  0.00    +0.000 C 
ATOM      3  C   UNL     1       1.447  14.402  20.493  0.00  0.00    +0.000 C 
ATOM      4  N   UNL     1       0.967  13.306  19.657  0.00  0.00    +0.000 N 
ATOM      5  C   UNL     1      -0.425  13.103  19.538  0.00  0.00    +0.000 C 
ATOM      6  O   UNL     1      -1.233  13.874  20.055  0.00  0.00    +0.000 OA
ATOM      7  C   UNL     1       2.030  12.754  18.819  0.00  0.00    +0.000 C 
ATOM      8  C   UNL     1       2.464  13.825  17.810  0.00  0.00    +0.000 C 
ENDROOT
BRANCH   5   9
ATOM      9  C   UNL     1      -0.978  11.925  18.793  0.00  0.00    +0.000 A 
ATOM     10  C   UNL     1      -1.648  12.194  17.588  0.00  0.00    +0.000 A 
ATOM     11  C   UNL     1      -2.155  11.167  16.807  0.00  0.00    +0.000 A 
ATOM     12  F   UNL     1      -2.719  11.455  15.627  0.00  0.00    +0.000 F 
ATOM     13  C   UNL     1      -2.075   9.855  17.226  0.00  0.00    +0.000 A 
ATOM     14  C   UNL     1      -1.494   9.577  18.464  0.00  0.00    +0.000 A 
ATOM     15  C   UNL     1      -0.950  10.590  19.301  0.00  0.00    +0.000 A 
BRANCH  15  16
ATOM     16  C   UNL     1      -0.441  10.168  20.643  0.00  0.00    +0.000 A 
ATOM     17  C   UNL     1       0.639   9.291  20.812  0.00  0.00    +0.000 A 
ATOM     18  C   UNL     1       1.117   8.946  22.085  0.00  0.00    +0.000 A 
ATOM     19  C   UNL     1       0.492   9.430  23.229  0.00  0.00    +0.000 A 
ATOM     20  C   UNL     1      -0.608  10.267  23.104  0.00  0.00    +0.000 A 
ATOM     21  C   UNL     1      -1.057  10.637  21.829  0.00  0.00    +0.000 A 
ENDBRANCH  15  16
ENDBRANCH   5   9
BRANCH   1  26
ATOM     22  C   UNL     1       7.266  15.008  20.766  0.00  0.00    +0.000 C 
ATOM     23  C   UNL     1       6.204  15.029  19.743  0.00  0.00    +0.000 A 
ATOM     24  N   UNL     1       6.454  14.786  18.450  0.00  0.00    +0.000 NA
ATOM     25  O   UNL     1       5.192  14.860  17.864  0.00  0.00    +0.000 OA
ATOM     26  C   UNL     1       4.305  15.128  18.870  0.00  0.00    +0.000 A 
ATOM     27  N   UNL     1       4.882  15.246  20.045  0.00  0.00    +0.000 NA
ENDBRANCH   1  26
TORSDOF 3
ENDMDL
