MODEL 1
REMARK VINA RESULT:      -8.6      0.000      0.000
REMARK  Name = 
REMARK  6 active torsions:
REMARK  status: ('A' for Active; 'I' for Inactive)
REMARK    1  A    between atoms: C_1  and  C_2
REMARK    2  A    between atoms: C_4  and  N_5
REMARK    3  A    between atoms: C_6  and  C_8
REMARK    4  A    between atoms: C_8  and  N_9
REMARK    5  A    between atoms: C_13  and  C_14
REMARK    6  A    between atoms: N_21  and  C_22
REMARK                            x       y       z     vdW  Elec       q    Type
REMARK                         _______ _______ _______ _____ _____    ______ ____
ROOT
ATOM      1  N   UNL     1       2.343   6.523  18.328  0.00  0.00    +0.000 N 
ATOM      2  C   UNL     1       2.178   7.852  18.834  0.00  0.00    +0.000 C 
ATOM      3  O   UNL     1       2.111   8.058  20.036  0.00  0.00    +0.000 OA
ATOM      4  H   UNL     1       2.365   6.363  17.320  0.00  0.00    +0.000 HD
ENDROOT
BRANCH   1   8
ATOM      5  C   UNL     1       1.642   2.891  21.661  0.00  0.00    +0.000 C 
ATOM      6  C   UNL     1       2.171   3.772  20.590  0.00  0.00    +0.000 A 
ATOM      7  C   UNL     1       1.644   5.006  20.147  0.00  0.00    +0.000 A 
ATOM      8  C   UNL     1       2.507   5.426  19.164  0.00  0.00    +0.000 A 
ATOM      9  N   UNL     1       3.537   4.496  19.123  0.00  0.00    +0.000 N 
ATOM     10  N   UNL     1       3.269   3.423  19.906  0.00  0.00    +0.000 NA
BRANCH   9  11
ATOM     11  C   UNL     1       4.792   4.637  18.473  0.00  0.00    +0.000 A 
ATOM     12  C   UNL     1       5.866   5.225  19.151  0.00  0.00    +0.000 A 
ATOM     13  C   UNL     1       7.105   5.354  18.512  0.00  0.00    +0.000 A 
ATOM     14  C   UNL     1       7.265   4.933  17.191  0.00  0.00    +0.000 A 
ATOM     15  C   UNL     1       6.183   4.389  16.506  0.00  0.00    +0.000 A 
ATOM     16 CL   UNL     1       6.348   3.918  14.859  0.00  0.00    +0.000 Cl
ATOM     17  C   UNL     1       4.950   4.233  17.139  0.00  0.00    +0.000 A 
ENDBRANCH   9  11
ENDBRANCH   1   8
BRANCH   2  18
ATOM     18  C   UNL     1       2.080   8.935  17.777  0.00  0.00    +0.000 C 
BRANCH  18  19
ATOM     19  N   UNL     1       1.217   9.976  18.288  0.00  0.00    +0.000 N 
ATOM     20  C   UNL     1      -0.065   9.693  18.687  0.00  0.00    +0.000 A 
ATOM     21  N   UNL     1      -0.879  10.559  19.177  0.00  0.00    +0.000 NA
ATOM     22  C   UNL     1      -0.455  11.891  19.297  0.00  0.00    +0.000 A 
ATOM     23  C   UNL     1      -1.318  12.845  19.860  0.00  0.00    +0.000 A 
ATOM     24  C   UNL     1      -2.641  12.465  20.465  0.00  0.00    +0.000 C 
ATOM     25  C   UNL     1      -0.937  14.199  19.865  0.00  0.00    +0.000 A 
ATOM     26  C   UNL     1       0.303  14.598  19.363  0.00  0.00    +0.000 A 
ATOM     27  C   UNL     1       1.190  13.646  18.866  0.00  0.00    +0.000 A 
ATOM     28  C   UNL     1       0.799  12.303  18.834  0.00  0.00    +0.000 A 
ATOM     29  C   UNL     1       1.714  11.270  18.306  0.00  0.00    +0.000 A 
ATOM     30  O   UNL     1       2.832  11.539  17.872  0.00  0.00    +0.000 OA
ENDBRANCH  18  19
ENDBRANCH   2  18
TORSDOF 4
ENDMDL
MODEL 2
REMARK VINA RESULT:      -8.6      1.251      1.680
REMARK  Name = 
REMARK  6 active torsions:
REMARK  status: ('A' for Active; 'I' for Inactive)
REMARK    1  A    between atoms: C_1  and  C_2
REMARK    2  A    between atoms: C_4  and  N_5
REMARK    3  A    between atoms: C_6  and  C_8
REMARK    4  A    between atoms: C_8  and  N_9
REMARK    5  A    between atoms: C_13  and  C_14
REMARK    6  A    between atoms: N_21  and  C_22
REMARK                            x       y       z     vdW  Elec       q    Type
REMARK                         _______ _______ _______ _____ _____    ______ ____
ROOT
ATOM      1  N   UNL     1       2.562   6.822  18.828  0.00  0.00    +0.000 N 
ATOM      2  C   UNL     1       1.980   7.980  19.434  0.00  0.00    +0.000 C 
ATOM      3  O   UNL     1       1.476   7.916  20.546  0.00  0.00    +0.000 OA
ATOM      4  H   UNL     1       2.950   6.883  17.886  0.00  0.00    +0.000 HD
ENDROOT
BRANCH   1   8
ATOM      5  C   UNL     1       1.648   2.827  21.656  0.00  0.00    +0.000 C 
ATOM      6  C   UNL     1       2.212   3.799  20.686  0.00  0.00    +0.000 A 
ATOM      7  C   UNL     1       1.798   5.130  20.458  0.00  0.00    +0.000 A 
ATOM      8  C   UNL     1       2.650   5.603  19.489  0.00  0.00    +0.000 A 
ATOM      9  N   UNL     1       3.571   4.592  19.249  0.00  0.00    +0.000 N 
ATOM     10  N   UNL     1       3.229   3.447  19.889  0.00  0.00    +0.000 NA
BRANCH   9  11
ATOM     11  C   UNL     1       4.798   4.702  18.543  0.00  0.00    +0.000 A 
ATOM     12  C   UNL     1       5.922   5.241  19.179  0.00  0.00    +0.000 A 
ATOM     13  C   UNL     1       7.133   5.340  18.485  0.00  0.00    +0.000 A 
ATOM     14  C   UNL     1       7.218   4.937  17.151  0.00  0.00    +0.000 A 
ATOM     15  C   UNL     1       6.087   4.442  16.509  0.00  0.00    +0.000 A 
ATOM     16 CL   UNL     1       6.160   3.993  14.849  0.00  0.00    +0.000 Cl
ATOM     17  C   UNL     1       4.880   4.316  17.196  0.00  0.00    +0.000 A 
ENDBRANCH   9  11
ENDBRANCH   1   8
BRANCH   2  18
ATOM     18  C   UNL     1       2.029   9.241  18.592  0.00  0.00    +0.000 C 
BRANCH  18  19
ATOM     19  N   UNL     1       0.704   9.817  18.580  0.00  0.00    +0.000 N 
ATOM     20  C   UNL     1      -0.214   9.450  17.628  0.00  0.00    +0.000 A 
ATOM     21  N   UNL     1      -1.417   9.897  17.571  0.00  0.00    +0.000 NA
ATOM     22  C   UNL     1      -1.831  10.843  18.522  0.00  0.00    +0.000 A 
ATOM     23  C   UNL     1      -3.152  11.319  18.495  0.00  0.00    +0.000 A 
ATOM     24  C   UNL     1      -4.186  10.753  17.562  0.00  0.00    +0.000 C 
ATOM     25  C   UNL     1      -3.527  12.354  19.369  0.00  0.00    +0.000 A 
ATOM     26  C   UNL     1      -2.620  12.879  20.293  0.00  0.00    +0.000 A 
ATOM     27  C   UNL     1      -1.328  12.362  20.368  0.00  0.00    +0.000 A 
ATOM     28  C   UNL     1      -0.947  11.353  19.477  0.00  0.00    +0.000 A 
ATOM     29  C   UNL     1       0.417  10.789  19.527  0.00  0.00    +0.000 A 
ATOM     30  O   UNL     1       1.264  11.179  20.329  0.00  0.00    +0.000 OA
ENDBRANCH  18  19
ENDBRANCH   2  18
TORSDOF 4
ENDMDL
MODEL 3
REMARK VINA RESULT:      -8.5      1.633      2.197
REMARK  Name = 
REMARK  6 active torsions:
REMARK  status: ('A' for Active; 'I' for Inactive)
REMARK    1  A    between atoms: C_1  and  C_2
REMARK    2  A    between atoms: C_4  and  N_5
REMARK    3  A    between atoms: C_6  and  C_8
REMARK    4  A    between atoms: C_8  and  N_9
REMARK    5  A    between atoms: C_13  and  C_14
REMARK    6  A    between atoms: N_21  and  C_22
REMARK                            x       y       z     vdW  Elec       q    Type
REMARK                         _______ _______ _______ _____ _____    ______ ____
ROOT
ATOM      1  N   UNL     1       2.348   6.895  18.878  0.00  0.00    +0.000 N 
ATOM      2  C   UNL     1       1.872   8.050  19.576  0.00  0.00    +0.000 C 
ATOM      3  O   UNL     1       1.434   7.956  20.713  0.00  0.00    +0.000 OA
ATOM      4  H   UNL     1       2.681   6.985  17.917  0.00  0.00    +0.000 HD
ENDROOT
BRANCH   1   8
ATOM      5  C   UNL     1       1.343   2.789  21.510  0.00  0.00    +0.000 C 
ATOM      6  C   UNL     1       1.924   3.791  20.581  0.00  0.00    +0.000 A 
ATOM      7  C   UNL     1       1.554   5.147  20.432  0.00  0.00    +0.000 A 
ATOM      8  C   UNL     1       2.403   5.640  19.471  0.00  0.00    +0.000 A 
ATOM      9  N   UNL     1       3.283   4.612  19.159  0.00  0.00    +0.000 N 
ATOM     10  N   UNL     1       2.912   3.447  19.744  0.00  0.00    +0.000 NA
BRANCH   9  11
ATOM     11  C   UNL     1       4.499   4.716  18.434  0.00  0.00    +0.000 A 
ATOM     12  C   UNL     1       4.610   4.126  17.169  0.00  0.00    +0.000 A 
ATOM     13  C   UNL     1       5.806   4.237  16.452  0.00  0.00    +0.000 A 
ATOM     14  C   UNL     1       6.902   4.902  17.005  0.00  0.00    +0.000 A 
ATOM     15  C   UNL     1       6.803   5.449  18.280  0.00  0.00    +0.000 A 
ATOM     16 CL   UNL     1       8.161   6.221  19.000  0.00  0.00    +0.000 Cl
ATOM     17  C   UNL     1       5.609   5.365  18.996  0.00  0.00    +0.000 A 
ENDBRANCH   9  11
ENDBRANCH   1   8
BRANCH   2  18
ATOM     18  C   UNL     1       1.944   9.349  18.796  0.00  0.00    +0.000 C 
BRANCH  18  19
ATOM     19  N   UNL     1       0.613   9.907  18.742  0.00  0.00    +0.000 N 
ATOM     20  C   UNL     1      -0.256   9.558  17.739  0.00  0.00    +0.000 A 
ATOM     21  N   UNL     1      -1.463   9.991  17.641  0.00  0.00    +0.000 NA
ATOM     22  C   UNL     1      -1.933  10.900  18.601  0.00  0.00    +0.000 A 
ATOM     23  C   UNL     1      -3.258  11.360  18.531  0.00  0.00    +0.000 A 
ATOM     24  C   UNL     1      -4.241  10.809  17.535  0.00  0.00    +0.000 C 
ATOM     25  C   UNL     1      -3.687  12.361  19.418  0.00  0.00    +0.000 A 
ATOM     26  C   UNL     1      -2.829  12.870  20.397  0.00  0.00    +0.000 A 
ATOM     27  C   UNL     1      -1.535  12.368  20.514  0.00  0.00    +0.000 A 
ATOM     28  C   UNL     1      -1.099  11.392  19.611  0.00  0.00    +0.000 A 
ATOM     29  C   UNL     1       0.270  10.845  19.704  0.00  0.00    +0.000 A 
ATOM     30  O   UNL     1       1.074  11.221  20.555  0.00  0.00    +0.000 OA
ENDBRANCH  18  19
ENDBRANCH   2  18
TORSDOF 4
ENDMDL
MODEL 4
REMARK VINA RESULT:      -8.5      1.359      1.885
REMARK  Name = 
REMARK  6 active torsions:
REMARK  status: ('A' for Active; 'I' for Inactive)
REMARK    1  A    between atoms: C_1  and  C_2
REMARK    2  A    between atoms: C_4  and  N_5
REMARK    3  A    between atoms: C_6  and  C_8
REMARK    4  A    between atoms: C_8  and  N_9
REMARK    5  A    between atoms: C_13  and  C_14
REMARK    6  A    between atoms: N_21  and  C_22
REMARK                            x       y       z     vdW  Elec       q    Type
REMARK                         _______ _______ _______ _____ _____    ______ ____
ROOT
ATOM      1  N   UNL     1       2.407   6.726  18.717  0.00  0.00    +0.000 N 
ATOM      2  C   UNL     1       2.054   7.951  19.367  0.00  0.00    +0.000 C 
ATOM      3  O   UNL     1       1.787   7.971  20.559  0.00  0.00    +0.000 OA
ATOM      4  H   UNL     1       2.597   6.721  17.714  0.00  0.00    +0.000 HD
ENDROOT
BRANCH   1   8
ATOM      5  C   UNL     1       1.594   2.747  21.599  0.00  0.00    +0.000 C 
ATOM      6  C   UNL     1       2.145   3.728  20.630  0.00  0.00    +0.000 A 
ATOM      7  C   UNL     1       1.669   5.030  20.354  0.00  0.00    +0.000 A 
ATOM      8  C   UNL     1       2.533   5.528  19.409  0.00  0.00    +0.000 A 
ATOM      9  N   UNL     1       3.518   4.565  19.232  0.00  0.00    +0.000 N 
ATOM     10  N   UNL     1       3.213   3.417  19.884  0.00  0.00    +0.000 NA
BRANCH   9  11
ATOM     11  C   UNL     1       4.766   4.728  18.574  0.00  0.00    +0.000 A 
ATOM     12  C   UNL     1       5.838   5.321  19.250  0.00  0.00    +0.000 A 
ATOM     13  C   UNL     1       7.070   5.473  18.604  0.00  0.00    +0.000 A 
ATOM     14  C   UNL     1       7.226   5.068  17.277  0.00  0.00    +0.000 A 
ATOM     15  C   UNL     1       6.145   4.519  16.594  0.00  0.00    +0.000 A 
ATOM     16 CL   UNL     1       6.304   4.068  14.941  0.00  0.00    +0.000 Cl
ATOM     17  C   UNL     1       4.919   4.341  17.234  0.00  0.00    +0.000 A 
ENDBRANCH   9  11
ENDBRANCH   1   8
BRANCH   2  18
ATOM     18  C   UNL     1       2.027   9.173  18.468  0.00  0.00    +0.000 C 
BRANCH  18  19
ATOM     19  N   UNL     1       0.916  10.000  18.878  0.00  0.00    +0.000 N 
ATOM     20  C   UNL     1       1.019  10.827  19.967  0.00  0.00    +0.000 A 
ATOM     21  N   UNL     1       0.085  11.611  20.374  0.00  0.00    +0.000 NA
ATOM     22  C   UNL     1      -1.137  11.617  19.685  0.00  0.00    +0.000 A 
ATOM     23  C   UNL     1      -2.159  12.490  20.094  0.00  0.00    +0.000 A 
ATOM     24  C   UNL     1      -1.945  13.520  21.168  0.00  0.00    +0.000 C 
ATOM     25  C   UNL     1      -3.421  12.406  19.480  0.00  0.00    +0.000 A 
ATOM     26  C   UNL     1      -3.657  11.503  18.441  0.00  0.00    +0.000 A 
ATOM     27  C   UNL     1      -2.626  10.683  17.987  0.00  0.00    +0.000 A 
ATOM     28  C   UNL     1      -1.379  10.745  18.618  0.00  0.00    +0.000 A 
ATOM     29  C   UNL     1      -0.268   9.884  18.165  0.00  0.00    +0.000 A 
ATOM     30  O   UNL     1      -0.389   9.084  17.239  0.00  0.00    +0.000 OA
ENDBRANCH  18  19
ENDBRANCH   2  18
TORSDOF 4
ENDMDL
MODEL 5
REMARK VINA RESULT:      -8.5      1.472      1.509
REMARK  Name = 
REMARK  6 active torsions:
REMARK  status: ('A' for Active; 'I' for Inactive)
REMARK    1  A    between atoms: C_1  and  C_2
REMARK    2  A    between atoms: C_4  and  N_5
REMARK    3  A    between atoms: C_6  and  C_8
REMARK    4  A    between atoms: C_8  and  N_9
REMARK    5  A    between atoms: C_13  and  C_14
REMARK    6  A    between atoms: N_21  and  C_22
REMARK                            x       y       z     vdW  Elec       q    Type
REMARK                         _______ _______ _______ _____ _____    ______ ____
ROOT
ATOM      1  N   UNL     1       2.991   6.899  19.480  0.00  0.00    +0.000 N 
ATOM      2  C   UNL     1       2.317   7.301  18.283  0.00  0.00    +0.000 C 
ATOM      3  O   UNL     1       1.754   6.478  17.578  0.00  0.00    +0.000 OA
ATOM      4  H   UNL     1       3.484   7.594  20.042  0.00  0.00    +0.000 HD
ENDROOT
BRANCH   1   8
ATOM      5  C   UNL     1       1.798   2.608  21.708  0.00  0.00    +0.000 C 
ATOM      6  C   UNL     1       2.411   3.664  20.862  0.00  0.00    +0.000 A 
ATOM      7  C   UNL     1       2.137   5.050  20.878  0.00  0.00    +0.000 A 
ATOM      8  C   UNL     1       2.979   5.586  19.933  0.00  0.00    +0.000 A 
ATOM      9  N   UNL     1       3.765   4.540  19.469  0.00  0.00    +0.000 N 
ATOM     10  N   UNL     1       3.334   3.346  19.945  0.00  0.00    +0.000 NA
BRANCH   9  11
ATOM     11  C   UNL     1       4.954   4.638  18.698  0.00  0.00    +0.000 A 
ATOM     12  C   UNL     1       6.110   5.183  19.267  0.00  0.00    +0.000 A 
ATOM     13  C   UNL     1       7.283   5.271  18.509  0.00  0.00    +0.000 A 
ATOM     14  C   UNL     1       7.297   4.851  17.178  0.00  0.00    +0.000 A 
ATOM     15  C   UNL     1       6.133   4.350  16.602  0.00  0.00    +0.000 A 
ATOM     16 CL   UNL     1       6.117   3.881  14.947  0.00  0.00    +0.000 Cl
ATOM     17  C   UNL     1       4.964   4.235  17.354  0.00  0.00    +0.000 A 
ENDBRANCH   9  11
ENDBRANCH   1   8
BRANCH   2  18
ATOM     18  C   UNL     1       2.381   8.786  17.977  0.00  0.00    +0.000 C 
BRANCH  18  19
ATOM     19  N   UNL     1       1.639   9.482  19.002  0.00  0.00    +0.000 N 
ATOM     20  C   UNL     1       0.922   8.789  19.945  0.00  0.00    +0.000 A 
ATOM     21  N   UNL     1       0.263   9.338  20.902  0.00  0.00    +0.000 NA
ATOM     22  C   UNL     1       0.242  10.738  20.991  0.00  0.00    +0.000 A 
ATOM     23  C   UNL     1      -0.446  11.356  22.048  0.00  0.00    +0.000 A 
ATOM     24  C   UNL     1      -1.056  10.565  23.172  0.00  0.00    +0.000 C 
ATOM     25  C   UNL     1      -0.568  12.756  22.065  0.00  0.00    +0.000 A 
ATOM     26  C   UNL     1       0.025  13.540  21.073  0.00  0.00    +0.000 A 
ATOM     27  C   UNL     1       0.766  12.935  20.060  0.00  0.00    +0.000 A 
ATOM     28  C   UNL     1       0.862  11.540  20.027  0.00  0.00    +0.000 A 
ATOM     29  C   UNL     1       1.634  10.868  18.962  0.00  0.00    +0.000 A 
ATOM     30  O   UNL     1       2.207  11.491  18.070  0.00  0.00    +0.000 OA
ENDBRANCH  18  19
ENDBRANCH   2  18
TORSDOF 4
ENDMDL
MODEL 6
REMARK VINA RESULT:      -8.5      1.796      2.342
REMARK  Name = 
REMARK  6 active torsions:
REMARK  status: ('A' for Active; 'I' for Inactive)
REMARK    1  A    between atoms: C_1  and  C_2
REMARK    2  A    between atoms: C_4  and  N_5
REMARK    3  A    between atoms: C_6  and  C_8
REMARK    4  A    between atoms: C_8  and  N_9
REMARK    5  A    between atoms: C_13  and  C_14
REMARK    6  A    between atoms: N_21  and  C_22
REMARK                            x       y       z     vdW  Elec       q    Type
REMARK                         _______ _______ _______ _____ _____    ______ ____
ROOT
ATOM      1  N   UNL     1       2.364   7.251  19.448  0.00  0.00    +0.000 N 
ATOM      2  C   UNL     1       1.680   8.237  20.226  0.00  0.00    +0.000 C 
ATOM      3  O   UNL     1       1.051   7.919  21.224  0.00  0.00    +0.000 OA
ATOM      4  H   UNL     1       2.858   7.528  18.599  0.00  0.00    +0.000 HD
ENDROOT
BRANCH   1   8
ATOM      5  C   UNL     1       1.346   2.775  21.377  0.00  0.00    +0.000 C 
ATOM      6  C   UNL     1       1.923   3.910  20.615  0.00  0.00    +0.000 A 
ATOM      7  C   UNL     1       1.575   5.277  20.706  0.00  0.00    +0.000 A 
ATOM      8  C   UNL     1       2.411   5.913  19.820  0.00  0.00    +0.000 A 
ATOM      9  N   UNL     1       3.263   4.940  19.316  0.00  0.00    +0.000 N 
ATOM     10  N   UNL     1       2.885   3.698  19.707  0.00  0.00    +0.000 NA
BRANCH   9  11
ATOM     11  C   UNL     1       4.465   5.147  18.588  0.00  0.00    +0.000 A 
ATOM     12  C   UNL     1       5.647   5.460  19.268  0.00  0.00    +0.000 A 
ATOM     13  C   UNL     1       6.832   5.655  18.549  0.00  0.00    +0.000 A 
ATOM     14  C   UNL     1       6.834   5.574  17.156  0.00  0.00    +0.000 A 
ATOM     15  C   UNL     1       5.648   5.306  16.480  0.00  0.00    +0.000 A 
ATOM     16 CL   UNL     1       5.621   5.260  14.760  0.00  0.00    +0.000 Cl
ATOM     17  C   UNL     1       4.465   5.087  17.186  0.00  0.00    +0.000 A 
ENDBRANCH   9  11
ENDBRANCH   1   8
BRANCH   2  18
ATOM     18  C   UNL     1       1.789   9.658  19.705  0.00  0.00    +0.000 C 
BRANCH  18  19
ATOM     19  N   UNL     1       0.455  10.120  19.396  0.00  0.00    +0.000 N 
ATOM     20  C   UNL     1      -0.277  10.822  20.319  0.00  0.00    +0.000 A 
ATOM     21  N   UNL     1      -1.456  11.289  20.107  0.00  0.00    +0.000 NA
ATOM     22  C   UNL     1      -2.060  11.054  18.862  0.00  0.00    +0.000 A 
ATOM     23  C   UNL     1      -3.334  11.582  18.599  0.00  0.00    +0.000 A 
ATOM     24  C   UNL     1      -4.026  12.510  19.559  0.00  0.00    +0.000 C 
ATOM     25  C   UNL     1      -3.986  11.242  17.401  0.00  0.00    +0.000 A 
ATOM     26  C   UNL     1      -3.365  10.427  16.452  0.00  0.00    +0.000 A 
ATOM     27  C   UNL     1      -2.074   9.956  16.679  0.00  0.00    +0.000 A 
ATOM     28  C   UNL     1      -1.438  10.270  17.884  0.00  0.00    +0.000 A 
ATOM     29  C   UNL     1      -0.072   9.780  18.159  0.00  0.00    +0.000 A 
ATOM     30  O   UNL     1       0.551   9.081  17.362  0.00  0.00    +0.000 OA
ENDBRANCH  18  19
ENDBRANCH   2  18
TORSDOF 4
ENDMDL
MODEL 7
REMARK VINA RESULT:      -8.4      0.966      1.312
REMARK  Name = 
REMARK  6 active torsions:
REMARK  status: ('A' for Active; 'I' for Inactive)
REMARK    1  A    between atoms: C_1  and  C_2
REMARK    2  A    between atoms: C_4  and  N_5
REMARK    3  A    between atoms: C_6  and  C_8
REMARK    4  A    between atoms: C_8  and  N_9
REMARK    5  A    between atoms: C_13  and  C_14
REMARK    6  A    between atoms: N_21  and  C_22
REMARK                            x       y       z     vdW  Elec       q    Type
REMARK                         _______ _______ _______ _____ _____    ______ ____
ROOT
ATOM      1  N   UNL     1       2.192   6.545  18.279  0.00  0.00    +0.000 N 
ATOM      2  C   UNL     1       2.114   7.879  18.793  0.00  0.00    +0.000 C 
ATOM      3  O   UNL     1       2.149   8.087  19.996  0.00  0.00    +0.000 OA
ATOM      4  H   UNL     1       2.129   6.385  17.273  0.00  0.00    +0.000 HD
ENDROOT
BRANCH   1   8
ATOM      5  C   UNL     1       1.597   2.894  21.612  0.00  0.00    +0.000 C 
ATOM      6  C   UNL     1       2.092   3.780  20.528  0.00  0.00    +0.000 A 
ATOM      7  C   UNL     1       1.551   5.017  20.111  0.00  0.00    +0.000 A 
ATOM      8  C   UNL     1       2.381   5.443  19.103  0.00  0.00    +0.000 A 
ATOM      9  N   UNL     1       3.409   4.512  19.022  0.00  0.00    +0.000 N 
ATOM     10  N   UNL     1       3.165   3.434  19.807  0.00  0.00    +0.000 NA
BRANCH   9  11
ATOM     11  C   UNL     1       4.642   4.656  18.331  0.00  0.00    +0.000 A 
ATOM     12  C   UNL     1       4.836   4.001  17.109  0.00  0.00    +0.000 A 
ATOM     13  C   UNL     1       6.047   4.151  16.425  0.00  0.00    +0.000 A 
ATOM     14  C   UNL     1       7.077   4.920  16.972  0.00  0.00    +0.000 A 
ATOM     15  C   UNL     1       6.896   5.532  18.207  0.00  0.00    +0.000 A 
ATOM     16 CL   UNL     1       8.174   6.436  18.922  0.00  0.00    +0.000 Cl
ATOM     17  C   UNL     1       5.685   5.411  18.888  0.00  0.00    +0.000 A 
ENDBRANCH   9  11
ENDBRANCH   1   8
BRANCH   2  18
ATOM     18  C   UNL     1       1.971   8.965  17.744  0.00  0.00    +0.000 C 
BRANCH  18  19
ATOM     19  N   UNL     1       1.128  10.002  18.292  0.00  0.00    +0.000 N 
ATOM     20  C   UNL     1      -0.156   9.728  18.689  0.00  0.00    +0.000 A 
ATOM     21  N   UNL     1      -0.954  10.590  19.211  0.00  0.00    +0.000 NA
ATOM     22  C   UNL     1      -0.509  11.911  19.371  0.00  0.00    +0.000 A 
ATOM     23  C   UNL     1      -1.354  12.860  19.968  0.00  0.00    +0.000 A 
ATOM     24  C   UNL     1      -2.680  12.482  20.568  0.00  0.00    +0.000 C 
ATOM     25  C   UNL     1      -0.952  14.206  20.014  0.00  0.00    +0.000 A 
ATOM     26  C   UNL     1       0.293  14.602  19.518  0.00  0.00    +0.000 A 
ATOM     27  C   UNL     1       1.162  13.652  18.987  0.00  0.00    +0.000 A 
ATOM     28  C   UNL     1       0.749  12.318  18.913  0.00  0.00    +0.000 A 
ATOM     29  C   UNL     1       1.645  11.288  18.349  0.00  0.00    +0.000 A 
ATOM     30  O   UNL     1       2.765  11.553  17.918  0.00  0.00    +0.000 OA
ENDBRANCH  18  19
ENDBRANCH   2  18
TORSDOF 4
ENDMDL
MODEL 8
REMARK VINA RESULT:      -8.4      2.163      2.719
REMARK  Name = 
REMARK  6 active torsions:
REMARK  status: ('A' for Active; 'I' for Inactive)
REMARK    1  A    between atoms: C_1  and  C_2
REMARK    2  A    between atoms: C_4  and  N_5
REMARK    3  A    between atoms: C_6  and  C_8
REMARK    4  A    between atoms: C_8  and  N_9
REMARK    5  A    between atoms: C_13  and  C_14
REMARK    6  A    between atoms: N_21  and  C_22
REMARK                            x       y       z     vdW  Elec       q    Type
REMARK                         _______ _______ _______ _____ _____    ______ ____
ROOT
ATOM      1  N   UNL     1       2.267   7.519  19.826  0.00  0.00    +0.000 N 
ATOM      2  C   UNL     1       1.377   8.366  20.560  0.00  0.00    +0.000 C 
ATOM      3  O   UNL     1       0.587   7.894  21.363  0.00  0.00    +0.000 OA
ATOM      4  H   UNL     1       2.899   7.924  19.135  0.00  0.00    +0.000 HD
ENDROOT
BRANCH   1   8
ATOM      5  C   UNL     1       1.342   2.847  21.279  0.00  0.00    +0.000 C 
ATOM      6  C   UNL     1       1.881   4.065  20.623  0.00  0.00    +0.000 A 
ATOM      7  C   UNL     1       1.542   5.411  20.889  0.00  0.00    +0.000 A 
ATOM      8  C   UNL     1       2.330   6.147  20.039  0.00  0.00    +0.000 A 
ATOM      9  N   UNL     1       3.152   5.241  19.382  0.00  0.00    +0.000 N 
ATOM     10  N   UNL     1       2.792   3.962  19.647  0.00  0.00    +0.000 NA
BRANCH   9  11
ATOM     11  C   UNL     1       4.313   5.536  18.618  0.00  0.00    +0.000 A 
ATOM     12  C   UNL     1       4.194   5.835  17.257  0.00  0.00    +0.000 A 
ATOM     13  C   UNL     1       5.338   6.133  16.508  0.00  0.00    +0.000 A 
ATOM     14  C   UNL     1       6.600   6.100  17.103  0.00  0.00    +0.000 A 
ATOM     15  C   UNL     1       6.718   5.759  18.446  0.00  0.00    +0.000 A 
ATOM     16 CL   UNL     1       8.271   5.656  19.181  0.00  0.00    +0.000 Cl
ATOM     17  C   UNL     1       5.584   5.482  19.209  0.00  0.00    +0.000 A 
ENDBRANCH   9  11
ENDBRANCH   1   8
BRANCH   2  18
ATOM     18  C   UNL     1       1.490   9.845  20.243  0.00  0.00    +0.000 C 
BRANCH  18  19
ATOM     19  N   UNL     1       0.192  10.305  19.805  0.00  0.00    +0.000 N 
ATOM     20  C   UNL     1      -0.653  10.954  20.669  0.00  0.00    +0.000 A 
ATOM     21  N   UNL     1      -1.808  11.415  20.344  0.00  0.00    +0.000 NA
ATOM     22  C   UNL     1      -2.262  11.231  19.029  0.00  0.00    +0.000 A 
ATOM     23  C   UNL     1      -3.507  11.756  18.646  0.00  0.00    +0.000 A 
ATOM     24  C   UNL     1      -4.321  12.628  19.561  0.00  0.00    +0.000 C 
ATOM     25  C   UNL     1      -4.012  11.465  17.366  0.00  0.00    +0.000 A 
ATOM     26  C   UNL     1      -3.272  10.704  16.458  0.00  0.00    +0.000 A 
ATOM     27  C   UNL     1      -2.007  10.239  16.811  0.00  0.00    +0.000 A 
ATOM     28  C   UNL     1      -1.518  10.503  18.094  0.00  0.00    +0.000 A 
ATOM     29  C   UNL     1      -0.184  10.018  18.501  0.00  0.00    +0.000 A 
ATOM     30  O   UNL     1       0.538   9.365  17.750  0.00  0.00    +0.000 OA
ENDBRANCH  18  19
ENDBRANCH   2  18
TORSDOF 4
ENDMDL
MODEL 9
REMARK VINA RESULT:      -8.3      1.853      2.351
REMARK  Name = 
REMARK  6 active torsions:
REMARK  status: ('A' for Active; 'I' for Inactive)
REMARK    1  A    between atoms: C_1  and  C_2
REMARK    2  A    between atoms: C_4  and  N_5
REMARK    3  A    between atoms: C_6  and  C_8
REMARK    4  A    between atoms: C_8  and  N_9
REMARK    5  A    between atoms: C_13  and  C_14
REMARK    6  A    between atoms: N_21  and  C_22
REMARK                            x       y       z     vdW  Elec       q    Type
REMARK                         _______ _______ _______ _____ _____    ______ ____
ROOT
ATOM      1  N   UNL     1       2.335   6.814  19.184  0.00  0.00    +0.000 N 
ATOM      2  C   UNL     1       1.727   7.896  19.897  0.00  0.00    +0.000 C 
ATOM      3  O   UNL     1       1.214   7.713  20.991  0.00  0.00    +0.000 OA
ATOM      4  H   UNL     1       2.730   6.976  18.257  0.00  0.00    +0.000 HD
ENDROOT
BRANCH   1   8
ATOM      5  C   UNL     1       1.525   2.591  21.695  0.00  0.00    +0.000 C 
ATOM      6  C   UNL     1       2.042   3.637  20.778  0.00  0.00    +0.000 A 
ATOM      7  C   UNL     1       1.649   4.993  20.706  0.00  0.00    +0.000 A 
ATOM      8  C   UNL     1       2.438   5.537  19.721  0.00  0.00    +0.000 A 
ATOM      9  N   UNL     1       3.310   4.534  19.318  0.00  0.00    +0.000 N 
ATOM     10  N   UNL     1       2.985   3.341  19.874  0.00  0.00    +0.000 NA
BRANCH   9  11
ATOM     11  C   UNL     1       4.483   4.684  18.532  0.00  0.00    +0.000 A 
ATOM     12  C   UNL     1       4.560   4.077  17.273  0.00  0.00    +0.000 A 
ATOM     13  C   UNL     1       5.713   4.234  16.495  0.00  0.00    +0.000 A 
ATOM     14  C   UNL     1       6.800   4.961  16.983  0.00  0.00    +0.000 A 
ATOM     15  C   UNL     1       6.737   5.525  18.253  0.00  0.00    +0.000 A 
ATOM     16 CL   UNL     1       8.089   6.375  18.892  0.00  0.00    +0.000 Cl
ATOM     17  C   UNL     1       5.585   5.397  19.028  0.00  0.00    +0.000 A 
ENDBRANCH   9  11
ENDBRANCH   1   8
BRANCH   2  18
ATOM     18  C   UNL     1       1.761   9.235  19.185  0.00  0.00    +0.000 C 
BRANCH  18  19
ATOM     19  N   UNL     1       0.826  10.114  19.850  0.00  0.00    +0.000 N 
ATOM     20  C   UNL     1       1.046  10.530  21.138  0.00  0.00    +0.000 A 
ATOM     21  N   UNL     1       0.276  11.332  21.783  0.00  0.00    +0.000 NA
ATOM     22  C   UNL     1      -0.885  11.804  21.152  0.00  0.00    +0.000 A 
ATOM     23  C   UNL     1      -1.723  12.706  21.827  0.00  0.00    +0.000 A 
ATOM     24  C   UNL     1      -1.352  13.293  23.162  0.00  0.00    +0.000 C 
ATOM     25  C   UNL     1      -2.945  13.081  21.242  0.00  0.00    +0.000 A 
ATOM     26  C   UNL     1      -3.313  12.606  19.981  0.00  0.00    +0.000 A 
ATOM     27  C   UNL     1      -2.453  11.764  19.278  0.00  0.00    +0.000 A 
ATOM     28  C   UNL     1      -1.251  11.368  19.874  0.00  0.00    +0.000 A 
ATOM     29  C   UNL     1      -0.321  10.472  19.158  0.00  0.00    +0.000 A 
ATOM     30  O   UNL     1      -0.561  10.034  18.034  0.00  0.00    +0.000 OA
ENDBRANCH  18  19
ENDBRANCH   2  18
TORSDOF 4
ENDMDL
