MODEL 1
REMARK VINA RESULT:      -8.4      0.000      0.000
REMARK  Name = 
REMARK  6 active torsions:
REMARK  status: ('A' for Active; 'I' for Inactive)
REMARK    1  A    between atoms: C_2  and  C_3
REMARK    2  A    between atoms: C_3  and  N_4
REMARK    3  A    between atoms: N_15  and  C_16
REMARK    4  A    between atoms: C_16  and  C_17
REMARK    5  A    between atoms: C_22  and  C_23
REMARK    6  A    between atoms: C_23  and  N_24
REMARK                            x       y       z     vdW  Elec       q    Type
REMARK                         _______ _______ _______ _____ _____    ______ ____
ROOT
ATOM      1  O   UNL     1       4.085   7.190  17.873  0.00  0.00    +0.000 OA
ATOM      2  C   UNL     1       2.865   7.339  17.861  0.00  0.00    +0.000 C 
ATOM      3  N   UNL     1       1.985   6.277  17.866  0.00  0.00    +0.000 N 
ATOM      4  H   UNL     1       0.986   6.468  17.806  0.00  0.00    +0.000 HD
ENDROOT
BRANCH   2   5
ATOM      5  C   UNL     1       2.222   8.724  17.912  0.00  0.00    +0.000 C 
BRANCH   5   6
ATOM      6  N   UNL     1       1.558   8.948  19.190  0.00  0.00    +0.000 N 
ATOM      7  N   UNL     1       1.781   8.007  20.156  0.00  0.00    +0.000 NA
ATOM      8  N   UNL     1       1.301   8.127  21.305  0.00  0.00    +0.000 NA
ATOM      9  C   UNL     1       0.475   9.215  21.612  0.00  0.00    +0.000 A 
ATOM     10  C   UNL     1      -0.045   9.335  22.905  0.00  0.00    +0.000 A 
ATOM     11  C   UNL     1      -0.891  10.398  23.242  0.00  0.00    +0.000 A 
ATOM     12  C   UNL     1      -1.240  11.345  22.280  0.00  0.00    +0.000 A 
ATOM     13  C   UNL     1      -0.715  11.247  20.993  0.00  0.00    +0.000 A 
ATOM     14  C   UNL     1       0.150  10.192  20.685  0.00  0.00    +0.000 A 
ATOM     15  C   UNL     1       0.797  10.080  19.384  0.00  0.00    +0.000 A 
ATOM     16  O   UNL     1       0.686  10.979  18.555  0.00  0.00    +0.000 OA
ENDBRANCH   5   6
ENDBRANCH   2   5
BRANCH   3  17
ATOM     17  C   UNL     1       2.439   4.914  17.721  0.00  0.00    +0.000 C 
BRANCH  17  18
ATOM     18  C   UNL     1       2.490   4.180  19.044  0.00  0.00    +0.000 A 
ATOM     19  C   UNL     1       1.416   4.366  19.937  0.00  0.00    +0.000 A 
ATOM     20  C   UNL     1       1.358   3.685  21.152  0.00  0.00    +0.000 A 
ATOM     21  C   UNL     1       2.378   2.811  21.506  0.00  0.00    +0.000 A 
ATOM     22  C   UNL     1       3.466   2.635  20.652  0.00  0.00    +0.000 A 
ATOM     23  C   UNL     1       3.545   3.315  19.418  0.00  0.00    +0.000 A 
BRANCH  23  24
ATOM     24  C   UNL     1       4.770   3.064  18.561  0.00  0.00    +0.000 C 
BRANCH  24  25
ATOM     25  N   UNL     1       5.696   4.193  18.494  0.00  0.00    +0.000 N 
ATOM     26  C   UNL     1       6.394   4.657  17.413  0.00  0.00    +0.000 A 
ATOM     27  C   UNL     1       7.291   5.579  17.896  0.00  0.00    +0.000 A 
ATOM     28  C   UNL     1       7.027   5.643  19.274  0.00  0.00    +0.000 A 
ATOM     29  N   UNL     1       6.046   4.818  19.644  0.00  0.00    +0.000 NA
ENDBRANCH  24  25
ENDBRANCH  23  24
ENDBRANCH  17  18
ENDBRANCH   3  17
TORSDOF 6
ENDMDL
MODEL 2
REMARK VINA RESULT:      -8.3      2.278      7.935
REMARK  Name = 
REMARK  6 active torsions:
REMARK  status: ('A' for Active; 'I' for Inactive)
REMARK    1  A    between atoms: C_2  and  C_3
REMARK    2  A    between atoms: C_3  and  N_4
REMARK    3  A    between atoms: N_15  and  C_16
REMARK    4  A    between atoms: C_16  and  C_17
REMARK    5  A    between atoms: C_22  and  C_23
REMARK    6  A    between atoms: C_23  and  N_24
REMARK                            x       y       z     vdW  Elec       q    Type
REMARK                         _______ _______ _______ _____ _____    ______ ____
ROOT
ATOM      1  O   UNL     1       0.778   3.957  20.120  0.00  0.00    +0.000 OA
ATOM      2  C   UNL     1       1.993   4.137  20.185  0.00  0.00    +0.000 C 
ATOM      3  N   UNL     1       2.547   5.318  20.635  0.00  0.00    +0.000 N 
ATOM      4  H   UNL     1       3.560   5.421  20.619  0.00  0.00    +0.000 HD
ENDROOT
BRANCH   2   5
ATOM      5  C   UNL     1       2.991   3.034  19.841  0.00  0.00    +0.000 C 
BRANCH   5   6
ATOM      6  N   UNL     1       4.048   3.534  18.971  0.00  0.00    +0.000 N 
ATOM      7  N   UNL     1       5.207   3.912  19.589  0.00  0.00    +0.000 NA
ATOM      8  N   UNL     1       6.196   4.308  18.933  0.00  0.00    +0.000 NA
ATOM      9  C   UNL     1       6.115   4.422  17.540  0.00  0.00    +0.000 A 
ATOM     10  C   UNL     1       7.234   4.859  16.824  0.00  0.00    +0.000 A 
ATOM     11  C   UNL     1       7.184   5.004  15.433  0.00  0.00    +0.000 A 
ATOM     12  C   UNL     1       6.003   4.728  14.744  0.00  0.00    +0.000 A 
ATOM     13  C   UNL     1       4.887   4.274  15.442  0.00  0.00    +0.000 A 
ATOM     14  C   UNL     1       4.968   4.111  16.829  0.00  0.00    +0.000 A 
ATOM     15  C   UNL     1       3.863   3.562  17.606  0.00  0.00    +0.000 A 
ATOM     16  O   UNL     1       2.866   3.120  17.043  0.00  0.00    +0.000 OA
ENDBRANCH   5   6
ENDBRANCH   2   5
BRANCH   3  17
ATOM     17  C   UNL     1       1.737   6.483  20.903  0.00  0.00    +0.000 C 
BRANCH  17  18
ATOM     18  C   UNL     1       1.860   7.532  19.819  0.00  0.00    +0.000 A 
ATOM     19  C   UNL     1       2.671   7.231  18.706  0.00  0.00    +0.000 A 
ATOM     20  C   UNL     1       2.794   8.120  17.639  0.00  0.00    +0.000 A 
ATOM     21  C   UNL     1       2.119   9.333  17.665  0.00  0.00    +0.000 A 
ATOM     22  C   UNL     1       1.337   9.665  18.770  0.00  0.00    +0.000 A 
ATOM     23  C   UNL     1       1.198   8.782  19.862  0.00  0.00    +0.000 A 
BRANCH  23  24
ATOM     24  C   UNL     1       0.333   9.236  21.020  0.00  0.00    +0.000 C 
BRANCH  24  25
ATOM     25  N   UNL     1       0.040  10.668  21.024  0.00  0.00    +0.000 N 
ATOM     26  C   UNL     1      -1.033  11.319  20.479  0.00  0.00    +0.000 A 
ATOM     27  C   UNL     1      -0.746  12.661  20.543  0.00  0.00    +0.000 A 
ATOM     28  C   UNL     1       0.499  12.729  21.189  0.00  0.00    +0.000 A 
ATOM     29  N   UNL     1       0.976  11.523  21.503  0.00  0.00    +0.000 NA
ENDBRANCH  24  25
ENDBRANCH  23  24
ENDBRANCH  17  18
ENDBRANCH   3  17
TORSDOF 6
ENDMDL
MODEL 3
REMARK VINA RESULT:      -7.9      3.083      7.759
REMARK  Name = 
REMARK  6 active torsions:
REMARK  status: ('A' for Active; 'I' for Inactive)
REMARK    1  A    between atoms: C_2  and  C_3
REMARK    2  A    between atoms: C_3  and  N_4
REMARK    3  A    between atoms: N_15  and  C_16
REMARK    4  A    between atoms: C_16  and  C_17
REMARK    5  A    between atoms: C_22  and  C_23
REMARK    6  A    between atoms: C_23  and  N_24
REMARK                            x       y       z     vdW  Elec       q    Type
REMARK                         _______ _______ _______ _____ _____    ______ ____
ROOT
ATOM      1  O   UNL     1       7.199   4.317  18.521  0.00  0.00    +0.000 OA
ATOM      2  C   UNL     1       6.308   5.109  18.220  0.00  0.00    +0.000 C 
ATOM      3  N   UNL     1       5.081   5.125  18.849  0.00  0.00    +0.000 N 
ATOM      4  H   UNL     1       4.369   5.774  18.520  0.00  0.00    +0.000 HD
ENDROOT
BRANCH   2   5
ATOM      5  C   UNL     1       6.518   6.195  17.167  0.00  0.00    +0.000 C 
BRANCH   5   6
ATOM      6  N   UNL     1       6.637   5.618  15.834  0.00  0.00    +0.000 N 
ATOM      7  N   UNL     1       7.799   5.883  15.165  0.00  0.00    +0.000 NA
ATOM      8  N   UNL     1       8.027   5.397  14.036  0.00  0.00    +0.000 NA
ATOM      9  C   UNL     1       7.062   4.603  13.405  0.00  0.00    +0.000 A 
ATOM     10  C   UNL     1       7.339   4.061  12.145  0.00  0.00    +0.000 A 
ATOM     11  C   UNL     1       6.390   3.280  11.477  0.00  0.00    +0.000 A 
ATOM     12  C   UNL     1       5.143   3.045  12.056  0.00  0.00    +0.000 A 
ATOM     13  C   UNL     1       4.861   3.564  13.318  0.00  0.00    +0.000 A 
ATOM     14  C   UNL     1       5.834   4.320  13.980  0.00  0.00    +0.000 A 
ATOM     15  C   UNL     1       5.631   4.819  15.335  0.00  0.00    +0.000 A 
ATOM     16  O   UNL     1       4.639   4.491  15.977  0.00  0.00    +0.000 OA
ENDBRANCH   5   6
ENDBRANCH   2   5
BRANCH   3  17
ATOM     17  C   UNL     1       4.700   4.101  19.795  0.00  0.00    +0.000 C 
BRANCH  17  18
ATOM     18  C   UNL     1       3.310   3.563  19.530  0.00  0.00    +0.000 A 
ATOM     19  C   UNL     1       3.200   2.378  18.775  0.00  0.00    +0.000 A 
ATOM     20  C   UNL     1       1.961   1.786  18.533  0.00  0.00    +0.000 A 
ATOM     21  C   UNL     1       0.804   2.370  19.032  0.00  0.00    +0.000 A 
ATOM     22  C   UNL     1       0.887   3.559  19.755  0.00  0.00    +0.000 A 
ATOM     23  C   UNL     1       2.129   4.176  20.011  0.00  0.00    +0.000 A 
BRANCH  23  24
ATOM     24  C   UNL     1       2.116   5.470  20.801  0.00  0.00    +0.000 C 
BRANCH  24  25
ATOM     25  N   UNL     1       1.975   6.671  19.980  0.00  0.00    +0.000 N 
ATOM     26  C   UNL     1       2.376   6.870  18.687  0.00  0.00    +0.000 A 
ATOM     27  C   UNL     1       2.231   8.214  18.438  0.00  0.00    +0.000 A 
ATOM     28  C   UNL     1       1.688   8.738  19.622  0.00  0.00    +0.000 A 
ATOM     29  N   UNL     1       1.511   7.805  20.559  0.00  0.00    +0.000 NA
ENDBRANCH  24  25
ENDBRANCH  23  24
ENDBRANCH  17  18
ENDBRANCH   3  17
TORSDOF 6
ENDMDL
MODEL 4
REMARK VINA RESULT:      -7.7      1.932      2.553
REMARK  Name = 
REMARK  6 active torsions:
REMARK  status: ('A' for Active; 'I' for Inactive)
REMARK    1  A    between atoms: C_2  and  C_3
REMARK    2  A    between atoms: C_3  and  N_4
REMARK    3  A    between atoms: N_15  and  C_16
REMARK    4  A    between atoms: C_16  and  C_17
REMARK    5  A    between atoms: C_22  and  C_23
REMARK    6  A    between atoms: C_23  and  N_24
REMARK                            x       y       z     vdW  Elec       q    Type
REMARK                         _______ _______ _______ _____ _____    ______ ____
ROOT
ATOM      1  O   UNL     1       2.695  10.092  17.702  0.00  0.00    +0.000 OA
ATOM      2  C   UNL     1       1.778   9.277  17.790  0.00  0.00    +0.000 C 
ATOM      3  N   UNL     1       1.995   7.927  17.971  0.00  0.00    +0.000 N 
ATOM      4  H   UNL     1       1.194   7.300  17.987  0.00  0.00    +0.000 HD
ENDROOT
BRANCH   2   5
ATOM      5  C   UNL     1       0.313   9.709  17.779  0.00  0.00    +0.000 C 
BRANCH   5   6
ATOM      6  N   UNL     1      -0.101  10.196  19.090  0.00  0.00    +0.000 N 
ATOM      7  N   UNL     1       0.437   9.551  20.168  0.00  0.00    +0.000 NA
ATOM      8  N   UNL     1       0.190   9.919  21.338  0.00  0.00    +0.000 NA
ATOM      9  C   UNL     1      -0.695  10.979  21.568  0.00  0.00    +0.000 A 
ATOM     10  C   UNL     1      -0.952  11.380  22.883  0.00  0.00    +0.000 A 
ATOM     11  C   UNL     1      -1.846  12.423  23.153  0.00  0.00    +0.000 A 
ATOM     12  C   UNL     1      -2.507  13.065  22.106  0.00  0.00    +0.000 A 
ATOM     13  C   UNL     1      -2.246  12.688  20.791  0.00  0.00    +0.000 A 
ATOM     14  C   UNL     1      -1.328  11.661  20.543  0.00  0.00    +0.000 A 
ATOM     15  C   UNL     1      -0.951  11.276  19.189  0.00  0.00    +0.000 A 
ATOM     16  O   UNL     1      -1.346  11.924  18.225  0.00  0.00    +0.000 OA
ENDBRANCH   5   6
ENDBRANCH   2   5
BRANCH   3  17
ATOM     17  C   UNL     1       3.321   7.357  17.904  0.00  0.00    +0.000 C 
BRANCH  17  18
ATOM     18  C   UNL     1       3.292   5.850  17.764  0.00  0.00    +0.000 A 
ATOM     19  C   UNL     1       2.281   5.148  18.450  0.00  0.00    +0.000 A 
ATOM     20  C   UNL     1       2.150   3.765  18.331  0.00  0.00    +0.000 A 
ATOM     21  C   UNL     1       3.035   3.052  17.532  0.00  0.00    +0.000 A 
ATOM     22  C   UNL     1       4.062   3.721  16.869  0.00  0.00    +0.000 A 
ATOM     23  C   UNL     1       4.214   5.120  16.976  0.00  0.00    +0.000 A 
BRANCH  23  24
ATOM     24  C   UNL     1       5.365   5.756  16.224  0.00  0.00    +0.000 C 
BRANCH  24  25
ATOM     25  N   UNL     1       6.484   6.162  17.074  0.00  0.00    +0.000 N 
ATOM     26  C   UNL     1       7.070   5.469  18.098  0.00  0.00    +0.000 A 
ATOM     27  C   UNL     1       7.916   6.350  18.728  0.00  0.00    +0.000 A 
ATOM     28  C   UNL     1       7.813   7.537  17.984  0.00  0.00    +0.000 A 
ATOM     29  N   UNL     1       6.959   7.426  16.964  0.00  0.00    +0.000 NA
ENDBRANCH  24  25
ENDBRANCH  23  24
ENDBRANCH  17  18
ENDBRANCH   3  17
TORSDOF 6
ENDMDL
MODEL 5
REMARK VINA RESULT:      -7.7      2.321      8.116
REMARK  Name = 
REMARK  6 active torsions:
REMARK  status: ('A' for Active; 'I' for Inactive)
REMARK    1  A    between atoms: C_2  and  C_3
REMARK    2  A    between atoms: C_3  and  N_4
REMARK    3  A    between atoms: N_15  and  C_16
REMARK    4  A    between atoms: C_16  and  C_17
REMARK    5  A    between atoms: C_22  and  C_23
REMARK    6  A    between atoms: C_23  and  N_24
REMARK                            x       y       z     vdW  Elec       q    Type
REMARK                         _______ _______ _______ _____ _____    ______ ____
ROOT
ATOM      1  O   UNL     1       0.965   4.043  20.597  0.00  0.00    +0.000 OA
ATOM      2  C   UNL     1       2.133   4.423  20.566  0.00  0.00    +0.000 C 
ATOM      3  N   UNL     1       2.497   5.731  20.813  0.00  0.00    +0.000 N 
ATOM      4  H   UNL     1       3.477   5.992  20.724  0.00  0.00    +0.000 HD
ENDROOT
BRANCH   2   5
ATOM      5  C   UNL     1       3.290   3.456  20.323  0.00  0.00    +0.000 C 
BRANCH   5   6
ATOM      6  N   UNL     1       3.893   3.678  19.014  0.00  0.00    +0.000 N 
ATOM      7  N   UNL     1       3.096   3.423  17.934  0.00  0.00    +0.000 NA
ATOM      8  N   UNL     1       3.495   3.628  16.766  0.00  0.00    +0.000 NA
ATOM      9  C   UNL     1       4.801   4.078  16.540  0.00  0.00    +0.000 A 
ATOM     10  C   UNL     1       5.227   4.308  15.227  0.00  0.00    +0.000 A 
ATOM     11  C   UNL     1       6.531   4.738  14.961  0.00  0.00    +0.000 A 
ATOM     12  C   UNL     1       7.432   4.928  16.009  0.00  0.00    +0.000 A 
ATOM     13  C   UNL     1       7.016   4.720  17.322  0.00  0.00    +0.000 A 
ATOM     14  C   UNL     1       5.700   4.315  17.567  0.00  0.00    +0.000 A 
ATOM     15  C   UNL     1       5.180   4.161  18.920  0.00  0.00    +0.000 A 
ATOM     16  O   UNL     1       5.857   4.494  19.888  0.00  0.00    +0.000 OA
ENDBRANCH   5   6
ENDBRANCH   2   5
BRANCH   3  17
ATOM     17  C   UNL     1       1.512   6.777  20.962  0.00  0.00    +0.000 C 
BRANCH  17  18
ATOM     18  C   UNL     1       1.653   7.854  19.908  0.00  0.00    +0.000 A 
ATOM     19  C   UNL     1       2.380   7.539  18.743  0.00  0.00    +0.000 A 
ATOM     20  C   UNL     1       2.510   8.455  17.700  0.00  0.00    +0.000 A 
ATOM     21  C   UNL     1       1.925   9.711  17.803  0.00  0.00    +0.000 A 
ATOM     22  C   UNL     1       1.228  10.056  18.960  0.00  0.00    +0.000 A 
ATOM     23  C   UNL     1       1.085   9.145  20.028  0.00  0.00    +0.000 A 
BRANCH  23  24
ATOM     24  C   UNL     1       0.315   9.614  21.246  0.00  0.00    +0.000 C 
BRANCH  24  25
ATOM     25  N   UNL     1      -0.161  10.994  21.159  0.00  0.00    +0.000 N 
ATOM     26  C   UNL     1      -1.253  11.476  20.489  0.00  0.00    +0.000 A 
ATOM     27  C   UNL     1      -1.151  12.846  20.518  0.00  0.00    +0.000 A 
ATOM     28  C   UNL     1       0.006  13.102  21.272  0.00  0.00    +0.000 A 
ATOM     29  N   UNL     1       0.604  11.982  21.682  0.00  0.00    +0.000 NA
ENDBRANCH  24  25
ENDBRANCH  23  24
ENDBRANCH  17  18
ENDBRANCH   3  17
TORSDOF 6
ENDMDL
MODEL 6
REMARK VINA RESULT:      -7.7      2.921      4.697
REMARK  Name = 
REMARK  6 active torsions:
REMARK  status: ('A' for Active; 'I' for Inactive)
REMARK    1  A    between atoms: C_2  and  C_3
REMARK    2  A    between atoms: C_3  and  N_4
REMARK    3  A    between atoms: N_15  and  C_16
REMARK    4  A    between atoms: C_16  and  C_17
REMARK    5  A    between atoms: C_22  and  C_23
REMARK    6  A    between atoms: C_23  and  N_24
REMARK                            x       y       z     vdW  Elec       q    Type
REMARK                         _______ _______ _______ _____ _____    ______ ____
ROOT
ATOM      1  O   UNL     1       0.524   8.215  21.264  0.00  0.00    +0.000 OA
ATOM      2  C   UNL     1       1.133   8.800  20.370  0.00  0.00    +0.000 C 
ATOM      3  N   UNL     1       1.950   8.145  19.473  0.00  0.00    +0.000 N 
ATOM      4  H   UNL     1       2.464   8.694  18.787  0.00  0.00    +0.000 HD
ENDROOT
BRANCH   2   5
ATOM      5  C   UNL     1       0.974  10.301  20.136  0.00  0.00    +0.000 C 
BRANCH   5   6
ATOM      6  N   UNL     1      -0.301  10.601  19.497  0.00  0.00    +0.000 N 
ATOM      7  N   UNL     1      -1.160  11.390  20.209  0.00  0.00    +0.000 NA
ATOM      8  N   UNL     1      -2.260  11.751  19.734  0.00  0.00    +0.000 NA
ATOM      9  C   UNL     1      -2.658  11.305  18.468  0.00  0.00    +0.000 A 
ATOM     10  C   UNL     1      -3.888  11.726  17.951  0.00  0.00    +0.000 A 
ATOM     11  C   UNL     1      -4.329  11.284  16.699  0.00  0.00    +0.000 A 
ATOM     12  C   UNL     1      -3.547  10.400  15.955  0.00  0.00    +0.000 A 
ATOM     13  C   UNL     1      -2.312   9.988  16.450  0.00  0.00    +0.000 A 
ATOM     14  C   UNL     1      -1.880  10.463  17.693  0.00  0.00    +0.000 A 
ATOM     15  C   UNL     1      -0.564  10.134  18.227  0.00  0.00    +0.000 A 
ATOM     16  O   UNL     1       0.250   9.520  17.544  0.00  0.00    +0.000 OA
ENDBRANCH   5   6
ENDBRANCH   2   5
BRANCH   3  17
ATOM     17  C   UNL     1       2.275   6.746  19.625  0.00  0.00    +0.000 C 
BRANCH  17  18
ATOM     18  C   UNL     1       3.121   6.224  18.484  0.00  0.00    +0.000 A 
ATOM     19  C   UNL     1       4.128   7.069  17.976  0.00  0.00    +0.000 A 
ATOM     20  C   UNL     1       4.987   6.645  16.962  0.00  0.00    +0.000 A 
ATOM     21  C   UNL     1       4.851   5.371  16.427  0.00  0.00    +0.000 A 
ATOM     22  C   UNL     1       3.841   4.529  16.892  0.00  0.00    +0.000 A 
ATOM     23  C   UNL     1       2.961   4.938  17.915  0.00  0.00    +0.000 A 
BRANCH  23  24
ATOM     24  C   UNL     1       1.892   3.955  18.349  0.00  0.00    +0.000 C 
BRANCH  24  25
ATOM     25  N   UNL     1       2.041   3.474  19.721  0.00  0.00    +0.000 N 
ATOM     26  C   UNL     1       3.163   2.986  20.334  0.00  0.00    +0.000 A 
ATOM     27  C   UNL     1       2.750   2.458  21.534  0.00  0.00    +0.000 A 
ATOM     28  C   UNL     1       1.371   2.718  21.582  0.00  0.00    +0.000 A 
ATOM     29  N   UNL     1       0.934   3.353  20.493  0.00  0.00    +0.000 NA
ENDBRANCH  24  25
ENDBRANCH  23  24
ENDBRANCH  17  18
ENDBRANCH   3  17
TORSDOF 6
ENDMDL
MODEL 7
REMARK VINA RESULT:      -7.6      2.562      3.266
REMARK  Name = 
REMARK  6 active torsions:
REMARK  status: ('A' for Active; 'I' for Inactive)
REMARK    1  A    between atoms: C_2  and  C_3
REMARK    2  A    between atoms: C_3  and  N_4
REMARK    3  A    between atoms: N_15  and  C_16
REMARK    4  A    between atoms: C_16  and  C_17
REMARK    5  A    between atoms: C_22  and  C_23
REMARK    6  A    between atoms: C_23  and  N_24
REMARK                            x       y       z     vdW  Elec       q    Type
REMARK                         _______ _______ _______ _____ _____    ______ ____
ROOT
ATOM      1  O   UNL     1       2.206   9.562  17.426  0.00  0.00    +0.000 OA
ATOM      2  C   UNL     1       1.739   9.239  18.516  0.00  0.00    +0.000 C 
ATOM      3  N   UNL     1       1.967   8.005  19.089  0.00  0.00    +0.000 N 
ATOM      4  H   UNL     1       1.512   7.783  19.972  0.00  0.00    +0.000 HD
ENDROOT
BRANCH   2   5
ATOM      5  C   UNL     1       0.922  10.213  19.363  0.00  0.00    +0.000 C 
BRANCH   5   6
ATOM      6  N   UNL     1      -0.408  10.410  18.801  0.00  0.00    +0.000 N 
ATOM      7  N   UNL     1      -0.671   9.752  17.633  0.00  0.00    +0.000 NA
ATOM      8  N   UNL     1      -1.797   9.810  17.091  0.00  0.00    +0.000 NA
ATOM      9  C   UNL     1      -2.806  10.602  17.651  0.00  0.00    +0.000 A 
ATOM     10  C   UNL     1      -4.061  10.648  17.034  0.00  0.00    +0.000 A 
ATOM     11  C   UNL     1      -5.087  11.444  17.554  0.00  0.00    +0.000 A 
ATOM     12  C   UNL     1      -4.862  12.219  18.692  0.00  0.00    +0.000 A 
ATOM     13  C   UNL     1      -3.623  12.169  19.327  0.00  0.00    +0.000 A 
ATOM     14  C   UNL     1      -2.620  11.345  18.805  0.00  0.00    +0.000 A 
ATOM     15  C   UNL     1      -1.332  11.186  19.468  0.00  0.00    +0.000 A 
ATOM     16  O   UNL     1      -1.134  11.687  20.571  0.00  0.00    +0.000 OA
ENDBRANCH   5   6
ENDBRANCH   2   5
BRANCH   3  17
ATOM     17  C   UNL     1       2.637   6.947  18.369  0.00  0.00    +0.000 C 
BRANCH  17  18
ATOM     18  C   UNL     1       2.718   5.667  19.172  0.00  0.00    +0.000 A 
ATOM     19  C   UNL     1       1.810   5.503  20.237  0.00  0.00    +0.000 A 
ATOM     20  C   UNL     1       1.782   4.331  20.991  0.00  0.00    +0.000 A 
ATOM     21  C   UNL     1       2.667   3.300  20.704  0.00  0.00    +0.000 A 
ATOM     22  C   UNL     1       3.595   3.453  19.675  0.00  0.00    +0.000 A 
ATOM     23  C   UNL     1       3.643   4.630  18.900  0.00  0.00    +0.000 A 
BRANCH  23  24
ATOM     24  C   UNL     1       4.691   4.705  17.809  0.00  0.00    +0.000 C 
BRANCH  24  25
ATOM     25  N   UNL     1       5.881   5.474  18.172  0.00  0.00    +0.000 N 
ATOM     26  C   UNL     1       6.431   6.546  17.523  0.00  0.00    +0.000 A 
ATOM     27  C   UNL     1       7.651   6.772  18.114  0.00  0.00    +0.000 A 
ATOM     28  C   UNL     1       7.730   5.820  19.143  0.00  0.00    +0.000 A 
ATOM     29  N   UNL     1       6.649   5.038  19.199  0.00  0.00    +0.000 NA
ENDBRANCH  24  25
ENDBRANCH  23  24
ENDBRANCH  17  18
ENDBRANCH   3  17
TORSDOF 6
ENDMDL
MODEL 8
REMARK VINA RESULT:      -7.6      2.677      4.389
REMARK  Name = 
REMARK  6 active torsions:
REMARK  status: ('A' for Active; 'I' for Inactive)
REMARK    1  A    between atoms: C_2  and  C_3
REMARK    2  A    between atoms: C_3  and  N_4
REMARK    3  A    between atoms: N_15  and  C_16
REMARK    4  A    between atoms: C_16  and  C_17
REMARK    5  A    between atoms: C_22  and  C_23
REMARK    6  A    between atoms: C_23  and  N_24
REMARK                            x       y       z     vdW  Elec       q    Type
REMARK                         _______ _______ _______ _____ _____    ______ ____
ROOT
ATOM      1  O   UNL     1       1.022   8.790  20.135  0.00  0.00    +0.000 OA
ATOM      2  C   UNL     1       1.452   9.012  19.005  0.00  0.00    +0.000 C 
ATOM      3  N   UNL     1       2.178   8.083  18.289  0.00  0.00    +0.000 N 
ATOM      4  H   UNL     1       2.548   8.346  17.378  0.00  0.00    +0.000 HD
ENDROOT
BRANCH   2   5
ATOM      5  C   UNL     1       1.151  10.316  18.269  0.00  0.00    +0.000 C 
BRANCH   5   6
ATOM      6  N   UNL     1      -0.161  10.835  18.635  0.00  0.00    +0.000 N 
ATOM      7  N   UNL     1      -0.183  11.755  19.646  0.00  0.00    +0.000 NA
ATOM      8  N   UNL     1      -1.248  12.302  20.007  0.00  0.00    +0.000 NA
ATOM      9  C   UNL     1      -2.461  11.941  19.407  0.00  0.00    +0.000 A 
ATOM     10  C   UNL     1      -3.641  12.570  19.819  0.00  0.00    +0.000 A 
ATOM     11  C   UNL     1      -4.873  12.221  19.257  0.00  0.00    +0.000 A 
ATOM     12  C   UNL     1      -4.941  11.222  18.286  0.00  0.00    +0.000 A 
ATOM     13  C   UNL     1      -3.771  10.599  17.854  0.00  0.00    +0.000 A 
ATOM     14  C   UNL     1      -2.547  10.984  18.411  0.00  0.00    +0.000 A 
ATOM     15  C   UNL     1      -1.282  10.430  17.944  0.00  0.00    +0.000 A 
ATOM     16  O   UNL     1      -1.250   9.691  16.965  0.00  0.00    +0.000 OA
ENDBRANCH   5   6
ENDBRANCH   2   5
BRANCH   3  17
ATOM     17  C   UNL     1       2.624   6.845  18.886  0.00  0.00    +0.000 C 
BRANCH  17  18
ATOM     18  C   UNL     1       3.450   6.011  17.931  0.00  0.00    +0.000 A 
ATOM     19  C   UNL     1       4.619   6.591  17.397  0.00  0.00    +0.000 A 
ATOM     20  C   UNL     1       5.464   5.872  16.554  0.00  0.00    +0.000 A 
ATOM     21  C   UNL     1       5.156   4.560  16.217  0.00  0.00    +0.000 A 
ATOM     22  C   UNL     1       3.989   3.976  16.708  0.00  0.00    +0.000 A 
ATOM     23  C   UNL     1       3.118   4.686  17.562  0.00  0.00    +0.000 A 
BRANCH  23  24
ATOM     24  C   UNL     1       1.871   3.968  18.038  0.00  0.00    +0.000 C 
BRANCH  24  25
ATOM     25  N   UNL     1       1.947   3.486  19.417  0.00  0.00    +0.000 N 
ATOM     26  C   UNL     1       1.117   3.776  20.465  0.00  0.00    +0.000 A 
ATOM     27  C   UNL     1       1.725   3.273  21.591  0.00  0.00    +0.000 A 
ATOM     28  C   UNL     1       2.892   2.652  21.117  0.00  0.00    +0.000 A 
ATOM     29  N   UNL     1       3.026   2.760  19.794  0.00  0.00    +0.000 NA
ENDBRANCH  24  25
ENDBRANCH  23  24
ENDBRANCH  17  18
ENDBRANCH   3  17
TORSDOF 6
ENDMDL
MODEL 9
REMARK VINA RESULT:      -7.6      2.881      8.032
REMARK  Name = 
REMARK  6 active torsions:
REMARK  status: ('A' for Active; 'I' for Inactive)
REMARK    1  A    between atoms: C_2  and  C_3
REMARK    2  A    between atoms: C_3  and  N_4
REMARK    3  A    between atoms: N_15  and  C_16
REMARK    4  A    between atoms: C_16  and  C_17
REMARK    5  A    between atoms: C_22  and  C_23
REMARK    6  A    between atoms: C_23  and  N_24
REMARK                            x       y       z     vdW  Elec       q    Type
REMARK                         _______ _______ _______ _____ _____    ______ ____
ROOT
ATOM      1  O   UNL     1       5.206   5.524  19.664  0.00  0.00    +0.000 OA
ATOM      2  C   UNL     1       5.424   5.333  18.469  0.00  0.00    +0.000 C 
ATOM      3  N   UNL     1       4.581   5.788  17.477  0.00  0.00    +0.000 N 
ATOM      4  H   UNL     1       4.792   5.554  16.509  0.00  0.00    +0.000 HD
ENDROOT
BRANCH   2   5
ATOM      5  C   UNL     1       6.691   4.633  17.982  0.00  0.00    +0.000 C 
BRANCH   5   6
ATOM      6  N   UNL     1       6.789   4.676  16.529  0.00  0.00    +0.000 N 
ATOM      7  N   UNL     1       7.639   5.613  16.011  0.00  0.00    +0.000 NA
ATOM      8  N   UNL     1       7.838   5.703  14.779  0.00  0.00    +0.000 NA
ATOM      9  C   UNL     1       7.146   4.869  13.893  0.00  0.00    +0.000 A 
ATOM     10  C   UNL     1       7.388   4.981  12.520  0.00  0.00    +0.000 A 
ATOM     11  C   UNL     1       6.699   4.178  11.603  0.00  0.00    +0.000 A 
ATOM     12  C   UNL     1       5.745   3.265  12.052  0.00  0.00    +0.000 A 
ATOM     13  C   UNL     1       5.508   3.131  13.418  0.00  0.00    +0.000 A 
ATOM     14  C   UNL     1       6.227   3.925  14.319  0.00  0.00    +0.000 A 
ATOM     15  C   UNL     1       6.084   3.775  15.761  0.00  0.00    +0.000 A 
ATOM     16  O   UNL     1       5.408   2.863  16.228  0.00  0.00    +0.000 OA
ENDBRANCH   5   6
ENDBRANCH   2   5
BRANCH   3  17
ATOM     17  C   UNL     1       3.299   6.380  17.782  0.00  0.00    +0.000 C 
BRANCH  17  18
ATOM     18  C   UNL     1       2.381   5.421  18.509  0.00  0.00    +0.000 A 
ATOM     19  C   UNL     1       1.980   4.255  17.827  0.00  0.00    +0.000 A 
ATOM     20  C   UNL     1       1.180   3.294  18.445  0.00  0.00    +0.000 A 
ATOM     21  C   UNL     1       0.756   3.482  19.754  0.00  0.00    +0.000 A 
ATOM     22  C   UNL     1       1.115   4.643  20.437  0.00  0.00    +0.000 A 
ATOM     23  C   UNL     1       1.922   5.629  19.832  0.00  0.00    +0.000 A 
BRANCH  23  24
ATOM     24  C   UNL     1       2.253   6.859  20.653  0.00  0.00    +0.000 C 
BRANCH  24  25
ATOM     25  N   UNL     1       1.339   7.982  20.446  0.00  0.00    +0.000 N 
ATOM     26  C   UNL     1       1.358   8.920  19.450  0.00  0.00    +0.000 A 
ATOM     27  C   UNL     1       0.449   9.886  19.811  0.00  0.00    +0.000 A 
ATOM     28  C   UNL     1      -0.107   9.420  21.014  0.00  0.00    +0.000 A 
ATOM     29  N   UNL     1       0.415   8.253  21.398  0.00  0.00    +0.000 NA
ENDBRANCH  24  25
ENDBRANCH  23  24
ENDBRANCH  17  18
ENDBRANCH   3  17
TORSDOF 6
ENDMDL
