MODEL 1
REMARK VINA RESULT:      -8.6      0.000      0.000
REMARK  Name = 
REMARK  4 active torsions:
REMARK  status: ('A' for Active; 'I' for Inactive)
REMARK    1  A    between atoms: C_2  and  C_3
REMARK    2  A    between atoms: C_6  and  O_7
REMARK    3  A    between atoms: O_7  and  C_8
REMARK    4  A    between atoms: C_20  and  C_21
REMARK                            x       y       z     vdW  Elec       q    Type
REMARK                         _______ _______ _______ _____ _____    ______ ____
ROOT
ATOM      1  O   UNL     1      -1.655  11.916  19.854  0.00  0.00    +0.000 OA
ATOM      2  C   UNL     1      -1.507  10.954  19.107  0.00  0.00    +0.000 C 
ATOM      3  N   UNL     1      -2.413  10.661  18.084  0.00  0.00    +0.000 N 
ATOM      4  C   UNL     1      -2.279   9.641  17.053  0.00  0.00    +0.000 C 
ATOM      5  C   UNL     1      -2.780  10.287  15.786  0.00  0.00    +0.000 C 
ATOM      6  C   UNL     1      -3.874  11.213  16.275  0.00  0.00    +0.000 C 
ATOM      7  C   UNL     1      -3.430  11.648  17.693  0.00  0.00    +0.000 C 
ENDROOT
BRANCH   7   8
ATOM      8  C   UNL     1      -4.674  11.723  18.563  0.00  0.00    +0.000 A 
ATOM      9  C   UNL     1      -5.688  10.745  18.396  0.00  0.00    +0.000 A 
ATOM     10  C   UNL     1      -6.745  10.622  19.309  0.00  0.00    +0.000 A 
ATOM     11  C   UNL     1      -6.742  11.469  20.391  0.00  0.00    +0.000 A 
ATOM     12  C   UNL     1      -5.779  12.440  20.549  0.00  0.00    +0.000 A 
ATOM     13  C   UNL     1      -4.751  12.608  19.647  0.00  0.00    +0.000 A 
ATOM     14  O   UNL     1      -5.940  13.141  21.704  0.00  0.00    +0.000 OA
ATOM     15  C   UNL     1      -7.020  12.404  22.312  0.00  0.00    +0.000 C 
ATOM     16  O   UNL     1      -7.621  11.438  21.426  0.00  0.00    +0.000 OA
ENDBRANCH   7   8
BRANCH   2  17
ATOM     17  C   UNL     1      -0.229  10.170  19.224  0.00  0.00    +0.000 A 
ATOM     18  C   UNL     1       0.184   9.510  20.388  0.00  0.00    +0.000 A 
ATOM     19  C   UNL     1       1.216   8.563  20.349  0.00  0.00    +0.000 A 
ATOM     20  C   UNL     1       1.892   8.318  19.154  0.00  0.00    +0.000 A 
ATOM     21  C   UNL     1       1.609   9.106  18.037  0.00  0.00    +0.000 A 
ATOM     22  C   UNL     1       0.548  10.018  18.066  0.00  0.00    +0.000 A 
BRANCH  20  23
ATOM     23  O   UNL     1       2.901   7.398  19.003  0.00  0.00    +0.000 OA
BRANCH  23  24
ATOM     24  C   UNL     1       2.622   6.057  18.906  0.00  0.00    +0.000 A 
ATOM     25  C   UNL     1       1.817   5.452  17.943  0.00  0.00    +0.000 A 
ATOM     26  C   UNL     1       1.618   4.070  17.983  0.00  0.00    +0.000 A 
ATOM     27  C   UNL     1       2.273   3.336  18.960  0.00  0.00    +0.000 A 
ATOM     28  N   UNL     1       3.103   3.880  19.872  0.00  0.00    +0.000 NA
ATOM     29  C   UNL     1       3.261   5.226  19.818  0.00  0.00    +0.000 A 
ENDBRANCH  23  24
ENDBRANCH  20  23
ENDBRANCH   2  17
TORSDOF 4
ENDMDL
MODEL 2
REMARK VINA RESULT:      -8.6      3.023      4.073
REMARK  Name = 
REMARK  4 active torsions:
REMARK  status: ('A' for Active; 'I' for Inactive)
REMARK    1  A    between atoms: C_2  and  C_3
REMARK    2  A    between atoms: C_6  and  O_7
REMARK    3  A    between atoms: O_7  and  C_8
REMARK    4  A    between atoms: C_20  and  C_21
REMARK                            x       y       z     vdW  Elec       q    Type
REMARK                         _______ _______ _______ _____ _____    ______ ____
ROOT
ATOM      1  O   UNL     1       1.363  10.674  21.651  0.00  0.00    +0.000 OA
ATOM      2  C   UNL     1       0.834  10.462  20.563  0.00  0.00    +0.000 C 
ATOM      3  N   UNL     1      -0.071  11.357  19.989  0.00  0.00    +0.000 N 
ATOM      4  C   UNL     1      -0.653  11.289  18.656  0.00  0.00    +0.000 C 
ATOM      5  C   UNL     1      -0.649  12.708  18.145  0.00  0.00    +0.000 C 
ATOM      6  C   UNL     1      -0.873  13.530  19.397  0.00  0.00    +0.000 C 
ATOM      7  C   UNL     1      -0.217  12.713  20.538  0.00  0.00    +0.000 C 
ENDROOT
BRANCH   7   8
ATOM      8  C   UNL     1      -1.096  12.855  21.770  0.00  0.00    +0.000 A 
ATOM      9  C   UNL     1      -0.711  13.768  22.786  0.00  0.00    +0.000 A 
ATOM     10  C   UNL     1      -1.582  14.111  23.830  0.00  0.00    +0.000 A 
ATOM     11  C   UNL     1      -2.836  13.550  23.812  0.00  0.00    +0.000 A 
ATOM     12  C   UNL     1      -3.212  12.643  22.847  0.00  0.00    +0.000 A 
ATOM     13  C   UNL     1      -2.363  12.259  21.832  0.00  0.00    +0.000 A 
ATOM     14  O   UNL     1      -4.504  12.243  22.991  0.00  0.00    +0.000 OA
ATOM     15  C   UNL     1      -4.931  13.109  24.062  0.00  0.00    +0.000 C 
ATOM     16  O   UNL     1      -3.846  13.835  24.676  0.00  0.00    +0.000 OA
ENDBRANCH   7   8
BRANCH   2  17
ATOM     17  C   UNL     1       1.306   9.267  19.781  0.00  0.00    +0.000 A 
ATOM     18  C   UNL     1       1.646   9.302  18.422  0.00  0.00    +0.000 A 
ATOM     19  C   UNL     1       2.353   8.246  17.832  0.00  0.00    +0.000 A 
ATOM     20  C   UNL     1       2.667   7.113  18.581  0.00  0.00    +0.000 A 
ATOM     21  C   UNL     1       2.169   6.994  19.880  0.00  0.00    +0.000 A 
ATOM     22  C   UNL     1       1.503   8.068  20.481  0.00  0.00    +0.000 A 
BRANCH  20  23
ATOM     23  O   UNL     1       3.374   6.034  18.105  0.00  0.00    +0.000 OA
BRANCH  23  24
ATOM     24  C   UNL     1       4.743   5.993  18.200  0.00  0.00    +0.000 A 
ATOM     25  C   UNL     1       5.647   6.620  17.344  0.00  0.00    +0.000 A 
ATOM     26  C   UNL     1       7.018   6.474  17.565  0.00  0.00    +0.000 A 
ATOM     27  C   UNL     1       7.435   5.745  18.668  0.00  0.00    +0.000 A 
ATOM     28  N   UNL     1       6.590   5.173  19.549  0.00  0.00    +0.000 NA
ATOM     29  C   UNL     1       5.265   5.317  19.296  0.00  0.00    +0.000 A 
ENDBRANCH  23  24
ENDBRANCH  20  23
ENDBRANCH   2  17
TORSDOF 4
ENDMDL
MODEL 3
REMARK VINA RESULT:      -8.5      3.814     10.764
REMARK  Name = 
REMARK  4 active torsions:
REMARK  status: ('A' for Active; 'I' for Inactive)
REMARK    1  A    between atoms: C_2  and  C_3
REMARK    2  A    between atoms: C_6  and  O_7
REMARK    3  A    between atoms: O_7  and  C_8
REMARK    4  A    between atoms: C_20  and  C_21
REMARK                            x       y       z     vdW  Elec       q    Type
REMARK                         _______ _______ _______ _____ _____    ______ ____
ROOT
ATOM      1  O   UNL     1       5.043   6.967  17.751  0.00  0.00    +0.000 OA
ATOM      2  C   UNL     1       3.905   6.511  17.805  0.00  0.00    +0.000 C 
ATOM      3  N   UNL     1       3.630   5.166  17.546  0.00  0.00    +0.000 N 
ATOM      4  C   UNL     1       2.356   4.480  17.711  0.00  0.00    +0.000 C 
ATOM      5  C   UNL     1       2.701   3.135  18.301  0.00  0.00    +0.000 C 
ATOM      6  C   UNL     1       4.045   2.816  17.680  0.00  0.00    +0.000 C 
ATOM      7  C   UNL     1       4.727   4.191  17.466  0.00  0.00    +0.000 C 
ENDROOT
BRANCH   7   8
ATOM      8  C   UNL     1       5.485   4.128  16.150  0.00  0.00    +0.000 A 
ATOM      9  C   UNL     1       4.872   3.502  15.034  0.00  0.00    +0.000 A 
ATOM     10  C   UNL     1       5.415   3.609  13.746  0.00  0.00    +0.000 A 
ATOM     11  C   UNL     1       6.550   4.371  13.603  0.00  0.00    +0.000 A 
ATOM     12  C   UNL     1       7.168   4.960  14.683  0.00  0.00    +0.000 A 
ATOM     13  C   UNL     1       6.678   4.840  15.965  0.00  0.00    +0.000 A 
ATOM     14  O   UNL     1       8.250   5.699  14.316  0.00  0.00    +0.000 OA
ATOM     15  C   UNL     1       8.148   5.621  12.879  0.00  0.00    +0.000 C 
ATOM     16  O   UNL     1       7.162   4.671  12.428  0.00  0.00    +0.000 OA
ENDBRANCH   7   8
BRANCH   2  17
ATOM     17  C   UNL     1       2.815   7.416  18.310  0.00  0.00    +0.000 A 
ATOM     18  C   UNL     1       2.249   7.326  19.588  0.00  0.00    +0.000 A 
ATOM     19  C   UNL     1       1.463   8.367  20.101  0.00  0.00    +0.000 A 
ATOM     20  C   UNL     1       1.181   9.481  19.311  0.00  0.00    +0.000 A 
ATOM     21  C   UNL     1       1.588   9.490  17.975  0.00  0.00    +0.000 A 
ATOM     22  C   UNL     1       2.409   8.471  17.480  0.00  0.00    +0.000 A 
BRANCH  20  23
ATOM     23  O   UNL     1       0.442  10.563  19.724  0.00  0.00    +0.000 OA
BRANCH  23  24
ATOM     24  C   UNL     1      -0.807  10.800  19.205  0.00  0.00    +0.000 A 
ATOM     25  C   UNL     1      -1.455  10.037  18.235  0.00  0.00    +0.000 A 
ATOM     26  C   UNL     1      -2.726  10.415  17.799  0.00  0.00    +0.000 A 
ATOM     27  C   UNL     1      -3.326  11.519  18.385  0.00  0.00    +0.000 A 
ATOM     28  N   UNL     1      -2.753  12.247  19.366  0.00  0.00    +0.000 NA
ATOM     29  C   UNL     1      -1.511  11.865  19.754  0.00  0.00    +0.000 A 
ENDBRANCH  23  24
ENDBRANCH  20  23
ENDBRANCH   2  17
TORSDOF 4
ENDMDL
MODEL 4
REMARK VINA RESULT:      -8.4      2.781      3.627
REMARK  Name = 
REMARK  4 active torsions:
REMARK  status: ('A' for Active; 'I' for Inactive)
REMARK    1  A    between atoms: C_2  and  C_3
REMARK    2  A    between atoms: C_6  and  O_7
REMARK    3  A    between atoms: O_7  and  C_8
REMARK    4  A    between atoms: C_20  and  C_21
REMARK                            x       y       z     vdW  Elec       q    Type
REMARK                         _______ _______ _______ _____ _____    ______ ____
ROOT
ATOM      1  O   UNL     1       1.223  10.709  21.743  0.00  0.00    +0.000 OA
ATOM      2  C   UNL     1       0.745  10.561  20.623  0.00  0.00    +0.000 C 
ATOM      3  N   UNL     1      -0.089  11.517  20.038  0.00  0.00    +0.000 N 
ATOM      4  C   UNL     1      -0.603  11.524  18.676  0.00  0.00    +0.000 C 
ATOM      5  C   UNL     1      -0.510  12.959  18.221  0.00  0.00    +0.000 C 
ATOM      6  C   UNL     1      -0.764  13.744  19.491  0.00  0.00    +0.000 C 
ATOM      7  C   UNL     1      -0.206  12.857  20.632  0.00  0.00    +0.000 C 
ENDROOT
BRANCH   7   8
ATOM      8  C   UNL     1      -1.141  12.993  21.821  0.00  0.00    +0.000 A 
ATOM      9  C   UNL     1      -0.820  13.923  22.844  0.00  0.00    +0.000 A 
ATOM     10  C   UNL     1      -1.743  14.259  23.845  0.00  0.00    +0.000 A 
ATOM     11  C   UNL     1      -2.984  13.674  23.776  0.00  0.00    +0.000 A 
ATOM     12  C   UNL     1      -3.299  12.750  22.805  0.00  0.00    +0.000 A 
ATOM     13  C   UNL     1      -2.398  12.373  21.833  0.00  0.00    +0.000 A 
ATOM     14  O   UNL     1      -4.588  12.325  22.896  0.00  0.00    +0.000 OA
ATOM     15  C   UNL     1      -5.079  13.194  23.938  0.00  0.00    +0.000 C 
ATOM     16  O   UNL     1      -4.037  13.946  24.592  0.00  0.00    +0.000 OA
ENDBRANCH   7   8
BRANCH   2  17
ATOM     17  C   UNL     1       1.204   9.375  19.820  0.00  0.00    +0.000 A 
ATOM     18  C   UNL     1       1.483   9.417  18.447  0.00  0.00    +0.000 A 
ATOM     19  C   UNL     1       2.184   8.375  17.825  0.00  0.00    +0.000 A 
ATOM     20  C   UNL     1       2.554   7.248  18.559  0.00  0.00    +0.000 A 
ATOM     21  C   UNL     1       2.116   7.120  19.879  0.00  0.00    +0.000 A 
ATOM     22  C   UNL     1       1.456   8.181  20.510  0.00  0.00    +0.000 A 
BRANCH  20  23
ATOM     23  O   UNL     1       3.259   6.184  18.052  0.00  0.00    +0.000 OA
BRANCH  23  24
ATOM     24  C   UNL     1       2.877   4.893  18.323  0.00  0.00    +0.000 A 
ATOM     25  C   UNL     1       1.718   4.265  17.869  0.00  0.00    +0.000 A 
ATOM     26  C   UNL     1       1.462   2.944  18.242  0.00  0.00    +0.000 A 
ATOM     27  C   UNL     1       2.400   2.282  19.018  0.00  0.00    +0.000 A 
ATOM     28  N   UNL     1       3.558   2.839  19.428  0.00  0.00    +0.000 NA
ATOM     29  C   UNL     1       3.769   4.128  19.065  0.00  0.00    +0.000 A 
ENDBRANCH  23  24
ENDBRANCH  20  23
ENDBRANCH   2  17
TORSDOF 4
ENDMDL
MODEL 5
REMARK VINA RESULT:      -8.3      4.407      6.088
REMARK  Name = 
REMARK  4 active torsions:
REMARK  status: ('A' for Active; 'I' for Inactive)
REMARK    1  A    between atoms: C_2  and  C_3
REMARK    2  A    between atoms: C_6  and  O_7
REMARK    3  A    between atoms: O_7  and  C_8
REMARK    4  A    between atoms: C_20  and  C_21
REMARK                            x       y       z     vdW  Elec       q    Type
REMARK                         _______ _______ _______ _____ _____    ______ ____
ROOT
ATOM      1  O   UNL     1       1.607   9.214  17.332  0.00  0.00    +0.000 OA
ATOM      2  C   UNL     1       1.892   8.581  18.344  0.00  0.00    +0.000 C 
ATOM      3  N   UNL     1       1.362   8.903  19.596  0.00  0.00    +0.000 N 
ATOM      4  C   UNL     1       1.511   8.153  20.835  0.00  0.00    +0.000 C 
ATOM      5  C   UNL     1       0.156   8.201  21.497  0.00  0.00    +0.000 C 
ATOM      6  C   UNL     1      -0.378   9.560  21.096  0.00  0.00    +0.000 C 
ATOM      7  C   UNL     1       0.235   9.841  19.702  0.00  0.00    +0.000 C 
ENDROOT
BRANCH   7   8
ATOM      8  C   UNL     1       0.575  11.321  19.637  0.00  0.00    +0.000 A 
ATOM      9  C   UNL     1      -0.079  12.133  18.674  0.00  0.00    +0.000 A 
ATOM     10  C   UNL     1       0.018  13.531  18.710  0.00  0.00    +0.000 A 
ATOM     11  C   UNL     1       0.747  14.085  19.735  0.00  0.00    +0.000 A 
ATOM     12  C   UNL     1       1.407  13.307  20.659  0.00  0.00    +0.000 A 
ATOM     13  C   UNL     1       1.361  11.930  20.624  0.00  0.00    +0.000 A 
ATOM     14  O   UNL     1       2.034  14.053  21.608  0.00  0.00    +0.000 OA
ATOM     15  C   UNL     1       1.570  15.373  21.254  0.00  0.00    +0.000 C 
ATOM     16  O   UNL     1       0.873  15.413  19.993  0.00  0.00    +0.000 OA
ENDBRANCH   7   8
BRANCH   2  17
ATOM     17  C   UNL     1       2.722   7.338  18.178  0.00  0.00    +0.000 A 
ATOM     18  C   UNL     1       2.216   6.036  18.286  0.00  0.00    +0.000 A 
ATOM     19  C   UNL     1       2.958   4.937  17.832  0.00  0.00    +0.000 A 
ATOM     20  C   UNL     1       4.244   5.126  17.327  0.00  0.00    +0.000 A 
ATOM     21  C   UNL     1       4.822   6.395  17.389  0.00  0.00    +0.000 A 
ATOM     22  C   UNL     1       4.063   7.497  17.801  0.00  0.00    +0.000 A 
BRANCH  20  23
ATOM     23  O   UNL     1       5.045   4.122  16.837  0.00  0.00    +0.000 OA
BRANCH  23  24
ATOM     24  C   UNL     1       5.743   4.288  15.666  0.00  0.00    +0.000 A 
ATOM     25  C   UNL     1       5.321   3.903  14.395  0.00  0.00    +0.000 A 
ATOM     26  C   UNL     1       6.154   4.131  13.297  0.00  0.00    +0.000 A 
ATOM     27  C   UNL     1       7.360   4.780  13.504  0.00  0.00    +0.000 A 
ATOM     28  N   UNL     1       7.775   5.217  14.711  0.00  0.00    +0.000 NA
ATOM     29  C   UNL     1       6.953   4.965  15.760  0.00  0.00    +0.000 A 
ENDBRANCH  23  24
ENDBRANCH  20  23
ENDBRANCH   2  17
TORSDOF 4
ENDMDL
MODEL 6
REMARK VINA RESULT:      -8.3      3.019      4.486
REMARK  Name = 
REMARK  4 active torsions:
REMARK  status: ('A' for Active; 'I' for Inactive)
REMARK    1  A    between atoms: C_2  and  C_3
REMARK    2  A    between atoms: C_6  and  O_7
REMARK    3  A    between atoms: O_7  and  C_8
REMARK    4  A    between atoms: C_20  and  C_21
REMARK                            x       y       z     vdW  Elec       q    Type
REMARK                         _______ _______ _______ _____ _____    ______ ____
ROOT
ATOM      1  O   UNL     1       0.571   8.688  20.593  0.00  0.00    +0.000 OA
ATOM      2  C   UNL     1       1.193   8.956  19.569  0.00  0.00    +0.000 C 
ATOM      3  N   UNL     1       1.178  10.233  19.002  0.00  0.00    +0.000 N 
ATOM      4  C   UNL     1       1.976  10.709  17.881  0.00  0.00    +0.000 C 
ATOM      5  C   UNL     1       2.402  12.105  18.260  0.00  0.00    +0.000 C 
ATOM      6  C   UNL     1       1.229  12.621  19.067  0.00  0.00    +0.000 C 
ATOM      7  C   UNL     1       0.634  11.370  19.759  0.00  0.00    +0.000 C 
ENDROOT
BRANCH   7   8
ATOM      8  C   UNL     1      -0.878  11.522  19.763  0.00  0.00    +0.000 A 
ATOM      9  C   UNL     1      -1.482  12.350  20.745  0.00  0.00    +0.000 A 
ATOM     10  C   UNL     1      -2.835  12.711  20.667  0.00  0.00    +0.000 A 
ATOM     11  C   UNL     1      -3.545  12.254  19.583  0.00  0.00    +0.000 A 
ATOM     12  C   UNL     1      -2.978  11.428  18.639  0.00  0.00    +0.000 A 
ATOM     13  C   UNL     1      -1.662  11.026  18.712  0.00  0.00    +0.000 A 
ATOM     14  O   UNL     1      -3.842  11.126  17.633  0.00  0.00    +0.000 OA
ATOM     15  C   UNL     1      -4.958  11.971  17.981  0.00  0.00    +0.000 C 
ATOM     16  O   UNL     1      -4.831  12.576  19.284  0.00  0.00    +0.000 OA
ENDBRANCH   7   8
BRANCH   2  17
ATOM     17  C   UNL     1       2.109   7.900  19.014  0.00  0.00    +0.000 A 
ATOM     18  C   UNL     1       2.811   8.024  17.808  0.00  0.00    +0.000 A 
ATOM     19  C   UNL     1       3.863   7.152  17.497  0.00  0.00    +0.000 A 
ATOM     20  C   UNL     1       4.177   6.103  18.359  0.00  0.00    +0.000 A 
ATOM     21  C   UNL     1       3.362   5.864  19.468  0.00  0.00    +0.000 A 
ATOM     22  C   UNL     1       2.342   6.762  19.801  0.00  0.00    +0.000 A 
BRANCH  20  23
ATOM     23  O   UNL     1       5.200   5.207  18.159  0.00  0.00    +0.000 OA
BRANCH  23  24
ATOM     24  C   UNL     1       5.710   4.992  16.903  0.00  0.00    +0.000 A 
ATOM     25  C   UNL     1       5.098   4.274  15.877  0.00  0.00    +0.000 A 
ATOM     26  C   UNL     1       5.752   4.133  14.651  0.00  0.00    +0.000 A 
ATOM     27  C   UNL     1       6.977   4.758  14.480  0.00  0.00    +0.000 A 
ATOM     28  N   UNL     1       7.573   5.507  15.430  0.00  0.00    +0.000 NA
ATOM     29  C   UNL     1       6.921   5.610  16.615  0.00  0.00    +0.000 A 
ENDBRANCH  23  24
ENDBRANCH  20  23
ENDBRANCH   2  17
TORSDOF 4
ENDMDL
MODEL 7
REMARK VINA RESULT:      -8.3      2.937      4.426
REMARK  Name = 
REMARK  4 active torsions:
REMARK  status: ('A' for Active; 'I' for Inactive)
REMARK    1  A    between atoms: C_2  and  C_3
REMARK    2  A    between atoms: C_6  and  O_7
REMARK    3  A    between atoms: O_7  and  C_8
REMARK    4  A    between atoms: C_20  and  C_21
REMARK                            x       y       z     vdW  Elec       q    Type
REMARK                         _______ _______ _______ _____ _____    ______ ____
ROOT
ATOM      1  O   UNL     1       1.090   8.646  21.758  0.00  0.00    +0.000 OA
ATOM      2  C   UNL     1       1.279   8.724  20.548  0.00  0.00    +0.000 C 
ATOM      3  N   UNL     1       1.069   9.909  19.838  0.00  0.00    +0.000 N 
ATOM      4  C   UNL     1       1.386  10.168  18.441  0.00  0.00    +0.000 C 
ATOM      5  C   UNL     1       1.947  11.568  18.411  0.00  0.00    +0.000 C 
ATOM      6  C   UNL     1       1.179  12.274  19.509  0.00  0.00    +0.000 C 
ATOM      7  C   UNL     1       0.873  11.176  20.558  0.00  0.00    +0.000 C 
ENDROOT
BRANCH   7   8
ATOM      8  C   UNL     1      -0.521  11.438  21.105  0.00  0.00    +0.000 A 
ATOM      9  C   UNL     1      -0.727  11.391  22.508  0.00  0.00    +0.000 A 
ATOM     10  C   UNL     1      -1.922  11.840  23.088  0.00  0.00    +0.000 A 
ATOM     11  C   UNL     1      -2.874  12.358  22.243  0.00  0.00    +0.000 A 
ATOM     12  C   UNL     1      -2.697  12.384  20.878  0.00  0.00    +0.000 A 
ATOM     13  C   UNL     1      -1.549  11.913  20.279  0.00  0.00    +0.000 A 
ATOM     14  O   UNL     1      -3.741  12.971  20.234  0.00  0.00    +0.000 OA
ATOM     15  C   UNL     1      -4.517  13.436  21.358  0.00  0.00    +0.000 C 
ATOM     16  O   UNL     1      -4.047  12.929  22.623  0.00  0.00    +0.000 OA
ENDBRANCH   7   8
BRANCH   2  17
ATOM     17  C   UNL     1       1.897   7.538  19.860  0.00  0.00    +0.000 A 
ATOM     18  C   UNL     1       2.558   7.602  18.627  0.00  0.00    +0.000 A 
ATOM     19  C   UNL     1       3.361   6.541  18.187  0.00  0.00    +0.000 A 
ATOM     20  C   UNL     1       3.456   5.376  18.948  0.00  0.00    +0.000 A 
ATOM     21  C   UNL     1       2.654   5.236  20.083  0.00  0.00    +0.000 A 
ATOM     22  C   UNL     1       1.888   6.313  20.544  0.00  0.00    +0.000 A 
BRANCH  20  23
ATOM     23  O   UNL     1       4.230   4.290  18.619  0.00  0.00    +0.000 OA
BRANCH  23  24
ATOM     24  C   UNL     1       5.101   4.342  17.560  0.00  0.00    +0.000 A 
ATOM     25  C   UNL     1       4.780   4.146  16.218  0.00  0.00    +0.000 A 
ATOM     26  C   UNL     1       5.786   4.221  15.252  0.00  0.00    +0.000 A 
ATOM     27  C   UNL     1       7.072   4.537  15.660  0.00  0.00    +0.000 A 
ATOM     28  N   UNL     1       7.409   4.789  16.942  0.00  0.00    +0.000 NA
ATOM     29  C   UNL     1       6.414   4.691  17.858  0.00  0.00    +0.000 A 
ENDBRANCH  23  24
ENDBRANCH  20  23
ENDBRANCH   2  17
TORSDOF 4
ENDMDL
MODEL 8
REMARK VINA RESULT:      -8.3      4.078     10.814
REMARK  Name = 
REMARK  4 active torsions:
REMARK  status: ('A' for Active; 'I' for Inactive)
REMARK    1  A    between atoms: C_2  and  C_3
REMARK    2  A    between atoms: C_6  and  O_7
REMARK    3  A    between atoms: O_7  and  C_8
REMARK    4  A    between atoms: C_20  and  C_21
REMARK                            x       y       z     vdW  Elec       q    Type
REMARK                         _______ _______ _______ _____ _____    ______ ____
ROOT
ATOM      1  O   UNL     1       4.710   7.429  17.823  0.00  0.00    +0.000 OA
ATOM      2  C   UNL     1       3.614   6.884  17.915  0.00  0.00    +0.000 C 
ATOM      3  N   UNL     1       3.426   5.534  17.608  0.00  0.00    +0.000 N 
ATOM      4  C   UNL     1       2.219   4.744  17.807  0.00  0.00    +0.000 C 
ATOM      5  C   UNL     1       2.697   3.406  18.313  0.00  0.00    +0.000 C 
ATOM      6  C   UNL     1       4.024   3.220  17.607  0.00  0.00    +0.000 C 
ATOM      7  C   UNL     1       4.587   4.651  17.423  0.00  0.00    +0.000 C 
ENDROOT
BRANCH   7   8
ATOM      8  C   UNL     1       5.272   4.705  16.067  0.00  0.00    +0.000 A 
ATOM      9  C   UNL     1       6.632   5.102  16.001  0.00  0.00    +0.000 A 
ATOM     10  C   UNL     1       7.381   4.958  14.824  0.00  0.00    +0.000 A 
ATOM     11  C   UNL     1       6.751   4.385  13.745  0.00  0.00    +0.000 A 
ATOM     12  C   UNL     1       5.424   4.020  13.789  0.00  0.00    +0.000 A 
ATOM     13  C   UNL     1       4.655   4.187  14.920  0.00  0.00    +0.000 A 
ATOM     14  O   UNL     1       5.011   3.439  12.630  0.00  0.00    +0.000 OA
ATOM     15  C   UNL     1       6.263   3.352  11.918  0.00  0.00    +0.000 C 
ATOM     16  O   UNL     1       7.335   4.073  12.558  0.00  0.00    +0.000 OA
ENDBRANCH   7   8
BRANCH   2  17
ATOM     17  C   UNL     1       2.489   7.679  18.520  0.00  0.00    +0.000 A 
ATOM     18  C   UNL     1       2.085   7.574  19.858  0.00  0.00    +0.000 A 
ATOM     19  C   UNL     1       1.247   8.539  20.431  0.00  0.00    +0.000 A 
ATOM     20  C   UNL     1       0.749   9.582  19.652  0.00  0.00    +0.000 A 
ATOM     21  C   UNL     1       0.998   9.586  18.278  0.00  0.00    +0.000 A 
ATOM     22  C   UNL     1       1.872   8.648  17.716  0.00  0.00    +0.000 A 
BRANCH  20  23
ATOM     23  O   UNL     1      -0.061  10.589  20.120  0.00  0.00    +0.000 OA
BRANCH  23  24
ATOM     24  C   UNL     1       0.181  11.899  19.785  0.00  0.00    +0.000 A 
ATOM     25  C   UNL     1      -0.588  12.685  18.929  0.00  0.00    +0.000 A 
ATOM     26  C   UNL     1      -0.205  14.004  18.677  0.00  0.00    +0.000 A 
ATOM     27  C   UNL     1       0.911  14.505  19.330  0.00  0.00    +0.000 A 
ATOM     28  N   UNL     1       1.645  13.791  20.208  0.00  0.00    +0.000 NA
ATOM     29  C   UNL     1       1.258  12.508  20.417  0.00  0.00    +0.000 A 
ENDBRANCH  23  24
ENDBRANCH  20  23
ENDBRANCH   2  17
TORSDOF 4
ENDMDL
MODEL 9
REMARK VINA RESULT:      -8.3      2.961      4.015
REMARK  Name = 
REMARK  4 active torsions:
REMARK  status: ('A' for Active; 'I' for Inactive)
REMARK    1  A    between atoms: C_2  and  C_3
REMARK    2  A    between atoms: C_6  and  O_7
REMARK    3  A    between atoms: O_7  and  C_8
REMARK    4  A    between atoms: C_20  and  C_21
REMARK                            x       y       z     vdW  Elec       q    Type
REMARK                         _______ _______ _______ _____ _____    ______ ____
ROOT
ATOM      1  O   UNL     1       1.509  10.442  21.649  0.00  0.00    +0.000 OA
ATOM      2  C   UNL     1       0.834   9.973  20.737  0.00  0.00    +0.000 C 
ATOM      3  N   UNL     1      -0.204  10.689  20.136  0.00  0.00    +0.000 N 
ATOM      4  C   UNL     1      -0.979  10.302  18.965  0.00  0.00    +0.000 C 
ATOM      5  C   UNL     1      -1.145  11.567  18.161  0.00  0.00    +0.000 C 
ATOM      6  C   UNL     1      -1.226  12.646  19.220  0.00  0.00    +0.000 C 
ATOM      7  C   UNL     1      -0.351  12.129  20.390  0.00  0.00    +0.000 C 
ENDROOT
BRANCH   7   8
ATOM      8  C   UNL     1      -1.037  12.524  21.687  0.00  0.00    +0.000 A 
ATOM      9  C   UNL     1      -0.566  13.660  22.395  0.00  0.00    +0.000 A 
ATOM     10  C   UNL     1      -1.287  14.206  23.466  0.00  0.00    +0.000 A 
ATOM     11  C   UNL     1      -2.486  13.615  23.782  0.00  0.00    +0.000 A 
ATOM     12  C   UNL     1      -2.941  12.496  23.121  0.00  0.00    +0.000 A 
ATOM     13  C   UNL     1      -2.234  11.916  22.091  0.00  0.00    +0.000 A 
ATOM     14  O   UNL     1      -4.164  12.097  23.564  0.00  0.00    +0.000 OA
ATOM     15  C   UNL     1      -4.480  13.174  24.470  0.00  0.00    +0.000 C 
ATOM     16  O   UNL     1      -3.368  14.058  24.717  0.00  0.00    +0.000 OA
ENDBRANCH   7   8
BRANCH   2  17
ATOM     17  C   UNL     1       1.256   8.645  20.171  0.00  0.00    +0.000 A 
ATOM     18  C   UNL     1       1.868   8.482  18.921  0.00  0.00    +0.000 A 
ATOM     19  C   UNL     1       2.500   7.278  18.582  0.00  0.00    +0.000 A 
ATOM     20  C   UNL     1       2.466   6.201  19.466  0.00  0.00    +0.000 A 
ATOM     21  C   UNL     1       1.700   6.297  20.630  0.00  0.00    +0.000 A 
ATOM     22  C   UNL     1       1.108   7.514  20.987  0.00  0.00    +0.000 A 
BRANCH  20  23
ATOM     23  O   UNL     1       3.070   4.987  19.241  0.00  0.00    +0.000 OA
BRANCH  23  24
ATOM     24  C   UNL     1       4.221   4.902  18.498  0.00  0.00    +0.000 A 
ATOM     25  C   UNL     1       4.301   4.808  17.110  0.00  0.00    +0.000 A 
ATOM     26  C   UNL     1       5.552   4.717  16.497  0.00  0.00    +0.000 A 
ATOM     27  C   UNL     1       6.685   4.772  17.295  0.00  0.00    +0.000 A 
ATOM     28  N   UNL     1       6.647   4.919  18.635  0.00  0.00    +0.000 NA
ATOM     29  C   UNL     1       5.417   4.987  19.201  0.00  0.00    +0.000 A 
ENDBRANCH  23  24
ENDBRANCH  20  23
ENDBRANCH   2  17
TORSDOF 4
ENDMDL
