MODEL 1
REMARK VINA RESULT:      -8.4      0.000      0.000
REMARK  Name = 
REMARK  3 active torsions:
REMARK  status: ('A' for Active; 'I' for Inactive)
REMARK    1  A    between atoms: C_2  and  C_21
REMARK    2  A    between atoms: N_3  and  C_4
REMARK    3  A    between atoms: C_9  and  C_10
REMARK                            x       y       z     vdW  Elec       q    Type
REMARK                         _______ _______ _______ _____ _____    ______ ____
ROOT
ATOM      1  C   UNL     1       4.269   5.612  17.212  0.00  0.00    +0.000 A 
ATOM      2  C   UNL     1       4.226   4.710  18.284  0.00  0.00    +0.000 A 
ATOM      3  C   UNL     1       3.560   4.997  19.479  0.00  0.00    +0.000 A 
ATOM      4  C   UNL     1       2.934   6.234  19.549  0.00  0.00    +0.000 A 
ATOM      5  N   UNL     1       2.175   6.812  20.524  0.00  0.00    +0.000 N 
ATOM      6  C   UNL     1       1.763   8.054  20.099  0.00  0.00    +0.000 A 
ATOM      7  N   UNL     1       2.257   8.300  18.894  0.00  0.00    +0.000 NA
ATOM      8  C   UNL     1       2.974   7.178  18.534  0.00  0.00    +0.000 A 
ATOM      9  C   UNL     1       3.675   6.880  17.348  0.00  0.00    +0.000 A 
ATOM     10  H   UNL     1       1.926   6.392  21.411  0.00  0.00    +0.000 HD
ENDROOT
BRANCH   6  11
ATOM     11  C   UNL     1       0.899   8.925  20.898  0.00  0.00    +0.000 A 
ATOM     12  C   UNL     1       0.867   8.794  22.292  0.00  0.00    +0.000 A 
ATOM     13  C   UNL     1       0.046   9.624  23.053  0.00  0.00    +0.000 A 
ATOM     14  F   UNL     1       0.025   9.487  24.386  0.00  0.00    +0.000 F 
ATOM     15  C   UNL     1      -0.754  10.594  22.458  0.00  0.00    +0.000 A 
ATOM     16  C   UNL     1      -0.733  10.740  21.074  0.00  0.00    +0.000 A 
ATOM     17  C   UNL     1       0.087   9.911  20.310  0.00  0.00    +0.000 A 
ATOM     18  F   UNL     1       0.084  10.083  18.978  0.00  0.00    +0.000 F 
ENDBRANCH   6  11
BRANCH   1  21
ATOM     19  O   UNL     1       7.135   5.525  16.556  0.00  0.00    +0.000 OA
ATOM     20  C   UNL     1       6.250   5.273  15.742  0.00  0.00    +0.000 C 
ATOM     21  N   UNL     1       4.883   5.280  15.981  0.00  0.00    +0.000 N 
ATOM     22  H   UNL     1       4.301   4.910  15.234  0.00  0.00    +0.000 HD
BRANCH  20  23
ATOM     23  C   UNL     1       6.662   4.876  14.371  0.00  0.00    +0.000 A 
ATOM     24  C   UNL     1       5.966   3.855  13.732  0.00  0.00    +0.000 A 
ATOM     25  N   UNL     1       6.294   3.413  12.493  0.00  0.00    +0.000 NA
ATOM     26  C   UNL     1       7.353   4.032  11.925  0.00  0.00    +0.000 A 
ATOM     27  C   UNL     1       8.046   5.058  12.563  0.00  0.00    +0.000 A 
ATOM     28  N   UNL     1       7.718   5.517  13.797  0.00  0.00    +0.000 NA
ENDBRANCH  20  23
ENDBRANCH   1  21
TORSDOF 3
ENDMDL
MODEL 2
REMARK VINA RESULT:      -8.2      4.368     10.261
REMARK  Name = 
REMARK  3 active torsions:
REMARK  status: ('A' for Active; 'I' for Inactive)
REMARK    1  A    between atoms: C_2  and  C_21
REMARK    2  A    between atoms: N_3  and  C_4
REMARK    3  A    between atoms: C_9  and  C_10
REMARK                            x       y       z     vdW  Elec       q    Type
REMARK                         _______ _______ _______ _____ _____    ______ ____
ROOT
ATOM      1  C   UNL     1       0.201  10.383  20.442  0.00  0.00    +0.000 A 
ATOM      2  C   UNL     1       0.544  10.961  19.211  0.00  0.00    +0.000 A 
ATOM      3  C   UNL     1       1.338  10.301  18.270  0.00  0.00    +0.000 A 
ATOM      4  C   UNL     1       1.772   9.029  18.618  0.00  0.00    +0.000 A 
ATOM      5  N   UNL     1       2.510   8.105  17.937  0.00  0.00    +0.000 N 
ATOM      6  C   UNL     1       2.653   6.981  18.716  0.00  0.00    +0.000 A 
ATOM      7  N   UNL     1       2.054   7.166  19.883  0.00  0.00    +0.000 NA
ATOM      8  C   UNL     1       1.493   8.425  19.834  0.00  0.00    +0.000 A 
ATOM      9  C   UNL     1       0.714   9.119  20.782  0.00  0.00    +0.000 A 
ATOM     10  H   UNL     1       2.875   8.210  16.999  0.00  0.00    +0.000 HD
ENDROOT
BRANCH   6  11
ATOM     11  C   UNL     1       3.363   5.782  18.264  0.00  0.00    +0.000 A 
ATOM     12  C   UNL     1       4.756   5.703  18.390  0.00  0.00    +0.000 A 
ATOM     13  C   UNL     1       5.432   4.563  17.962  0.00  0.00    +0.000 A 
ATOM     14  F   UNL     1       6.765   4.500  18.088  0.00  0.00    +0.000 F 
ATOM     15  C   UNL     1       4.753   3.483  17.405  0.00  0.00    +0.000 A 
ATOM     16  C   UNL     1       3.368   3.544  17.275  0.00  0.00    +0.000 A 
ATOM     17  C   UNL     1       2.689   4.683  17.702  0.00  0.00    +0.000 A 
ATOM     18  F   UNL     1       1.353   4.706  17.564  0.00  0.00    +0.000 F 
ENDBRANCH   6  11
BRANCH   1  21
ATOM     19  O   UNL     1       0.615  12.915  21.882  0.00  0.00    +0.000 OA
ATOM     20  C   UNL     1      -0.393  12.226  22.009  0.00  0.00    +0.000 C 
ATOM     21  N   UNL     1      -0.664  11.032  21.355  0.00  0.00    +0.000 N 
ATOM     22  H   UNL     1      -1.606  10.667  21.472  0.00  0.00    +0.000 HD
BRANCH  20  23
ATOM     23  C   UNL     1      -1.462  12.722  22.913  0.00  0.00    +0.000 A 
ATOM     24  C   UNL     1      -2.561  11.906  23.162  0.00  0.00    +0.000 A 
ATOM     25  N   UNL     1      -3.593  12.293  23.952  0.00  0.00    +0.000 NA
ATOM     26  C   UNL     1      -3.479  13.534  24.477  0.00  0.00    +0.000 A 
ATOM     27  C   UNL     1      -2.375  14.347  24.234  0.00  0.00    +0.000 A 
ATOM     28  N   UNL     1      -1.332  13.965  23.455  0.00  0.00    +0.000 NA
ENDBRANCH  20  23
ENDBRANCH   1  21
TORSDOF 3
ENDMDL
MODEL 3
REMARK VINA RESULT:      -8.0      4.333     10.286
REMARK  Name = 
REMARK  3 active torsions:
REMARK  status: ('A' for Active; 'I' for Inactive)
REMARK    1  A    between atoms: C_2  and  C_21
REMARK    2  A    between atoms: N_3  and  C_4
REMARK    3  A    between atoms: C_9  and  C_10
REMARK                            x       y       z     vdW  Elec       q    Type
REMARK                         _______ _______ _______ _____ _____    ______ ____
ROOT
ATOM      1  C   UNL     1       0.197  10.512  20.302  0.00  0.00    +0.000 A 
ATOM      2  C   UNL     1       0.561  11.155  19.111  0.00  0.00    +0.000 A 
ATOM      3  C   UNL     1       1.357  10.539  18.141  0.00  0.00    +0.000 A 
ATOM      4  C   UNL     1       1.770   9.244  18.419  0.00  0.00    +0.000 A 
ATOM      5  N   UNL     1       2.503   8.350  17.694  0.00  0.00    +0.000 N 
ATOM      6  C   UNL     1       2.621   7.180  18.408  0.00  0.00    +0.000 A 
ATOM      7  N   UNL     1       2.012   7.306  19.577  0.00  0.00    +0.000 NA
ATOM      8  C   UNL     1       1.468   8.574  19.595  0.00  0.00    +0.000 A 
ATOM      9  C   UNL     1       0.688   9.223  20.574  0.00  0.00    +0.000 A 
ATOM     10  H   UNL     1       2.880   8.504  16.768  0.00  0.00    +0.000 HD
ENDROOT
BRANCH   6  11
ATOM     11  C   UNL     1       3.321   6.000  17.895  0.00  0.00    +0.000 A 
ATOM     12  C   UNL     1       2.659   4.767  17.829  0.00  0.00    +0.000 A 
ATOM     13  C   UNL     1       3.323   3.644  17.339  0.00  0.00    +0.000 A 
ATOM     14  F   UNL     1       2.679   2.470  17.282  0.00  0.00    +0.000 F 
ATOM     15  C   UNL     1       4.644   3.714  16.907  0.00  0.00    +0.000 A 
ATOM     16  C   UNL     1       5.315   4.932  16.963  0.00  0.00    +0.000 A 
ATOM     17  C   UNL     1       4.654   6.057  17.453  0.00  0.00    +0.000 A 
ATOM     18  F   UNL     1       5.332   7.216  17.490  0.00  0.00    +0.000 F 
ENDBRANCH   6  11
BRANCH   1  21
ATOM     19  O   UNL     1       0.609  12.976  21.855  0.00  0.00    +0.000 OA
ATOM     20  C   UNL     1      -0.401  12.282  21.950  0.00  0.00    +0.000 C 
ATOM     21  N   UNL     1      -0.670  11.119  21.242  0.00  0.00    +0.000 N 
ATOM     22  H   UNL     1      -1.613  10.749  21.340  0.00  0.00    +0.000 HD
BRANCH  20  23
ATOM     23  C   UNL     1      -1.470  12.737  22.874  0.00  0.00    +0.000 A 
ATOM     24  C   UNL     1      -2.544  11.888  23.125  0.00  0.00    +0.000 A 
ATOM     25  N   UNL     1      -3.575  12.236  23.934  0.00  0.00    +0.000 NA
ATOM     26  C   UNL     1      -3.489  13.473  24.473  0.00  0.00    +0.000 A 
ATOM     27  C   UNL     1      -2.412  14.320  24.226  0.00  0.00    +0.000 A 
ATOM     28  N   UNL     1      -1.368  13.976  23.429  0.00  0.00    +0.000 NA
ENDBRANCH  20  23
ENDBRANCH   1  21
TORSDOF 3
ENDMDL
MODEL 4
REMARK VINA RESULT:      -8.0      4.811     10.229
REMARK  Name = 
REMARK  3 active torsions:
REMARK  status: ('A' for Active; 'I' for Inactive)
REMARK    1  A    between atoms: C_2  and  C_21
REMARK    2  A    between atoms: N_3  and  C_4
REMARK    3  A    between atoms: C_9  and  C_10
REMARK                            x       y       z     vdW  Elec       q    Type
REMARK                         _______ _______ _______ _____ _____    ______ ____
ROOT
ATOM      1  C   UNL     1       0.242  10.224  20.574  0.00  0.00    +0.000 A 
ATOM      2  C   UNL     1       0.788  10.532  19.320  0.00  0.00    +0.000 A 
ATOM      3  C   UNL     1       1.562   9.622  18.595  0.00  0.00    +0.000 A 
ATOM      4  C   UNL     1       1.764   8.383  19.186  0.00  0.00    +0.000 A 
ATOM      5  N   UNL     1       2.417   7.267  18.752  0.00  0.00    +0.000 N 
ATOM      6  C   UNL     1       2.312   6.282  19.707  0.00  0.00    +0.000 A 
ATOM      7  N   UNL     1       1.636   6.742  20.750  0.00  0.00    +0.000 NA
ATOM      8  C   UNL     1       1.278   8.037  20.438  0.00  0.00    +0.000 A 
ATOM      9  C   UNL     1       0.523   8.979  21.166  0.00  0.00    +0.000 A 
ATOM     10  H   UNL     1       2.884   7.161  17.861  0.00  0.00    +0.000 HD
ENDROOT
BRANCH   6  11
ATOM     11  C   UNL     1       2.875   4.941  19.536  0.00  0.00    +0.000 A 
ATOM     12  C   UNL     1       2.028   3.827  19.484  0.00  0.00    +0.000 A 
ATOM     13  C   UNL     1       2.563   2.550  19.320  0.00  0.00    +0.000 A 
ATOM     14  F   UNL     1       1.742   1.493  19.272  0.00  0.00    +0.000 F 
ATOM     15  C   UNL     1       3.935   2.349  19.204  0.00  0.00    +0.000 A 
ATOM     16  C   UNL     1       4.791   3.445  19.251  0.00  0.00    +0.000 A 
ATOM     17  C   UNL     1       4.259   4.723  19.415  0.00  0.00    +0.000 A 
ATOM     18  F   UNL     1       5.115   5.758  19.453  0.00  0.00    +0.000 F 
ENDBRANCH   6  11
BRANCH   1  21
ATOM     19  O   UNL     1      -0.256  10.425  23.466  0.00  0.00    +0.000 OA
ATOM     20  C   UNL     1      -0.796  11.154  22.638  0.00  0.00    +0.000 C 
ATOM     21  N   UNL     1      -0.601  11.127  21.264  0.00  0.00    +0.000 N 
ATOM     22  H   UNL     1      -1.020  11.893  20.742  0.00  0.00    +0.000 HD
BRANCH  20  23
ATOM     23  C   UNL     1      -1.720  12.204  23.137  0.00  0.00    +0.000 A 
ATOM     24  C   UNL     1      -1.252  13.510  23.250  0.00  0.00    +0.000 A 
ATOM     25  N   UNL     1      -2.021  14.522  23.722  0.00  0.00    +0.000 NA
ATOM     26  C   UNL     1      -3.275  14.169  24.082  0.00  0.00    +0.000 A 
ATOM     27  C   UNL     1      -3.746  12.865  23.961  0.00  0.00    +0.000 A 
ATOM     28  N   UNL     1      -2.989  11.847  23.479  0.00  0.00    +0.000 NA
ENDBRANCH  20  23
ENDBRANCH   1  21
TORSDOF 3
ENDMDL
MODEL 5
REMARK VINA RESULT:      -8.0      4.613     10.101
REMARK  Name = 
REMARK  3 active torsions:
REMARK  status: ('A' for Active; 'I' for Inactive)
REMARK    1  A    between atoms: C_2  and  C_21
REMARK    2  A    between atoms: N_3  and  C_4
REMARK    3  A    between atoms: C_9  and  C_10
REMARK                            x       y       z     vdW  Elec       q    Type
REMARK                         _______ _______ _______ _____ _____    ______ ____
ROOT
ATOM      1  C   UNL     1       0.543  10.429  20.240  0.00  0.00    +0.000 A 
ATOM      2  C   UNL     1       0.947  10.747  18.936  0.00  0.00    +0.000 A 
ATOM      3  C   UNL     1       1.633   9.841  18.122  0.00  0.00    +0.000 A 
ATOM      4  C   UNL     1       1.893   8.595  18.676  0.00  0.00    +0.000 A 
ATOM      5  N   UNL     1       2.490   7.481  18.162  0.00  0.00    +0.000 N 
ATOM      6  C   UNL     1       2.487   6.488  19.114  0.00  0.00    +0.000 A 
ATOM      7  N   UNL     1       1.932   6.940  20.230  0.00  0.00    +0.000 NA
ATOM      8  C   UNL     1       1.548   8.240  19.971  0.00  0.00    +0.000 A 
ATOM      9  C   UNL     1       0.882   9.178  20.786  0.00  0.00    +0.000 A 
ATOM     10  H   UNL     1       2.854   7.382  17.224  0.00  0.00    +0.000 HD
ENDROOT
BRANCH   6  11
ATOM     11  C   UNL     1       3.021   5.147  18.870  0.00  0.00    +0.000 A 
ATOM     12  C   UNL     1       2.208   4.162  18.295  0.00  0.00    +0.000 A 
ATOM     13  C   UNL     1       2.716   2.886  18.061  0.00  0.00    +0.000 A 
ATOM     14  F   UNL     1       1.927   1.953  17.512  0.00  0.00    +0.000 F 
ATOM     15  C   UNL     1       4.028   2.558  18.387  0.00  0.00    +0.000 A 
ATOM     16  C   UNL     1       4.851   3.525  18.956  0.00  0.00    +0.000 A 
ATOM     17  C   UNL     1       4.346   4.802  19.191  0.00  0.00    +0.000 A 
ATOM     18  F   UNL     1       5.170   5.711  19.740  0.00  0.00    +0.000 F 
ENDBRANCH   6  11
BRANCH   1  21
ATOM     19  O   UNL     1       0.020  10.344  23.134  0.00  0.00    +0.000 OA
ATOM     20  C   UNL     1      -0.429  11.216  22.394  0.00  0.00    +0.000 C 
ATOM     21  N   UNL     1      -0.214  11.328  21.027  0.00  0.00    +0.000 N 
ATOM     22  H   UNL     1      -0.544  12.189  20.596  0.00  0.00    +0.000 HD
BRANCH  20  23
ATOM     23  C   UNL     1      -1.248  12.292  23.008  0.00  0.00    +0.000 A 
ATOM     24  C   UNL     1      -2.612  12.078  23.181  0.00  0.00    +0.000 A 
ATOM     25  N   UNL     1      -3.436  13.017  23.708  0.00  0.00    +0.000 NA
ATOM     26  C   UNL     1      -2.837  14.181  24.047  0.00  0.00    +0.000 A 
ATOM     27  C   UNL     1      -1.471  14.391  23.880  0.00  0.00    +0.000 A 
ATOM     28  N   UNL     1      -0.635  13.454  23.365  0.00  0.00    +0.000 NA
ENDBRANCH  20  23
ENDBRANCH   1  21
TORSDOF 3
ENDMDL
MODEL 6
REMARK VINA RESULT:      -8.0      0.894      1.736
REMARK  Name = 
REMARK  3 active torsions:
REMARK  status: ('A' for Active; 'I' for Inactive)
REMARK    1  A    between atoms: C_2  and  C_21
REMARK    2  A    between atoms: N_3  and  C_4
REMARK    3  A    between atoms: C_9  and  C_10
REMARK                            x       y       z     vdW  Elec       q    Type
REMARK                         _______ _______ _______ _____ _____    ______ ____
ROOT
ATOM      1  C   UNL     1       3.989   5.890  17.417  0.00  0.00    +0.000 A 
ATOM      2  C   UNL     1       3.909   5.061  18.546  0.00  0.00    +0.000 A 
ATOM      3  C   UNL     1       3.215   5.434  19.700  0.00  0.00    +0.000 A 
ATOM      4  C   UNL     1       2.601   6.678  19.672  0.00  0.00    +0.000 A 
ATOM      5  N   UNL     1       1.823   7.326  20.586  0.00  0.00    +0.000 N 
ATOM      6  C   UNL     1       1.436   8.540  20.068  0.00  0.00    +0.000 A 
ATOM      7  N   UNL     1       1.963   8.701  18.863  0.00  0.00    +0.000 NA
ATOM      8  C   UNL     1       2.678   7.551  18.597  0.00  0.00    +0.000 A 
ATOM      9  C   UNL     1       3.406   7.169  17.453  0.00  0.00    +0.000 A 
ATOM     10  H   UNL     1       1.547   6.969  21.491  0.00  0.00    +0.000 HD
ENDROOT
BRANCH   6  11
ATOM     11  C   UNL     1       0.560   9.471  20.784  0.00  0.00    +0.000 A 
ATOM     12  C   UNL     1      -0.304  10.311  20.070  0.00  0.00    +0.000 A 
ATOM     13  C   UNL     1      -1.138  11.195  20.750  0.00  0.00    +0.000 A 
ATOM     14  F   UNL     1      -1.959  11.994  20.055  0.00  0.00    +0.000 F 
ATOM     15  C   UNL     1      -1.138  11.267  22.140  0.00  0.00    +0.000 A 
ATOM     16  C   UNL     1      -0.289  10.437  22.865  0.00  0.00    +0.000 A 
ATOM     17  C   UNL     1       0.547   9.552  22.188  0.00  0.00    +0.000 A 
ATOM     18  F   UNL     1       1.352   8.764  22.920  0.00  0.00    +0.000 F 
ENDBRANCH   6  11
BRANCH   1  21
ATOM     19  O   UNL     1       6.865   5.868  16.795  0.00  0.00    +0.000 OA
ATOM     20  C   UNL     1       6.002   5.502  16.001  0.00  0.00    +0.000 C 
ATOM     21  N   UNL     1       4.632   5.472  16.228  0.00  0.00    +0.000 N 
ATOM     22  H   UNL     1       4.075   5.007  15.515  0.00  0.00    +0.000 HD
BRANCH  20  23
ATOM     23  C   UNL     1       6.447   4.997  14.678  0.00  0.00    +0.000 A 
ATOM     24  C   UNL     1       5.681   4.026  14.039  0.00  0.00    +0.000 A 
ATOM     25  N   UNL     1       6.030   3.492  12.843  0.00  0.00    +0.000 NA
ATOM     26  C   UNL     1       7.182   3.966  12.318  0.00  0.00    +0.000 A 
ATOM     27  C   UNL     1       7.945   4.941  12.954  0.00  0.00    +0.000 A 
ATOM     28  N   UNL     1       7.598   5.492  14.145  0.00  0.00    +0.000 NA
ENDBRANCH  20  23
ENDBRANCH   1  21
TORSDOF 3
ENDMDL
MODEL 7
REMARK VINA RESULT:      -7.9      1.653      2.911
REMARK  Name = 
REMARK  3 active torsions:
REMARK  status: ('A' for Active; 'I' for Inactive)
REMARK    1  A    between atoms: C_2  and  C_21
REMARK    2  A    between atoms: N_3  and  C_4
REMARK    3  A    between atoms: C_9  and  C_10
REMARK                            x       y       z     vdW  Elec       q    Type
REMARK                         _______ _______ _______ _____ _____    ______ ____
ROOT
ATOM      1  C   UNL     1       3.026   6.571  18.546  0.00  0.00    +0.000 A 
ATOM      2  C   UNL     1       2.682   5.766  19.641  0.00  0.00    +0.000 A 
ATOM      3  C   UNL     1       1.854   6.218  20.672  0.00  0.00    +0.000 A 
ATOM      4  C   UNL     1       1.382   7.518  20.554  0.00  0.00    +0.000 A 
ATOM      5  N   UNL     1       0.537   8.250  21.335  0.00  0.00    +0.000 N 
ATOM      6  C   UNL     1       0.364   9.493  20.770  0.00  0.00    +0.000 A 
ATOM      7  N   UNL     1       1.091   9.587  19.667  0.00  0.00    +0.000 NA
ATOM      8  C   UNL     1       1.718   8.368  19.511  0.00  0.00    +0.000 A 
ATOM      9  C   UNL     1       2.578   7.903  18.496  0.00  0.00    +0.000 A 
ATOM     10  H   UNL     1       0.085   7.932  22.182  0.00  0.00    +0.000 HD
ENDROOT
BRANCH   6  11
ATOM     11  C   UNL     1      -0.516  10.514  21.342  0.00  0.00    +0.000 A 
ATOM     12  C   UNL     1      -1.143  11.448  20.507  0.00  0.00    +0.000 A 
ATOM     13  C   UNL     1      -1.981  12.419  21.050  0.00  0.00    +0.000 A 
ATOM     14  F   UNL     1      -2.574  13.307  20.240  0.00  0.00    +0.000 F 
ATOM     15  C   UNL     1      -2.217  12.488  22.420  0.00  0.00    +0.000 A 
ATOM     16  C   UNL     1      -1.605  11.566  23.264  0.00  0.00    +0.000 A 
ATOM     17  C   UNL     1      -0.766  10.594  22.723  0.00  0.00    +0.000 A 
ATOM     18  F   UNL     1      -0.194   9.719  23.568  0.00  0.00    +0.000 F 
ENDBRANCH   6  11
BRANCH   1  21
ATOM     19  O   UNL     1       5.855   5.763  18.551  0.00  0.00    +0.000 OA
ATOM     20  C   UNL     1       5.146   5.726  17.548  0.00  0.00    +0.000 C 
ATOM     21  N   UNL     1       3.805   6.077  17.473  0.00  0.00    +0.000 N 
ATOM     22  H   UNL     1       3.337   5.852  16.598  0.00  0.00    +0.000 HD
BRANCH  20  23
ATOM     23  C   UNL     1       5.751   5.218  16.290  0.00  0.00    +0.000 A 
ATOM     24  C   UNL     1       7.037   5.627  15.953  0.00  0.00    +0.000 A 
ATOM     25  N   UNL     1       7.651   5.232  14.810  0.00  0.00    +0.000 NA
ATOM     26  C   UNL     1       6.919   4.417  14.018  0.00  0.00    +0.000 A 
ATOM     27  C   UNL     1       5.635   4.002  14.360  0.00  0.00    +0.000 A 
ATOM     28  N   UNL     1       5.016   4.381  15.506  0.00  0.00    +0.000 NA
ENDBRANCH  20  23
ENDBRANCH   1  21
TORSDOF 3
ENDMDL
MODEL 8
REMARK VINA RESULT:      -7.9      4.622     10.369
REMARK  Name = 
REMARK  3 active torsions:
REMARK  status: ('A' for Active; 'I' for Inactive)
REMARK    1  A    between atoms: C_2  and  C_21
REMARK    2  A    between atoms: N_3  and  C_4
REMARK    3  A    between atoms: C_9  and  C_10
REMARK                            x       y       z     vdW  Elec       q    Type
REMARK                         _______ _______ _______ _____ _____    ______ ____
ROOT
ATOM      1  C   UNL     1      -0.000  10.530  20.565  0.00  0.00    +0.000 A 
ATOM      2  C   UNL     1       0.415  10.838  19.261  0.00  0.00    +0.000 A 
ATOM      3  C   UNL     1       1.218   9.977  18.508  0.00  0.00    +0.000 A 
ATOM      4  C   UNL     1       1.585   8.787  19.122  0.00  0.00    +0.000 A 
ATOM      5  N   UNL     1       2.310   7.722  18.674  0.00  0.00    +0.000 N 
ATOM      6  C   UNL     1       2.375   6.772  19.667  0.00  0.00    +0.000 A 
ATOM      7  N   UNL     1       1.738   7.207  20.745  0.00  0.00    +0.000 NA
ATOM      8  C   UNL     1       1.232   8.449  20.420  0.00  0.00    +0.000 A 
ATOM      9  C   UNL     1       0.446   9.344  21.173  0.00  0.00    +0.000 A 
ATOM     10  H   UNL     1       2.716   7.625  17.753  0.00  0.00    +0.000 HD
ENDROOT
BRANCH   6  11
ATOM     11  C   UNL     1       3.052   5.485  19.497  0.00  0.00    +0.000 A 
ATOM     12  C   UNL     1       4.385   5.445  19.066  0.00  0.00    +0.000 A 
ATOM     13  C   UNL     1       5.030   4.221  18.905  0.00  0.00    +0.000 A 
ATOM     14  F   UNL     1       6.305   4.197  18.492  0.00  0.00    +0.000 F 
ATOM     15  C   UNL     1       4.379   3.019  19.165  0.00  0.00    +0.000 A 
ATOM     16  C   UNL     1       3.056   3.040  19.596  0.00  0.00    +0.000 A 
ATOM     17  C   UNL     1       2.408   4.263  19.758  0.00  0.00    +0.000 A 
ATOM     18  F   UNL     1       1.132   4.245  20.178  0.00  0.00    +0.000 F 
ENDBRANCH   6  11
BRANCH   1  21
ATOM     19  O   UNL     1      -0.396  10.700  23.475  0.00  0.00    +0.000 OA
ATOM     20  C   UNL     1      -1.016  11.391  22.670  0.00  0.00    +0.000 C 
ATOM     21  N   UNL     1      -0.873  11.376  21.289  0.00  0.00    +0.000 N 
ATOM     22  H   UNL     1      -1.362  12.113  20.786  0.00  0.00    +0.000 HD
BRANCH  20  23
ATOM     23  C   UNL     1      -1.986  12.378  23.207  0.00  0.00    +0.000 A 
ATOM     24  C   UNL     1      -1.563  13.687  23.419  0.00  0.00    +0.000 A 
ATOM     25  N   UNL     1      -2.377  14.643  23.931  0.00  0.00    +0.000 NA
ATOM     26  C   UNL     1      -3.629  14.230  24.229  0.00  0.00    +0.000 A 
ATOM     27  C   UNL     1      -4.054  12.923  24.011  0.00  0.00    +0.000 A 
ATOM     28  N   UNL     1      -3.252  11.962  23.487  0.00  0.00    +0.000 NA
ENDBRANCH  20  23
ENDBRANCH   1  21
TORSDOF 3
ENDMDL
MODEL 9
REMARK VINA RESULT:      -7.9      4.763      9.990
REMARK  Name = 
REMARK  3 active torsions:
REMARK  status: ('A' for Active; 'I' for Inactive)
REMARK    1  A    between atoms: C_2  and  C_21
REMARK    2  A    between atoms: N_3  and  C_4
REMARK    3  A    between atoms: C_9  and  C_10
REMARK                            x       y       z     vdW  Elec       q    Type
REMARK                         _______ _______ _______ _____ _____    ______ ____
ROOT
ATOM      1  C   UNL     1       0.731  10.353  20.295  0.00  0.00    +0.000 A 
ATOM      2  C   UNL     1       1.174  10.651  18.999  0.00  0.00    +0.000 A 
ATOM      3  C   UNL     1       1.778   9.697  18.176  0.00  0.00    +0.000 A 
ATOM      4  C   UNL     1       1.915   8.424  18.712  0.00  0.00    +0.000 A 
ATOM      5  N   UNL     1       2.408   7.266  18.184  0.00  0.00    +0.000 N 
ATOM      6  C   UNL     1       2.303   6.264  19.121  0.00  0.00    +0.000 A 
ATOM      7  N   UNL     1       1.785   6.750  20.239  0.00  0.00    +0.000 NA
ATOM      8  C   UNL     1       1.527   8.084  19.999  0.00  0.00    +0.000 A 
ATOM      9  C   UNL     1       0.947   9.068  20.824  0.00  0.00    +0.000 A 
ATOM     10  H   UNL     1       2.769   7.147  17.247  0.00  0.00    +0.000 HD
ENDROOT
BRANCH   6  11
ATOM     11  C   UNL     1       2.711   4.882  18.859  0.00  0.00    +0.000 A 
ATOM     12  C   UNL     1       3.765   4.312  19.585  0.00  0.00    +0.000 A 
ATOM     13  C   UNL     1       4.153   2.997  19.338  0.00  0.00    +0.000 A 
ATOM     14  F   UNL     1       5.163   2.465  20.038  0.00  0.00    +0.000 F 
ATOM     15  C   UNL     1       3.512   2.221  18.377  0.00  0.00    +0.000 A 
ATOM     16  C   UNL     1       2.460   2.770  17.649  0.00  0.00    +0.000 A 
ATOM     17  C   UNL     1       2.070   4.086  17.894  0.00  0.00    +0.000 A 
ATOM     18  F   UNL     1       1.050   4.582  17.174  0.00  0.00    +0.000 F 
ENDBRANCH   6  11
BRANCH   1  21
ATOM     19  O   UNL     1      -0.774   9.931  22.787  0.00  0.00    +0.000 OA
ATOM     20  C   UNL     1      -0.648  11.031  22.255  0.00  0.00    +0.000 C 
ATOM     21  N   UNL     1       0.056  11.308  21.091  0.00  0.00    +0.000 N 
ATOM     22  H   UNL     1       0.175  12.294  20.870  0.00  0.00    +0.000 HD
BRANCH  20  23
ATOM     23  C   UNL     1      -1.265  12.202  22.930  0.00  0.00    +0.000 A 
ATOM     24  C   UNL     1      -2.609  12.138  23.286  0.00  0.00    +0.000 A 
ATOM     25  N   UNL     1      -3.255  13.172  23.879  0.00  0.00    +0.000 NA
ATOM     26  C   UNL     1      -2.501  14.273  24.094  0.00  0.00    +0.000 A 
ATOM     27  C   UNL     1      -1.155  14.333  23.744  0.00  0.00    +0.000 A 
ATOM     28  N   UNL     1      -0.495  13.300  23.161  0.00  0.00    +0.000 NA
ENDBRANCH  20  23
ENDBRANCH   1  21
TORSDOF 3
ENDMDL
