MODEL 1
REMARK VINA RESULT:      -8.9      0.000      0.000
REMARK  Name = 
REMARK  2 active torsions:
REMARK  status: ('A' for Active; 'I' for Inactive)
REMARK    1  A    between atoms: C_2  and  C_16
REMARK    2  A    between atoms: C_6  and  C_7
REMARK                            x       y       z     vdW  Elec       q    Type
REMARK                         _______ _______ _______ _____ _____    ______ ____
ROOT
ATOM      1  O   UNL     1       1.811   9.273  18.976  0.00  0.00    +0.000 OA
ATOM      2  C   UNL     1       1.388   8.883  20.060  0.00  0.00    +0.000 C 
ATOM      3  N   UNL     1       1.593   7.637  20.600  0.00  0.00    +0.000 N 
ATOM      4  C   UNL     1       2.278   6.658  19.942  0.00  0.00    +0.000 A 
ATOM      5  N   UNL     1       2.934   6.689  18.813  0.00  0.00    +0.000 NA
ATOM      6  C   UNL     1       3.443   5.413  18.558  0.00  0.00    +0.000 A 
ATOM      7  N   UNL     1       3.185   4.436  19.442  0.00  0.00    +0.000 NA
ATOM      8  S   UNL     1       2.293   5.120  20.676  0.00  0.00    +0.000 S 
ATOM      9  H   UNL     1       1.167   7.381  21.488  0.00  0.00    +0.000 HD
ENDROOT
BRANCH   2  10
ATOM     10  C   UNL     1       0.546   9.796  20.909  0.00  0.00    +0.000 A 
ATOM     11  C   UNL     1      -0.375  10.542  20.278  0.00  0.00    +0.000 A 
ATOM     12  C   UNL     1      -1.262  11.413  21.033  0.00  0.00    +0.000 A 
ATOM     13  C   UNL     1      -2.198  12.242  20.410  0.00  0.00    +0.000 A 
ATOM     14  C   UNL     1      -3.058  13.027  21.185  0.00  0.00    +0.000 A 
ATOM     15  C   UNL     1      -2.993  12.979  22.580  0.00  0.00    +0.000 A 
ATOM     16  C   UNL     1      -2.055  12.162  23.206  0.00  0.00    +0.000 A 
ATOM     17  C   UNL     1      -1.195  11.398  22.422  0.00  0.00    +0.000 A 
ATOM     18  O   UNL     1      -0.235  10.619  23.088  0.00  0.00    +0.000 OA
ATOM     19  C   UNL     1       0.694   9.870  22.379  0.00  0.00    +0.000 A 
ATOM     20  O   UNL     1       1.600   9.275  22.959  0.00  0.00    +0.000 OA
ENDBRANCH   2  10
BRANCH   6  21
ATOM     21  C   UNL     1       4.252   5.183  17.356  0.00  0.00    +0.000 A 
ATOM     22  C   UNL     1       4.680   6.272  16.576  0.00  0.00    +0.000 A 
ATOM     23  C   UNL     1       5.471   6.070  15.442  0.00  0.00    +0.000 A 
ATOM     24  C   UNL     1       5.832   4.778  15.082  0.00  0.00    +0.000 A 
ATOM     25  F   UNL     1       6.593   4.583  13.997  0.00  0.00    +0.000 F 
ATOM     26  C   UNL     1       5.416   3.684  15.832  0.00  0.00    +0.000 A 
ATOM     27  C   UNL     1       4.627   3.886  16.967  0.00  0.00    +0.000 A 
ENDBRANCH   6  21
TORSDOF 2
ENDMDL
MODEL 2
REMARK VINA RESULT:      -8.1      2.670      3.547
REMARK  Name = 
REMARK  2 active torsions:
REMARK  status: ('A' for Active; 'I' for Inactive)
REMARK    1  A    between atoms: C_2  and  C_16
REMARK    2  A    between atoms: C_6  and  C_7
REMARK                            x       y       z     vdW  Elec       q    Type
REMARK                         _______ _______ _______ _____ _____    ______ ____
ROOT
ATOM      1  O   UNL     1       0.670   9.189  22.354  0.00  0.00    +0.000 OA
ATOM      2  C   UNL     1       0.411  10.082  21.551  0.00  0.00    +0.000 C 
ATOM      3  N   UNL     1       0.711  10.067  20.212  0.00  0.00    +0.000 N 
ATOM      4  C   UNL     1       1.387   9.039  19.624  0.00  0.00    +0.000 A 
ATOM      5  N   UNL     1       1.777   7.889  20.106  0.00  0.00    +0.000 NA
ATOM      6  C   UNL     1       2.457   7.192  19.103  0.00  0.00    +0.000 A 
ATOM      7  N   UNL     1       2.598   7.779  17.904  0.00  0.00    +0.000 NA
ATOM      8  S   UNL     1       1.828   9.257  17.991  0.00  0.00    +0.000 S 
ATOM      9  H   UNL     1       0.499  10.872  19.625  0.00  0.00    +0.000 HD
ENDROOT
BRANCH   2  10
ATOM     10  C   UNL     1      -0.272  11.336  22.021  0.00  0.00    +0.000 A 
ATOM     11  C   UNL     1      -1.432  11.191  22.682  0.00  0.00    +0.000 A 
ATOM     12  C   UNL     1      -2.129  12.352  23.212  0.00  0.00    +0.000 A 
ATOM     13  C   UNL     1      -3.362  12.247  23.861  0.00  0.00    +0.000 A 
ATOM     14  C   UNL     1      -3.969  13.389  24.392  0.00  0.00    +0.000 A 
ATOM     15  C   UNL     1      -3.345  14.635  24.286  0.00  0.00    +0.000 A 
ATOM     16  C   UNL     1      -2.121  14.747  23.632  0.00  0.00    +0.000 A 
ATOM     17  C   UNL     1      -1.535  13.604  23.094  0.00  0.00    +0.000 A 
ATOM     18  O   UNL     1      -0.322  13.762  22.406  0.00  0.00    +0.000 OA
ATOM     19  C   UNL     1       0.299  12.682  21.794  0.00  0.00    +0.000 A 
ATOM     20  O   UNL     1       1.302  12.840  21.101  0.00  0.00    +0.000 OA
ENDBRANCH   2  10
BRANCH   6  21
ATOM     21  C   UNL     1       2.975   5.848  19.381  0.00  0.00    +0.000 A 
ATOM     22  C   UNL     1       4.227   5.457  18.877  0.00  0.00    +0.000 A 
ATOM     23  C   UNL     1       4.744   4.189  19.154  0.00  0.00    +0.000 A 
ATOM     24  C   UNL     1       4.006   3.305  19.931  0.00  0.00    +0.000 A 
ATOM     25  F   UNL     1       4.501   2.090  20.200  0.00  0.00    +0.000 F 
ATOM     26  C   UNL     1       2.761   3.664  20.434  0.00  0.00    +0.000 A 
ATOM     27  C   UNL     1       2.245   4.933  20.160  0.00  0.00    +0.000 A 
ENDBRANCH   6  21
TORSDOF 2
ENDMDL
MODEL 3
REMARK VINA RESULT:      -8.1      1.729      2.234
REMARK  Name = 
REMARK  2 active torsions:
REMARK  status: ('A' for Active; 'I' for Inactive)
REMARK    1  A    between atoms: C_2  and  C_16
REMARK    2  A    between atoms: C_6  and  C_7
REMARK                            x       y       z     vdW  Elec       q    Type
REMARK                         _______ _______ _______ _____ _____    ______ ____
ROOT
ATOM      1  O   UNL     1       1.647   9.531  17.442  0.00  0.00    +0.000 OA
ATOM      2  C   UNL     1       1.098   9.381  18.530  0.00  0.00    +0.000 C 
ATOM      3  N   UNL     1       1.368   8.383  19.434  0.00  0.00    +0.000 N 
ATOM      4  C   UNL     1       2.280   7.399  19.187  0.00  0.00    +0.000 A 
ATOM      5  N   UNL     1       3.111   7.237  18.193  0.00  0.00    +0.000 NA
ATOM      6  C   UNL     1       3.820   6.050  18.393  0.00  0.00    +0.000 A 
ATOM      7  N   UNL     1       3.544   5.319  19.484  0.00  0.00    +0.000 NA
ATOM      8  S   UNL     1       2.370   6.144  20.338  0.00  0.00    +0.000 S 
ATOM      9  H   UNL     1       0.833   8.307  20.297  0.00  0.00    +0.000 HD
ENDROOT
BRANCH   2  10
ATOM     10  C   UNL     1       0.010  10.327  18.957  0.00  0.00    +0.000 A 
ATOM     11  C   UNL     1      -1.155  10.262  18.292  0.00  0.00    +0.000 A 
ATOM     12  C   UNL     1      -2.272  11.108  18.677  0.00  0.00    +0.000 A 
ATOM     13  C   UNL     1      -3.482  11.107  17.978  0.00  0.00    +0.000 A 
ATOM     14  C   UNL     1      -4.541  11.907  18.416  0.00  0.00    +0.000 A 
ATOM     15  C   UNL     1      -4.400  12.703  19.557  0.00  0.00    +0.000 A 
ATOM     16  C   UNL     1      -3.194  12.716  20.251  0.00  0.00    +0.000 A 
ATOM     17  C   UNL     1      -2.142  11.925  19.794  0.00  0.00    +0.000 A 
ATOM     18  O   UNL     1      -0.928  11.996  20.496  0.00  0.00    +0.000 OA
ATOM     19  C   UNL     1       0.184  11.282  20.074  0.00  0.00    +0.000 A 
ATOM     20  O   UNL     1       1.274  11.428  20.623  0.00  0.00    +0.000 OA
ENDBRANCH   2  10
BRANCH   6  21
ATOM     21  C   UNL     1       4.848   5.649  17.425  0.00  0.00    +0.000 A 
ATOM     22  C   UNL     1       4.615   4.570  16.555  0.00  0.00    +0.000 A 
ATOM     23  C   UNL     1       5.575   4.193  15.612  0.00  0.00    +0.000 A 
ATOM     24  C   UNL     1       6.773   4.891  15.541  0.00  0.00    +0.000 A 
ATOM     25  F   UNL     1       7.693   4.534  14.636  0.00  0.00    +0.000 F 
ATOM     26  C   UNL     1       7.032   5.957  16.395  0.00  0.00    +0.000 A 
ATOM     27  C   UNL     1       6.071   6.336  17.337  0.00  0.00    +0.000 A 
ENDBRANCH   6  21
TORSDOF 2
ENDMDL
MODEL 4
REMARK VINA RESULT:      -8.0      1.145      1.237
REMARK  Name = 
REMARK  2 active torsions:
REMARK  status: ('A' for Active; 'I' for Inactive)
REMARK    1  A    between atoms: C_2  and  C_16
REMARK    2  A    between atoms: C_6  and  C_7
REMARK                            x       y       z     vdW  Elec       q    Type
REMARK                         _______ _______ _______ _____ _____    ______ ____
ROOT
ATOM      1  O   UNL     1       1.911   9.164  18.897  0.00  0.00    +0.000 OA
ATOM      2  C   UNL     1       1.513   8.776  19.992  0.00  0.00    +0.000 C 
ATOM      3  N   UNL     1       1.731   7.531  20.528  0.00  0.00    +0.000 N 
ATOM      4  C   UNL     1       2.402   6.551  19.856  0.00  0.00    +0.000 A 
ATOM      5  N   UNL     1       3.031   6.580  18.713  0.00  0.00    +0.000 NA
ATOM      6  C   UNL     1       3.535   5.304  18.448  0.00  0.00    +0.000 A 
ATOM      7  N   UNL     1       3.297   4.329  19.340  0.00  0.00    +0.000 NA
ATOM      8  S   UNL     1       2.434   5.014  20.593  0.00  0.00    +0.000 S 
ATOM      9  H   UNL     1       1.326   7.277  21.427  0.00  0.00    +0.000 HD
ENDROOT
BRANCH   2  10
ATOM     10  C   UNL     1       0.691   9.690  20.858  0.00  0.00    +0.000 A 
ATOM     11  C   UNL     1       0.964  11.003  20.795  0.00  0.00    +0.000 A 
ATOM     12  C   UNL     1       0.180  11.957  21.563  0.00  0.00    +0.000 A 
ATOM     13  C   UNL     1       0.465  13.324  21.564  0.00  0.00    +0.000 A 
ATOM     14  C   UNL     1      -0.347  14.205  22.285  0.00  0.00    +0.000 A 
ATOM     15  C   UNL     1      -1.449  13.726  22.998  0.00  0.00    +0.000 A 
ATOM     16  C   UNL     1      -1.731  12.363  23.009  0.00  0.00    +0.000 A 
ATOM     17  C   UNL     1      -0.906  11.496  22.299  0.00  0.00    +0.000 A 
ATOM     18  O   UNL     1      -1.197  10.124  22.368  0.00  0.00    +0.000 OA
ATOM     19  C   UNL     1      -0.391   9.189  21.734  0.00  0.00    +0.000 A 
ATOM     20  O   UNL     1      -0.584   7.984  21.884  0.00  0.00    +0.000 OA
ENDBRANCH   2  10
BRANCH   6  21
ATOM     21  C   UNL     1       4.316   5.073  17.228  0.00  0.00    +0.000 A 
ATOM     22  C   UNL     1       4.746   6.161  16.450  0.00  0.00    +0.000 A 
ATOM     23  C   UNL     1       5.511   5.958  15.298  0.00  0.00    +0.000 A 
ATOM     24  C   UNL     1       5.843   4.663  14.919  0.00  0.00    +0.000 A 
ATOM     25  F   UNL     1       6.580   4.466  13.818  0.00  0.00    +0.000 F 
ATOM     26  C   UNL     1       5.425   3.569  15.668  0.00  0.00    +0.000 A 
ATOM     27  C   UNL     1       4.661   3.773  16.820  0.00  0.00    +0.000 A 
ENDBRANCH   6  21
TORSDOF 2
ENDMDL
MODEL 5
REMARK VINA RESULT:      -7.9      2.586      3.584
REMARK  Name = 
REMARK  2 active torsions:
REMARK  status: ('A' for Active; 'I' for Inactive)
REMARK    1  A    between atoms: C_2  and  C_16
REMARK    2  A    between atoms: C_6  and  C_7
REMARK                            x       y       z     vdW  Elec       q    Type
REMARK                         _______ _______ _______ _____ _____    ______ ____
ROOT
ATOM      1  O   UNL     1       0.347   9.209  22.114  0.00  0.00    +0.000 OA
ATOM      2  C   UNL     1       0.242  10.209  21.407  0.00  0.00    +0.000 C 
ATOM      3  N   UNL     1       0.674  10.322  20.109  0.00  0.00    +0.000 N 
ATOM      4  C   UNL     1       1.324   9.311  19.463  0.00  0.00    +0.000 A 
ATOM      5  N   UNL     1       1.571   8.083  19.834  0.00  0.00    +0.000 NA
ATOM      6  C   UNL     1       2.294   7.448  18.819  0.00  0.00    +0.000 A 
ATOM      7  N   UNL     1       2.602   8.154  17.720  0.00  0.00    +0.000 NA
ATOM      8  S   UNL     1       1.945   9.676  17.918  0.00  0.00    +0.000 S 
ATOM      9  H   UNL     1       0.587  11.204  19.610  0.00  0.00    +0.000 HD
ENDROOT
BRANCH   2  10
ATOM     10  C   UNL     1      -0.386  11.457  21.963  0.00  0.00    +0.000 A 
ATOM     11  C   UNL     1      -1.559  11.321  22.602  0.00  0.00    +0.000 A 
ATOM     12  C   UNL     1      -2.205  12.472  23.211  0.00  0.00    +0.000 A 
ATOM     13  C   UNL     1      -3.450  12.380  23.839  0.00  0.00    +0.000 A 
ATOM     14  C   UNL     1      -4.007  13.508  24.449  0.00  0.00    +0.000 A 
ATOM     15  C   UNL     1      -3.322  14.726  24.442  0.00  0.00    +0.000 A 
ATOM     16  C   UNL     1      -2.086  14.825  23.809  0.00  0.00    +0.000 A 
ATOM     17  C   UNL     1      -1.550  13.698  23.192  0.00  0.00    +0.000 A 
ATOM     18  O   UNL     1      -0.322  13.847  22.528  0.00  0.00    +0.000 OA
ATOM     19  C   UNL     1       0.253  12.786  21.843  0.00  0.00    +0.000 A 
ATOM     20  O   UNL     1       1.271  12.945  21.172  0.00  0.00    +0.000 OA
ENDBRANCH   2  10
BRANCH   6  21
ATOM     21  C   UNL     1       2.674   6.040  18.975  0.00  0.00    +0.000 A 
ATOM     22  C   UNL     1       2.415   5.370  20.184  0.00  0.00    +0.000 A 
ATOM     23  C   UNL     1       2.750   4.021  20.338  0.00  0.00    +0.000 A 
ATOM     24  C   UNL     1       3.350   3.342  19.285  0.00  0.00    +0.000 A 
ATOM     25  F   UNL     1       3.668   2.049  19.430  0.00  0.00    +0.000 F 
ATOM     26  C   UNL     1       3.623   3.984  18.083  0.00  0.00    +0.000 A 
ATOM     27  C   UNL     1       3.286   5.331  17.928  0.00  0.00    +0.000 A 
ENDBRANCH   6  21
TORSDOF 2
ENDMDL
MODEL 6
REMARK VINA RESULT:      -7.8      1.600      2.280
REMARK  Name = 
REMARK  2 active torsions:
REMARK  status: ('A' for Active; 'I' for Inactive)
REMARK    1  A    between atoms: C_2  and  C_16
REMARK    2  A    between atoms: C_6  and  C_7
REMARK                            x       y       z     vdW  Elec       q    Type
REMARK                         _______ _______ _______ _____ _____    ______ ____
ROOT
ATOM      1  O   UNL     1       1.716   9.517  17.947  0.00  0.00    +0.000 OA
ATOM      2  C   UNL     1       1.125   9.269  18.995  0.00  0.00    +0.000 C 
ATOM      3  N   UNL     1       1.334   8.171  19.792  0.00  0.00    +0.000 N 
ATOM      4  C   UNL     1       2.222   7.187  19.467  0.00  0.00    +0.000 A 
ATOM      5  N   UNL     1       3.080   7.106  18.487  0.00  0.00    +0.000 NA
ATOM      6  C   UNL     1       3.745   5.879  18.577  0.00  0.00    +0.000 A 
ATOM      7  N   UNL     1       3.408   5.045  19.573  0.00  0.00    +0.000 NA
ATOM      8  S   UNL     1       2.232   5.813  20.475  0.00  0.00    +0.000 S 
ATOM      9  H   UNL     1       0.767   8.020  20.625  0.00  0.00    +0.000 HD
ENDROOT
BRANCH   2  10
ATOM     10  C   UNL     1       0.054  10.201  19.490  0.00  0.00    +0.000 A 
ATOM     11  C   UNL     1       0.170  10.656  20.748  0.00  0.00    +0.000 A 
ATOM     12  C   UNL     1      -0.798  11.600  21.283  0.00  0.00    +0.000 A 
ATOM     13  C   UNL     1      -0.740  12.057  22.602  0.00  0.00    +0.000 A 
ATOM     14  C   UNL     1      -1.669  13.000  23.054  0.00  0.00    +0.000 A 
ATOM     15  C   UNL     1      -2.650  13.494  22.191  0.00  0.00    +0.000 A 
ATOM     16  C   UNL     1      -2.719  13.034  20.878  0.00  0.00    +0.000 A 
ATOM     17  C   UNL     1      -1.797  12.085  20.446  0.00  0.00    +0.000 A 
ATOM     18  O   UNL     1      -1.923  11.614  19.129  0.00  0.00    +0.000 OA
ATOM     19  C   UNL     1      -1.078  10.629  18.638  0.00  0.00    +0.000 A 
ATOM     20  O   UNL     1      -1.258  10.141  17.524  0.00  0.00    +0.000 OA
ENDBRANCH   2  10
BRANCH   6  21
ATOM     21  C   UNL     1       4.791   5.550  17.603  0.00  0.00    +0.000 A 
ATOM     22  C   UNL     1       4.588   4.517  16.672  0.00  0.00    +0.000 A 
ATOM     23  C   UNL     1       5.566   4.209  15.722  0.00  0.00    +0.000 A 
ATOM     24  C   UNL     1       6.754   4.930  15.707  0.00  0.00    +0.000 A 
ATOM     25  F   UNL     1       7.691   4.638  14.796  0.00  0.00    +0.000 F 
ATOM     26  C   UNL     1       6.983   5.951  16.622  0.00  0.00    +0.000 A 
ATOM     27  C   UNL     1       6.004   6.260  17.570  0.00  0.00    +0.000 A 
ENDBRANCH   6  21
TORSDOF 2
ENDMDL
MODEL 7
REMARK VINA RESULT:      -7.8      4.504      9.914
REMARK  Name = 
REMARK  2 active torsions:
REMARK  status: ('A' for Active; 'I' for Inactive)
REMARK    1  A    between atoms: C_2  and  C_16
REMARK    2  A    between atoms: C_6  and  C_7
REMARK                            x       y       z     vdW  Elec       q    Type
REMARK                         _______ _______ _______ _____ _____    ______ ____
ROOT
ATOM      1  O   UNL     1       1.169   9.405  21.373  0.00  0.00    +0.000 OA
ATOM      2  C   UNL     1       1.023   9.262  20.162  0.00  0.00    +0.000 C 
ATOM      3  N   UNL     1       0.132   9.949  19.375  0.00  0.00    +0.000 N 
ATOM      4  C   UNL     1      -0.740  10.865  19.886  0.00  0.00    +0.000 A 
ATOM      5  N   UNL     1      -0.859  11.348  21.094  0.00  0.00    +0.000 NA
ATOM      6  C   UNL     1      -1.929  12.247  21.112  0.00  0.00    +0.000 A 
ATOM      7  N   UNL     1      -2.614  12.444  19.975  0.00  0.00    +0.000 NA
ATOM      8  S   UNL     1      -1.893  11.500  18.802  0.00  0.00    +0.000 S 
ATOM      9  H   UNL     1       0.045   9.736  18.384  0.00  0.00    +0.000 HD
ENDROOT
BRANCH   2  10
ATOM     10  C   UNL     1       1.847   8.244  19.423  0.00  0.00    +0.000 A 
ATOM     11  C   UNL     1       2.107   7.089  20.056  0.00  0.00    +0.000 A 
ATOM     12  C   UNL     1       2.854   6.035  19.390  0.00  0.00    +0.000 A 
ATOM     13  C   UNL     1       3.189   4.840  20.033  0.00  0.00    +0.000 A 
ATOM     14  C   UNL     1       3.870   3.839  19.334  0.00  0.00    +0.000 A 
ATOM     15  C   UNL     1       4.210   4.023  17.991  0.00  0.00    +0.000 A 
ATOM     16  C   UNL     1       3.888   5.216  17.348  0.00  0.00    +0.000 A 
ATOM     17  C   UNL     1       3.223   6.209  18.061  0.00  0.00    +0.000 A 
ATOM     18  O   UNL     1       2.953   7.414  17.392  0.00  0.00    +0.000 OA
ATOM     19  C   UNL     1       2.342   8.474  18.047  0.00  0.00    +0.000 A 
ATOM     20  O   UNL     1       2.204   9.563  17.494  0.00  0.00    +0.000 OA
ENDBRANCH   2  10
BRANCH   6  21
ATOM     21  C   UNL     1      -2.257  12.956  22.353  0.00  0.00    +0.000 A 
ATOM     22  C   UNL     1      -1.325  13.836  22.930  0.00  0.00    +0.000 A 
ATOM     23  C   UNL     1      -1.633  14.537  24.099  0.00  0.00    +0.000 A 
ATOM     24  C   UNL     1      -2.873  14.353  24.699  0.00  0.00    +0.000 A 
ATOM     25  F   UNL     1      -3.171  15.026  25.817  0.00  0.00    +0.000 F 
ATOM     26  C   UNL     1      -3.809  13.483  24.153  0.00  0.00    +0.000 A 
ATOM     27  C   UNL     1      -3.502  12.784  22.983  0.00  0.00    +0.000 A 
ENDBRANCH   6  21
TORSDOF 2
ENDMDL
MODEL 8
REMARK VINA RESULT:      -7.8      3.913      9.400
REMARK  Name = 
REMARK  2 active torsions:
REMARK  status: ('A' for Active; 'I' for Inactive)
REMARK    1  A    between atoms: C_2  and  C_16
REMARK    2  A    between atoms: C_6  and  C_7
REMARK                            x       y       z     vdW  Elec       q    Type
REMARK                         _______ _______ _______ _____ _____    ______ ____
ROOT
ATOM      1  O   UNL     1       1.342   9.398  18.545  0.00  0.00    +0.000 OA
ATOM      2  C   UNL     1       1.648   8.515  19.343  0.00  0.00    +0.000 C 
ATOM      3  N   UNL     1       1.306   8.483  20.672  0.00  0.00    +0.000 N 
ATOM      4  C   UNL     1       0.601   9.485  21.271  0.00  0.00    +0.000 A 
ATOM      5  N   UNL     1       0.040  10.551  20.767  0.00  0.00    +0.000 NA
ATOM      6  C   UNL     1      -0.544  11.281  21.806  0.00  0.00    +0.000 A 
ATOM      7  N   UNL     1      -0.432  10.809  23.058  0.00  0.00    +0.000 NA
ATOM      8  S   UNL     1       0.411   9.371  22.962  0.00  0.00    +0.000 S 
ATOM      9  H   UNL     1       1.640   7.733  21.274  0.00  0.00    +0.000 HD
ENDROOT
BRANCH   2  10
ATOM     10  C   UNL     1       2.488   7.353  18.889  0.00  0.00    +0.000 A 
ATOM     11  C   UNL     1       3.264   7.542  17.810  0.00  0.00    +0.000 A 
ATOM     12  C   UNL     1       4.143   6.484  17.338  0.00  0.00    +0.000 A 
ATOM     13  C   UNL     1       4.926   6.624  16.190  0.00  0.00    +0.000 A 
ATOM     14  C   UNL     1       5.789   5.593  15.805  0.00  0.00    +0.000 A 
ATOM     15  C   UNL     1       5.878   4.425  16.568  0.00  0.00    +0.000 A 
ATOM     16  C   UNL     1       5.092   4.277  17.707  0.00  0.00    +0.000 A 
ATOM     17  C   UNL     1       4.227   5.305  18.071  0.00  0.00    +0.000 A 
ATOM     18  O   UNL     1       3.420   5.102  19.201  0.00  0.00    +0.000 OA
ATOM     19  C   UNL     1       2.493   6.055  19.598  0.00  0.00    +0.000 A 
ATOM     20  O   UNL     1       1.712   5.830  20.522  0.00  0.00    +0.000 OA
ENDBRANCH   2  10
BRANCH   6  21
ATOM     21  C   UNL     1      -1.272  12.518  21.501  0.00  0.00    +0.000 A 
ATOM     22  C   UNL     1      -2.518  12.769  22.100  0.00  0.00    +0.000 A 
ATOM     23  C   UNL     1      -3.211  13.954  21.838  0.00  0.00    +0.000 A 
ATOM     24  C   UNL     1      -2.661  14.888  20.970  0.00  0.00    +0.000 A 
ATOM     25  F   UNL     1      -3.322  16.026  20.719  0.00  0.00    +0.000 F 
ATOM     26  C   UNL     1      -1.433  14.661  20.358  0.00  0.00    +0.000 A 
ATOM     27  C   UNL     1      -0.740  13.478  20.623  0.00  0.00    +0.000 A 
ENDBRANCH   6  21
TORSDOF 2
ENDMDL
MODEL 9
REMARK VINA RESULT:      -7.8      2.510      2.717
REMARK  Name = 
REMARK  2 active torsions:
REMARK  status: ('A' for Active; 'I' for Inactive)
REMARK    1  A    between atoms: C_2  and  C_16
REMARK    2  A    between atoms: C_6  and  C_7
REMARK                            x       y       z     vdW  Elec       q    Type
REMARK                         _______ _______ _______ _____ _____    ______ ____
ROOT
ATOM      1  O   UNL     1       0.354   7.797  21.488  0.00  0.00    +0.000 OA
ATOM      2  C   UNL     1       0.451   8.880  20.917  0.00  0.00    +0.000 C 
ATOM      3  N   UNL     1       1.145   9.115  19.757  0.00  0.00    +0.000 N 
ATOM      4  C   UNL     1       1.858   8.141  19.120  0.00  0.00    +0.000 A 
ATOM      5  N   UNL     1       1.956   6.862  19.362  0.00  0.00    +0.000 NA
ATOM      6  C   UNL     1       2.835   6.298  18.432  0.00  0.00    +0.000 A 
ATOM      7  N   UNL     1       3.400   7.105  17.521  0.00  0.00    +0.000 NA
ATOM      8  S   UNL     1       2.801   8.640  17.790  0.00  0.00    +0.000 S 
ATOM      9  H   UNL     1       1.211  10.056  19.374  0.00  0.00    +0.000 HD
ENDROOT
BRANCH   2  10
ATOM     10  C   UNL     1      -0.208  10.098  21.503  0.00  0.00    +0.000 A 
ATOM     11  C   UNL     1      -0.770  10.964  20.645  0.00  0.00    +0.000 A 
ATOM     12  C   UNL     1      -1.470  12.140  21.135  0.00  0.00    +0.000 A 
ATOM     13  C   UNL     1      -2.024  13.090  20.273  0.00  0.00    +0.000 A 
ATOM     14  C   UNL     1      -2.726  14.180  20.796  0.00  0.00    +0.000 A 
ATOM     15  C   UNL     1      -2.886  14.321  22.177  0.00  0.00    +0.000 A 
ATOM     16  C   UNL     1      -2.328  13.382  23.041  0.00  0.00    +0.000 A 
ATOM     17  C   UNL     1      -1.618  12.310  22.507  0.00  0.00    +0.000 A 
ATOM     18  O   UNL     1      -1.035  11.408  23.411  0.00  0.00    +0.000 OA
ATOM     19  C   UNL     1      -0.266  10.343  22.961  0.00  0.00    +0.000 A 
ATOM     20  O   UNL     1       0.333   9.618  23.754  0.00  0.00    +0.000 OA
ENDBRANCH   2  10
BRANCH   6  21
ATOM     21  C   UNL     1       3.097   4.855  18.468  0.00  0.00    +0.000 A 
ATOM     22  C   UNL     1       2.348   3.982  17.660  0.00  0.00    +0.000 A 
ATOM     23  C   UNL     1       2.603   2.608  17.665  0.00  0.00    +0.000 A 
ATOM     24  C   UNL     1       3.605   2.103  18.484  0.00  0.00    +0.000 A 
ATOM     25  F   UNL     1       3.854   0.787  18.487  0.00  0.00    +0.000 F 
ATOM     26  C   UNL     1       4.355   2.944  19.298  0.00  0.00    +0.000 A 
ATOM     27  C   UNL     1       4.102   4.318  19.291  0.00  0.00    +0.000 A 
ENDBRANCH   6  21
TORSDOF 2
ENDMDL
