MODEL 1
REMARK VINA RESULT:      -9.7      0.000      0.000
REMARK  Name = 
REMARK  3 active torsions:
REMARK  status: ('A' for Active; 'I' for Inactive)
REMARK    1  A    between atoms: N_3  and  C_4
REMARK    2  A    between atoms: C_4  and  C_5
REMARK    3  A    between atoms: N_9  and  C_10
REMARK                            x       y       z     vdW  Elec       q    Type
REMARK                         _______ _______ _______ _____ _____    ______ ____
ROOT
ATOM      1  O   UNL     1       7.454   4.889  19.252  0.00  0.00    +0.000 OA
ATOM      2  C   UNL     1       6.917   4.781  18.151  0.00  0.00    +0.000 C 
ATOM      3  N   UNL     1       5.736   4.137  17.977  0.00  0.00    +0.000 N 
ATOM      4  N   UNL     1       7.495   5.315  17.038  0.00  0.00    +0.000 N 
ATOM      5  C   UNL     1       7.054   5.178  15.754  0.00  0.00    +0.000 A 
ATOM      6  N   UNL     1       5.878   4.554  15.469  0.00  0.00    +0.000 NA
ATOM      7  C   UNL     1       5.946   4.357  14.181  0.00  0.00    +0.000 A 
ATOM      8  C   UNL     1       5.121   3.638  13.263  0.00  0.00    +0.000 A 
ATOM      9  C   UNL     1       5.793   2.995  12.276  0.00  0.00    +0.000 A 
ATOM     10  C   UNL     1       6.910   3.732  11.649  0.00  0.00    +0.000 A 
ATOM     11  C   UNL     1       7.550   4.669  12.375  0.00  0.00    +0.000 A 
ATOM     12  N   UNL     1       7.132   4.906  13.684  0.00  0.00    +0.000 N 
ATOM     13  N   UNL     1       7.769   5.555  14.691  0.00  0.00    +0.000 NA
ATOM     14  H   UNL     1       5.343   4.107  17.034  0.00  0.00    +0.000 HD
ATOM     15  H   UNL     1       8.392   5.758  17.153  0.00  0.00    +0.000 HD
ENDROOT
BRANCH   3  16
ATOM     16  C   UNL     1       4.906   3.672  19.047  0.00  0.00    +0.000 C 
BRANCH  16  17
ATOM     17  C   UNL     1       3.572   3.287  18.500  0.00  0.00    +0.000 A 
ATOM     18  N   UNL     1       3.251   2.107  17.992  0.00  0.00    +0.000 NA
ATOM     19  N   UNL     1       1.897   2.064  17.811  0.00  0.00    +0.000 NA
ATOM     20  C   UNL     1       1.410   3.218  18.208  0.00  0.00    +0.000 A 
ATOM     21  N   UNL     1       2.425   4.058  18.596  0.00  0.00    +0.000 N 
BRANCH  21  22
ATOM     22  C   UNL     1       2.290   5.405  19.046  0.00  0.00    +0.000 A 
ATOM     23  C   UNL     1       2.574   6.457  18.172  0.00  0.00    +0.000 A 
ATOM     24  C   UNL     1       2.371   7.774  18.590  0.00  0.00    +0.000 A 
ATOM     25  C   UNL     1       1.906   8.036  19.880  0.00  0.00    +0.000 A 
ATOM     26  C   UNL     1       1.672   6.987  20.761  0.00  0.00    +0.000 A 
ATOM     27  C   UNL     1       1.873   5.671  20.350  0.00  0.00    +0.000 A 
ENDBRANCH  21  22
ENDBRANCH  16  17
ENDBRANCH   3  16
TORSDOF 3
ENDMDL
MODEL 2
REMARK VINA RESULT:      -7.9      1.653      2.720
REMARK  Name = 
REMARK  3 active torsions:
REMARK  status: ('A' for Active; 'I' for Inactive)
REMARK    1  A    between atoms: N_3  and  C_4
REMARK    2  A    between atoms: C_4  and  C_5
REMARK    3  A    between atoms: N_9  and  C_10
REMARK                            x       y       z     vdW  Elec       q    Type
REMARK                         _______ _______ _______ _____ _____    ______ ____
ROOT
ATOM      1  O   UNL     1       7.676   6.137  18.411  0.00  0.00    +0.000 OA
ATOM      2  C   UNL     1       7.088   5.787  17.389  0.00  0.00    +0.000 C 
ATOM      3  N   UNL     1       5.852   5.229  17.415  0.00  0.00    +0.000 N 
ATOM      4  N   UNL     1       7.662   5.950  16.164  0.00  0.00    +0.000 N 
ATOM      5  C   UNL     1       7.160   5.515  14.971  0.00  0.00    +0.000 A 
ATOM      6  N   UNL     1       5.926   4.945  14.886  0.00  0.00    +0.000 NA
ATOM      7  C   UNL     1       5.926   4.406  13.698  0.00  0.00    +0.000 A 
ATOM      8  C   UNL     1       5.008   3.544  13.022  0.00  0.00    +0.000 A 
ATOM      9  C   UNL     1       5.585   2.603  12.234  0.00  0.00    +0.000 A 
ATOM     10  C   UNL     1       6.732   3.042  11.413  0.00  0.00    +0.000 A 
ATOM     11  C   UNL     1       7.475   4.078  11.848  0.00  0.00    +0.000 A 
ATOM     12  N   UNL     1       7.131   4.693  13.051  0.00  0.00    +0.000 N 
ATOM     13  N   UNL     1       7.859   5.528  13.835  0.00  0.00    +0.000 NA
ATOM     14  H   UNL     1       5.420   4.983  16.523  0.00  0.00    +0.000 HD
ATOM     15  H   UNL     1       8.597   6.326  16.140  0.00  0.00    +0.000 HD
ENDROOT
BRANCH   3  16
ATOM     16  C   UNL     1       5.031   5.143  18.585  0.00  0.00    +0.000 C 
BRANCH  16  17
ATOM     17  C   UNL     1       3.920   6.134  18.478  0.00  0.00    +0.000 A 
ATOM     18  N   UNL     1       3.975   7.299  17.851  0.00  0.00    +0.000 NA
ATOM     19  N   UNL     1       2.711   7.813  17.775  0.00  0.00    +0.000 NA
ATOM     20  C   UNL     1       1.902   6.958  18.358  0.00  0.00    +0.000 A 
ATOM     21  N   UNL     1       2.614   5.905  18.880  0.00  0.00    +0.000 N 
BRANCH  21  22
ATOM     22  C   UNL     1       2.087   4.805  19.619  0.00  0.00    +0.000 A 
ATOM     23  C   UNL     1       1.280   3.863  18.975  0.00  0.00    +0.000 A 
ATOM     24  C   UNL     1       0.826   2.747  19.680  0.00  0.00    +0.000 A 
ATOM     25  C   UNL     1       1.159   2.586  21.027  0.00  0.00    +0.000 A 
ATOM     26  C   UNL     1       1.921   3.551  21.675  0.00  0.00    +0.000 A 
ATOM     27  C   UNL     1       2.377   4.667  20.976  0.00  0.00    +0.000 A 
ENDBRANCH  21  22
ENDBRANCH  16  17
ENDBRANCH   3  16
TORSDOF 3
ENDMDL
MODEL 3
REMARK VINA RESULT:      -7.8      3.323      5.220
REMARK  Name = 
REMARK  3 active torsions:
REMARK  status: ('A' for Active; 'I' for Inactive)
REMARK    1  A    between atoms: N_3  and  C_4
REMARK    2  A    between atoms: C_4  and  C_5
REMARK    3  A    between atoms: N_9  and  C_10
REMARK                            x       y       z     vdW  Elec       q    Type
REMARK                         _______ _______ _______ _____ _____    ______ ____
ROOT
ATOM      1  O   UNL     1       1.570   4.643  21.183  0.00  0.00    +0.000 OA
ATOM      2  C   UNL     1       2.402   5.017  20.358  0.00  0.00    +0.000 C 
ATOM      3  N   UNL     1       2.493   6.307  19.948  0.00  0.00    +0.000 N 
ATOM      4  N   UNL     1       3.287   4.135  19.812  0.00  0.00    +0.000 N 
ATOM      5  C   UNL     1       4.186   4.403  18.821  0.00  0.00    +0.000 A 
ATOM      6  N   UNL     1       4.361   5.665  18.340  0.00  0.00    +0.000 NA
ATOM      7  C   UNL     1       5.045   5.478  17.245  0.00  0.00    +0.000 A 
ATOM      8  C   UNL     1       5.446   6.353  16.190  0.00  0.00    +0.000 A 
ATOM      9  C   UNL     1       5.423   5.800  14.951  0.00  0.00    +0.000 A 
ATOM     10  C   UNL     1       5.940   4.421  14.835  0.00  0.00    +0.000 A 
ATOM     11  C   UNL     1       5.876   3.616  15.914  0.00  0.00    +0.000 A 
ATOM     12  N   UNL     1       5.326   4.118  17.094  0.00  0.00    +0.000 N 
ATOM     13  N   UNL     1       4.885   3.455  18.193  0.00  0.00    +0.000 NA
ATOM     14  H   UNL     1       3.224   6.544  19.275  0.00  0.00    +0.000 HD
ATOM     15  H   UNL     1       3.199   3.169  20.081  0.00  0.00    +0.000 HD
ENDROOT
BRANCH   3  16
ATOM     16  C   UNL     1       1.770   7.393  20.538  0.00  0.00    +0.000 C 
BRANCH  16  17
ATOM     17  C   UNL     1       1.670   8.508  19.551  0.00  0.00    +0.000 A 
ATOM     18  N   UNL     1       2.198   8.521  18.337  0.00  0.00    +0.000 NA
ATOM     19  N   UNL     1       1.705   9.601  17.659  0.00  0.00    +0.000 NA
ATOM     20  C   UNL     1       0.887  10.234  18.469  0.00  0.00    +0.000 A 
ATOM     21  N   UNL     1       0.870   9.629  19.702  0.00  0.00    +0.000 N 
BRANCH  21  22
ATOM     22  C   UNL     1       0.135  10.054  20.848  0.00  0.00    +0.000 A 
ATOM     23  C   UNL     1       0.178   9.291  22.017  0.00  0.00    +0.000 A 
ATOM     24  C   UNL     1      -0.481   9.745  23.162  0.00  0.00    +0.000 A 
ATOM     25  C   UNL     1      -1.195  10.944  23.129  0.00  0.00    +0.000 A 
ATOM     26  C   UNL     1      -1.275  11.674  21.949  0.00  0.00    +0.000 A 
ATOM     27  C   UNL     1      -0.619  11.225  20.804  0.00  0.00    +0.000 A 
ENDBRANCH  21  22
ENDBRANCH  16  17
ENDBRANCH   3  16
TORSDOF 3
ENDMDL
MODEL 4
REMARK VINA RESULT:      -7.8      3.261      5.125
REMARK  Name = 
REMARK  3 active torsions:
REMARK  status: ('A' for Active; 'I' for Inactive)
REMARK    1  A    between atoms: N_3  and  C_4
REMARK    2  A    between atoms: C_4  and  C_5
REMARK    3  A    between atoms: N_9  and  C_10
REMARK                            x       y       z     vdW  Elec       q    Type
REMARK                         _______ _______ _______ _____ _____    ______ ____
ROOT
ATOM      1  O   UNL     1       0.997   4.492  20.552  0.00  0.00    +0.000 OA
ATOM      2  C   UNL     1       1.971   4.807  19.870  0.00  0.00    +0.000 C 
ATOM      3  N   UNL     1       2.336   6.099  19.675  0.00  0.00    +0.000 N 
ATOM      4  N   UNL     1       2.740   3.854  19.272  0.00  0.00    +0.000 N 
ATOM      5  C   UNL     1       3.779   4.076  18.415  0.00  0.00    +0.000 A 
ATOM      6  N   UNL     1       4.230   5.334  18.153  0.00  0.00    +0.000 NA
ATOM      7  C   UNL     1       4.989   5.170  17.106  0.00  0.00    +0.000 A 
ATOM      8  C   UNL     1       5.657   6.087  16.238  0.00  0.00    +0.000 A 
ATOM      9  C   UNL     1       5.677   5.723  14.931  0.00  0.00    +0.000 A 
ATOM     10  C   UNL     1       5.950   4.299  14.646  0.00  0.00    +0.000 A 
ATOM     11  C   UNL     1       5.620   3.382  15.577  0.00  0.00    +0.000 A 
ATOM     12  N   UNL     1       5.039   3.814  16.769  0.00  0.00    +0.000 N 
ATOM     13  N   UNL     1       4.364   3.105  17.709  0.00  0.00    +0.000 NA
ATOM     14  H   UNL     1       3.170   6.279  19.113  0.00  0.00    +0.000 HD
ATOM     15  H   UNL     1       2.451   2.895  19.378  0.00  0.00    +0.000 HD
ENDROOT
BRANCH   3  16
ATOM     16  C   UNL     1       1.757   7.213  20.362  0.00  0.00    +0.000 C 
BRANCH  16  17
ATOM     17  C   UNL     1       1.762   8.402  19.460  0.00  0.00    +0.000 A 
ATOM     18  N   UNL     1       2.290   8.454  18.247  0.00  0.00    +0.000 NA
ATOM     19  N   UNL     1       1.900   9.622  17.653  0.00  0.00    +0.000 NA
ATOM     20  C   UNL     1       1.143  10.267  18.511  0.00  0.00    +0.000 A 
ATOM     21  N   UNL     1       1.070   9.578  19.697  0.00  0.00    +0.000 N 
BRANCH  21  22
ATOM     22  C   UNL     1       0.377   9.984  20.876  0.00  0.00    +0.000 A 
ATOM     23  C   UNL     1      -0.420  11.132  20.848  0.00  0.00    +0.000 A 
ATOM     24  C   UNL     1      -1.156  11.488  21.980  0.00  0.00    +0.000 A 
ATOM     25  C   UNL     1      -1.078  10.712  23.138  0.00  0.00    +0.000 A 
ATOM     26  C   UNL     1      -0.246   9.600  23.176  0.00  0.00    +0.000 A 
ATOM     27  C   UNL     1       0.491   9.240  22.049  0.00  0.00    +0.000 A 
ENDBRANCH  21  22
ENDBRANCH  16  17
ENDBRANCH   3  16
TORSDOF 3
ENDMDL
MODEL 5
REMARK VINA RESULT:      -7.7      1.704      2.843
REMARK  Name = 
REMARK  3 active torsions:
REMARK  status: ('A' for Active; 'I' for Inactive)
REMARK    1  A    between atoms: N_3  and  C_4
REMARK    2  A    between atoms: C_4  and  C_5
REMARK    3  A    between atoms: N_9  and  C_10
REMARK                            x       y       z     vdW  Elec       q    Type
REMARK                         _______ _______ _______ _____ _____    ______ ____
ROOT
ATOM      1  O   UNL     1       7.598   5.859  17.768  0.00  0.00    +0.000 OA
ATOM      2  C   UNL     1       7.033   5.430  16.764  0.00  0.00    +0.000 C 
ATOM      3  N   UNL     1       5.854   4.760  16.820  0.00  0.00    +0.000 N 
ATOM      4  N   UNL     1       7.576   5.613  15.527  0.00  0.00    +0.000 N 
ATOM      5  C   UNL     1       7.103   5.102  14.353  0.00  0.00    +0.000 A 
ATOM      6  N   UNL     1       5.926   4.419  14.298  0.00  0.00    +0.000 NA
ATOM      7  C   UNL     1       5.963   3.851  13.124  0.00  0.00    +0.000 A 
ATOM      8  C   UNL     1       5.121   2.891  12.483  0.00  0.00    +0.000 A 
ATOM      9  C   UNL     1       5.774   1.986  11.710  0.00  0.00    +0.000 A 
ATOM     10  C   UNL     1       6.866   2.508  10.863  0.00  0.00    +0.000 A 
ATOM     11  C   UNL     1       7.515   3.620  11.262  0.00  0.00    +0.000 A 
ATOM     12  N   UNL     1       7.129   4.231  12.454  0.00  0.00    +0.000 N 
ATOM     13  N   UNL     1       7.785   5.150  13.207  0.00  0.00    +0.000 NA
ATOM     14  H   UNL     1       5.437   4.453  15.940  0.00  0.00    +0.000 HD
ATOM     15  H   UNL     1       8.471   6.072  15.480  0.00  0.00    +0.000 HD
ENDROOT
BRANCH   3  16
ATOM     16  C   UNL     1       5.058   4.630  18.003  0.00  0.00    +0.000 C 
BRANCH  16  17
ATOM     17  C   UNL     1       4.137   5.800  18.105  0.00  0.00    +0.000 A 
ATOM     18  N   UNL     1       4.300   6.971  17.510  0.00  0.00    +0.000 NA
ATOM     19  N   UNL     1       3.151   7.697  17.655  0.00  0.00    +0.000 NA
ATOM     20  C   UNL     1       2.304   6.961  18.339  0.00  0.00    +0.000 A 
ATOM     21  N   UNL     1       2.890   5.775  18.708  0.00  0.00    +0.000 N 
BRANCH  21  22
ATOM     22  C   UNL     1       2.298   4.741  19.492  0.00  0.00    +0.000 A 
ATOM     23  C   UNL     1       2.637   4.618  20.842  0.00  0.00    +0.000 A 
ATOM     24  C   UNL     1       2.002   3.653  21.627  0.00  0.00    +0.000 A 
ATOM     25  C   UNL     1       1.050   2.804  21.059  0.00  0.00    +0.000 A 
ATOM     26  C   UNL     1       0.753   2.899  19.705  0.00  0.00    +0.000 A 
ATOM     27  C   UNL     1       1.383   3.860  18.917  0.00  0.00    +0.000 A 
ENDBRANCH  21  22
ENDBRANCH  16  17
ENDBRANCH   3  16
TORSDOF 3
ENDMDL
MODEL 6
REMARK VINA RESULT:      -7.4      1.164      1.235
REMARK  Name = 
REMARK  3 active torsions:
REMARK  status: ('A' for Active; 'I' for Inactive)
REMARK    1  A    between atoms: N_3  and  C_4
REMARK    2  A    between atoms: C_4  and  C_5
REMARK    3  A    between atoms: N_9  and  C_10
REMARK                            x       y       z     vdW  Elec       q    Type
REMARK                         _______ _______ _______ _____ _____    ______ ____
ROOT
ATOM      1  O   UNL     1       7.597   6.202  17.905  0.00  0.00    +0.000 OA
ATOM      2  C   UNL     1       7.028   5.757  16.910  0.00  0.00    +0.000 C 
ATOM      3  N   UNL     1       5.824   5.135  16.976  0.00  0.00    +0.000 N 
ATOM      4  N   UNL     1       7.592   5.873  15.674  0.00  0.00    +0.000 N 
ATOM      5  C   UNL     1       7.114   5.336  14.514  0.00  0.00    +0.000 A 
ATOM      6  N   UNL     1       5.913   4.696  14.469  0.00  0.00    +0.000 NA
ATOM      7  C   UNL     1       5.941   4.083  13.318  0.00  0.00    +0.000 A 
ATOM      8  C   UNL     1       5.071   3.132  12.702  0.00  0.00    +0.000 A 
ATOM      9  C   UNL     1       5.698   2.175  11.972  0.00  0.00    +0.000 A 
ATOM     10  C   UNL     1       6.819   2.623  11.120  0.00  0.00    +0.000 A 
ATOM     11  C   UNL     1       7.505   3.724  11.486  0.00  0.00    +0.000 A 
ATOM     12  N   UNL     1       7.129   4.394  12.649  0.00  0.00    +0.000 N 
ATOM     13  N   UNL     1       7.811   5.316  13.376  0.00  0.00    +0.000 NA
ATOM     14  H   UNL     1       5.406   4.810  16.102  0.00  0.00    +0.000 HD
ATOM     15  H   UNL     1       8.505   6.296  15.622  0.00  0.00    +0.000 HD
ENDROOT
BRANCH   3  16
ATOM     16  C   UNL     1       5.010   5.079  18.152  0.00  0.00    +0.000 C 
BRANCH  16  17
ATOM     17  C   UNL     1       3.668   4.532  17.793  0.00  0.00    +0.000 A 
ATOM     18  N   UNL     1       3.432   3.350  17.245  0.00  0.00    +0.000 NA
ATOM     19  N   UNL     1       2.086   3.115  17.278  0.00  0.00    +0.000 NA
ATOM     20  C   UNL     1       1.518   4.157  17.842  0.00  0.00    +0.000 A 
ATOM     21  N   UNL     1       2.459   5.116  18.133  0.00  0.00    +0.000 N 
BRANCH  21  22
ATOM     22  C   UNL     1       2.217   6.398  18.710  0.00  0.00    +0.000 A 
ATOM     23  C   UNL     1       2.173   7.527  17.889  0.00  0.00    +0.000 A 
ATOM     24  C   UNL     1       1.863   8.771  18.443  0.00  0.00    +0.000 A 
ATOM     25  C   UNL     1       1.620   8.886  19.813  0.00  0.00    +0.000 A 
ATOM     26  C   UNL     1       1.714   7.767  20.633  0.00  0.00    +0.000 A 
ATOM     27  C   UNL     1       2.022   6.524  20.085  0.00  0.00    +0.000 A 
ENDBRANCH  21  22
ENDBRANCH  16  17
ENDBRANCH   3  16
TORSDOF 3
ENDMDL
MODEL 7
REMARK VINA RESULT:      -7.2      5.332      8.649
REMARK  Name = 
REMARK  3 active torsions:
REMARK  status: ('A' for Active; 'I' for Inactive)
REMARK    1  A    between atoms: N_3  and  C_4
REMARK    2  A    between atoms: C_4  and  C_5
REMARK    3  A    between atoms: N_9  and  C_10
REMARK                            x       y       z     vdW  Elec       q    Type
REMARK                         _______ _______ _______ _____ _____    ______ ____
ROOT
ATOM      1  O   UNL     1      -0.039   9.188  23.041  0.00  0.00    +0.000 OA
ATOM      2  C   UNL     1       0.300   9.802  22.030  0.00  0.00    +0.000 C 
ATOM      3  N   UNL     1       1.028   9.228  21.040  0.00  0.00    +0.000 N 
ATOM      4  N   UNL     1      -0.049  11.108  21.859  0.00  0.00    +0.000 N 
ATOM      5  C   UNL     1       0.348  11.923  20.837  0.00  0.00    +0.000 A 
ATOM      6  N   UNL     1       1.077  11.446  19.790  0.00  0.00    +0.000 NA
ATOM      7  C   UNL     1       1.505  12.530  19.204  0.00  0.00    +0.000 A 
ATOM      8  C   UNL     1       2.426  12.758  18.136  0.00  0.00    +0.000 A 
ATOM      9  C   UNL     1       3.204  13.860  18.279  0.00  0.00    +0.000 A 
ATOM     10  C   UNL     1       2.537  15.078  18.784  0.00  0.00    +0.000 A 
ATOM     11  C   UNL     1       1.448  14.938  19.564  0.00  0.00    +0.000 A 
ATOM     12  N   UNL     1       0.995  13.653  19.862  0.00  0.00    +0.000 N 
ATOM     13  N   UNL     1       0.136  13.240  20.829  0.00  0.00    +0.000 NA
ATOM     14  H   UNL     1       1.254   9.797  20.222  0.00  0.00    +0.000 HD
ATOM     15  H   UNL     1      -0.553  11.553  22.608  0.00  0.00    +0.000 HD
ENDROOT
BRANCH   3  16
ATOM     16  C   UNL     1       1.331   7.831  20.968  0.00  0.00    +0.000 C 
BRANCH  16  17
ATOM     17  C   UNL     1       1.953   7.531  19.645  0.00  0.00    +0.000 A 
ATOM     18  N   UNL     1       2.401   8.425  18.777  0.00  0.00    +0.000 NA
ATOM     19  N   UNL     1       3.100   7.772  17.800  0.00  0.00    +0.000 NA
ATOM     20  C   UNL     1       3.066   6.489  18.083  0.00  0.00    +0.000 A 
ATOM     21  N   UNL     1       2.302   6.266  19.202  0.00  0.00    +0.000 N 
BRANCH  21  22
ATOM     22  C   UNL     1       2.000   5.001  19.788  0.00  0.00    +0.000 A 
ATOM     23  C   UNL     1       1.321   4.037  19.038  0.00  0.00    +0.000 A 
ATOM     24  C   UNL     1       1.091   2.773  19.586  0.00  0.00    +0.000 A 
ATOM     25  C   UNL     1       1.520   2.484  20.883  0.00  0.00    +0.000 A 
ATOM     26  C   UNL     1       2.151   3.462  21.642  0.00  0.00    +0.000 A 
ATOM     27  C   UNL     1       2.383   4.725  21.100  0.00  0.00    +0.000 A 
ENDBRANCH  21  22
ENDBRANCH  16  17
ENDBRANCH   3  16
TORSDOF 3
ENDMDL
MODEL 8
REMARK VINA RESULT:      -7.1      3.862      5.735
REMARK  Name = 
REMARK  3 active torsions:
REMARK  status: ('A' for Active; 'I' for Inactive)
REMARK    1  A    between atoms: N_3  and  C_4
REMARK    2  A    between atoms: C_4  and  C_5
REMARK    3  A    between atoms: N_9  and  C_10
REMARK                            x       y       z     vdW  Elec       q    Type
REMARK                         _______ _______ _______ _____ _____    ______ ____
ROOT
ATOM      1  O   UNL     1       1.464   6.729  20.753  0.00  0.00    +0.000 OA
ATOM      2  C   UNL     1       2.264   6.801  19.822  0.00  0.00    +0.000 C 
ATOM      3  N   UNL     1       2.055   7.595  18.742  0.00  0.00    +0.000 N 
ATOM      4  N   UNL     1       3.417   6.075  19.837  0.00  0.00    +0.000 N 
ATOM      5  C   UNL     1       4.332   5.991  18.827  0.00  0.00    +0.000 A 
ATOM      6  N   UNL     1       4.219   6.749  17.701  0.00  0.00    +0.000 NA
ATOM      7  C   UNL     1       5.065   6.192  16.878  0.00  0.00    +0.000 A 
ATOM      8  C   UNL     1       5.348   6.394  15.493  0.00  0.00    +0.000 A 
ATOM      9  C   UNL     1       5.638   5.265  14.799  0.00  0.00    +0.000 A 
ATOM     10  C   UNL     1       6.520   4.286  15.469  0.00  0.00    +0.000 A 
ATOM     11  C   UNL     1       6.535   4.252  16.817  0.00  0.00    +0.000 A 
ATOM     12  N   UNL     1       5.722   5.139  17.521  0.00  0.00    +0.000 N 
ATOM     13  N   UNL     1       5.337   5.113  18.822  0.00  0.00    +0.000 NA
ATOM     14  H   UNL     1       2.776   7.616  18.019  0.00  0.00    +0.000 HD
ATOM     15  H   UNL     1       3.560   5.453  20.616  0.00  0.00    +0.000 HD
ENDROOT
BRANCH   3  16
ATOM     16  C   UNL     1       0.994   8.551  18.637  0.00  0.00    +0.000 C 
BRANCH  16  17
ATOM     17  C   UNL     1       1.572   9.927  18.649  0.00  0.00    +0.000 A 
ATOM     18  N   UNL     1       2.310  10.467  17.691  0.00  0.00    +0.000 NA
ATOM     19  N   UNL     1       2.457  11.800  17.956  0.00  0.00    +0.000 NA
ATOM     20  C   UNL     1       1.811  12.055  19.071  0.00  0.00    +0.000 A 
ATOM     21  N   UNL     1       1.283  10.899  19.593  0.00  0.00    +0.000 N 
BRANCH  21  22
ATOM     22  C   UNL     1       0.554  10.770  20.812  0.00  0.00    +0.000 A 
ATOM     23  C   UNL     1      -0.530  11.615  21.060  0.00  0.00    +0.000 A 
ATOM     24  C   UNL     1      -1.289  11.441  22.220  0.00  0.00    +0.000 A 
ATOM     25  C   UNL     1      -0.951  10.441  23.133  0.00  0.00    +0.000 A 
ATOM     26  C   UNL     1       0.158   9.636  22.905  0.00  0.00    +0.000 A 
ATOM     27  C   UNL     1       0.919   9.805  21.750  0.00  0.00    +0.000 A 
ENDBRANCH  21  22
ENDBRANCH  16  17
ENDBRANCH   3  16
TORSDOF 3
ENDMDL
MODEL 9
REMARK VINA RESULT:      -7.1      7.792     11.765
REMARK  Name = 
REMARK  3 active torsions:
REMARK  status: ('A' for Active; 'I' for Inactive)
REMARK    1  A    between atoms: N_3  and  C_4
REMARK    2  A    between atoms: C_4  and  C_5
REMARK    3  A    between atoms: N_9  and  C_10
REMARK                            x       y       z     vdW  Elec       q    Type
REMARK                         _______ _______ _______ _____ _____    ______ ____
ROOT
ATOM      1  O   UNL     1      -2.799   9.761  15.372  0.00  0.00    +0.000 OA
ATOM      2  C   UNL     1      -3.166  10.424  16.341  0.00  0.00    +0.000 C 
ATOM      3  N   UNL     1      -2.455  10.482  17.495  0.00  0.00    +0.000 N 
ATOM      4  N   UNL     1      -4.323  11.143  16.295  0.00  0.00    +0.000 N 
ATOM      5  C   UNL     1      -4.887  11.833  17.330  0.00  0.00    +0.000 A 
ATOM      6  N   UNL     1      -4.255  11.957  18.529  0.00  0.00    +0.000 NA
ATOM      7  C   UNL     1      -5.195  12.397  19.320  0.00  0.00    +0.000 A 
ATOM      8  C   UNL     1      -5.256  12.612  20.731  0.00  0.00    +0.000 A 
ATOM      9  C   UNL     1      -6.451  12.316  21.302  0.00  0.00    +0.000 A 
ATOM     10  C   UNL     1      -7.658  12.742  20.564  0.00  0.00    +0.000 A 
ATOM     11  C   UNL     1      -7.583  12.864  19.224  0.00  0.00    +0.000 A 
ATOM     12  N   UNL     1      -6.372  12.586  18.591  0.00  0.00    +0.000 N 
ATOM     13  N   UNL     1      -6.117  12.350  17.279  0.00  0.00    +0.000 NA
ATOM     14  H   UNL     1      -2.816  11.071  18.248  0.00  0.00    +0.000 HD
ATOM     15  H   UNL     1      -4.877  11.071  15.457  0.00  0.00    +0.000 HD
ENDROOT
BRANCH   3  16
ATOM     16  C   UNL     1      -1.141   9.939  17.661  0.00  0.00    +0.000 C 
BRANCH  16  17
ATOM     17  C   UNL     1      -0.436  10.684  18.745  0.00  0.00    +0.000 A 
ATOM     18  N   UNL     1      -0.852  11.804  19.315  0.00  0.00    +0.000 NA
ATOM     19  N   UNL     1      -0.068  12.054  20.407  0.00  0.00    +0.000 NA
ATOM     20  C   UNL     1       0.816  11.086  20.487  0.00  0.00    +0.000 A 
ATOM     21  N   UNL     1       0.677  10.221  19.428  0.00  0.00    +0.000 N 
BRANCH  21  22
ATOM     22  C   UNL     1       1.482   9.076  19.152  0.00  0.00    +0.000 A 
ATOM     23  C   UNL     1       1.581   8.057  20.102  0.00  0.00    +0.000 A 
ATOM     24  C   UNL     1       2.309   6.904  19.802  0.00  0.00    +0.000 A 
ATOM     25  C   UNL     1       2.950   6.781  18.568  0.00  0.00    +0.000 A 
ATOM     26  C   UNL     1       2.888   7.820  17.646  0.00  0.00    +0.000 A 
ATOM     27  C   UNL     1       2.163   8.973  17.940  0.00  0.00    +0.000 A 
ENDBRANCH  21  22
ENDBRANCH  16  17
ENDBRANCH   3  16
TORSDOF 3
ENDMDL
