MODEL 1
REMARK VINA RESULT:     -10.1      0.000      0.000
REMARK  Name = 
REMARK  4 active torsions:
REMARK  status: ('A' for Active; 'I' for Inactive)
REMARK    1  A    between atoms: C_1  and  C_2
REMARK    2  A    between atoms: C_2  and  C_3
REMARK    3  A    between atoms: C_7  and  C_8
REMARK    4  A    between atoms: C_11  and  C_12
REMARK                            x       y       z     vdW  Elec       q    Type
REMARK                         _______ _______ _______ _____ _____    ______ ____
ROOT
ATOM      1  C   UNL     1       2.933   4.757  18.524  0.00  0.00    +0.000 A 
ATOM      2  C   UNL     1       3.836   5.005  17.476  0.00  0.00    +0.000 A 
ATOM      3  C   UNL     1       4.121   6.308  17.053  0.00  0.00    +0.000 A 
ATOM      4  C   UNL     1       3.496   7.397  17.658  0.00  0.00    +0.000 A 
ATOM      5  C   UNL     1       2.582   7.186  18.689  0.00  0.00    +0.000 A 
ATOM      6  C   UNL     1       2.319   5.868  19.118  0.00  0.00    +0.000 A 
ENDROOT
BRANCH   1   8
ATOM      7  C   UNL     1       3.295   2.311  18.046  0.00  0.00    +0.000 C 
ATOM      8  C   UNL     1       2.623   3.330  18.960  0.00  0.00    +0.000 C 
ATOM      9  N   UNL     1       2.999   3.148  20.355  0.00  0.00    +0.000 N 
ATOM     10  C   UNL     1       1.918   2.955  21.175  0.00  0.00    +0.000 C 
ATOM     11  O   UNL     1       1.962   2.916  22.390  0.00  0.00    +0.000 OA
ATOM     12  N   UNL     1       0.812   2.841  20.412  0.00  0.00    +0.000 N 
ATOM     13  C   UNL     1       1.114   2.979  19.097  0.00  0.00    +0.000 C 
ATOM     14  O   UNL     1       0.307   2.860  18.184  0.00  0.00    +0.000 OA
ATOM     15  H   UNL     1       3.897   3.385  20.752  0.00  0.00    +0.000 HD
ATOM     16  H   UNL     1      -0.111   2.654  20.772  0.00  0.00    +0.000 HD
ENDBRANCH   1   8
BRANCH   5  17
ATOM     17  C   UNL     1       1.935   8.286  19.387  0.00  0.00    +0.000 A 
ATOM     18  N   UNL     1       1.285   8.212  20.560  0.00  0.00    +0.000 NA
ATOM     19  O   UNL     1       0.575   9.424  20.615  0.00  0.00    +0.000 OA
ATOM     20  C   UNL     1       0.905  10.107  19.482  0.00  0.00    +0.000 A 
ATOM     21  N   UNL     1       1.807   9.494  18.759  0.00  0.00    +0.000 NA
BRANCH  20  22
ATOM     22  C   UNL     1       0.014  11.192  19.015  0.00  0.00    +0.000 C 
ATOM     23  C   UNL     1      -0.615  11.899  20.248  0.00  0.00    +0.000 C 
ATOM     24  C   UNL     1      -1.758  12.712  19.664  0.00  0.00    +0.000 C 
ATOM     25  C   UNL     1      -2.297  11.669  18.730  0.00  0.00    +0.000 A 
ATOM     26  C   UNL     1      -3.604  11.422  18.362  0.00  0.00    +0.000 A 
ATOM     27 CL   UNL     1      -4.913  12.284  19.067  0.00  0.00    +0.000 Cl
ATOM     28  C   UNL     1      -3.856  10.382  17.469  0.00  0.00    +0.000 A 
ATOM     29  C   UNL     1      -2.797   9.634  16.923  0.00  0.00    +0.000 A 
ATOM     30  C   UNL     1      -1.480   9.859  17.327  0.00  0.00    +0.000 A 
ATOM     31  C   UNL     1      -1.250  10.836  18.280  0.00  0.00    +0.000 A 
ENDBRANCH  20  22
ENDBRANCH   5  17
TORSDOF 3
ENDMDL
MODEL 2
REMARK VINA RESULT:     -10.0      2.106      2.594
REMARK  Name = 
REMARK  4 active torsions:
REMARK  status: ('A' for Active; 'I' for Inactive)
REMARK    1  A    between atoms: C_1  and  C_2
REMARK    2  A    between atoms: C_2  and  C_3
REMARK    3  A    between atoms: C_7  and  C_8
REMARK    4  A    between atoms: C_11  and  C_12
REMARK                            x       y       z     vdW  Elec       q    Type
REMARK                         _______ _______ _______ _____ _____    ______ ____
ROOT
ATOM      1  C   UNL     1       3.255   4.299  18.383  0.00  0.00    +0.000 A 
ATOM      2  C   UNL     1       4.392   4.365  17.559  0.00  0.00    +0.000 A 
ATOM      3  C   UNL     1       4.814   5.575  16.995  0.00  0.00    +0.000 A 
ATOM      4  C   UNL     1       4.100   6.748  17.231  0.00  0.00    +0.000 A 
ATOM      5  C   UNL     1       2.958   6.715  18.030  0.00  0.00    +0.000 A 
ATOM      6  C   UNL     1       2.556   5.493  18.606  0.00  0.00    +0.000 A 
ENDROOT
BRANCH   1   8
ATOM      7  C   UNL     1       3.385   1.791  18.203  0.00  0.00    +0.000 C 
ATOM      8  C   UNL     1       2.802   2.970  18.974  0.00  0.00    +0.000 C 
ATOM      9  N   UNL     1       3.137   2.920  20.390  0.00  0.00    +0.000 N 
ATOM     10  C   UNL     1       2.029   2.929  21.198  0.00  0.00    +0.000 C 
ATOM     11  O   UNL     1       2.051   3.031  22.410  0.00  0.00    +0.000 OA
ATOM     12  N   UNL     1       0.930   2.830  20.425  0.00  0.00    +0.000 N 
ATOM     13  C   UNL     1       1.264   2.783  19.111  0.00  0.00    +0.000 C 
ATOM     14  O   UNL     1       0.464   2.633  18.197  0.00  0.00    +0.000 OA
ATOM     15  H   UNL     1       4.047   3.117  20.781  0.00  0.00    +0.000 HD
ATOM     16  H   UNL     1      -0.012   2.776  20.779  0.00  0.00    +0.000 HD
ENDBRANCH   1   8
BRANCH   5  17
ATOM     17  C   UNL     1       2.200   7.916  18.347  0.00  0.00    +0.000 A 
ATOM     18  N   UNL     1       2.222   9.074  17.667  0.00  0.00    +0.000 NA
ATOM     19  O   UNL     1       1.614   9.982  18.551  0.00  0.00    +0.000 OA
ATOM     20  C   UNL     1       1.265   9.259  19.653  0.00  0.00    +0.000 A 
ATOM     21  N   UNL     1       1.512   7.981  19.528  0.00  0.00    +0.000 NA
BRANCH  20  22
ATOM     22  C   UNL     1       1.021   9.970  20.927  0.00  0.00    +0.000 C 
ATOM     23  C   UNL     1       0.170   9.064  21.860  0.00  0.00    +0.000 C 
ATOM     24  C   UNL     1      -0.322  10.007  22.945  0.00  0.00    +0.000 C 
ATOM     25  C   UNL     1      -0.699  11.159  22.061  0.00  0.00    +0.000 A 
ATOM     26  C   UNL     1      -1.736  12.059  22.197  0.00  0.00    +0.000 A 
ATOM     27 CL   UNL     1      -2.900  11.902  23.452  0.00  0.00    +0.000 Cl
ATOM     28  C   UNL     1      -1.882  13.054  21.233  0.00  0.00    +0.000 A 
ATOM     29  C   UNL     1      -0.966  13.162  20.171  0.00  0.00    +0.000 A 
ATOM     30  C   UNL     1       0.059  12.228  20.011  0.00  0.00    +0.000 A 
ATOM     31  C   UNL     1       0.143  11.193  20.927  0.00  0.00    +0.000 A 
ENDBRANCH  20  22
ENDBRANCH   5  17
TORSDOF 3
ENDMDL
MODEL 3
REMARK VINA RESULT:      -9.9      3.295      4.705
REMARK  Name = 
REMARK  4 active torsions:
REMARK  status: ('A' for Active; 'I' for Inactive)
REMARK    1  A    between atoms: C_1  and  C_2
REMARK    2  A    between atoms: C_2  and  C_3
REMARK    3  A    between atoms: C_7  and  C_8
REMARK    4  A    between atoms: C_11  and  C_12
REMARK                            x       y       z     vdW  Elec       q    Type
REMARK                         _______ _______ _______ _____ _____    ______ ____
ROOT
ATOM      1  C   UNL     1       4.945   5.776  17.278  0.00  0.00    +0.000 A 
ATOM      2  C   UNL     1       4.301   4.527  17.318  0.00  0.00    +0.000 A 
ATOM      3  C   UNL     1       2.955   4.413  17.682  0.00  0.00    +0.000 A 
ATOM      4  C   UNL     1       2.221   5.546  18.030  0.00  0.00    +0.000 A 
ATOM      5  C   UNL     1       2.833   6.798  18.017  0.00  0.00    +0.000 A 
ATOM      6  C   UNL     1       4.186   6.900  17.630  0.00  0.00    +0.000 A 
ENDROOT
BRANCH   1   8
ATOM      7  C   UNL     1       6.734   5.025  15.672  0.00  0.00    +0.000 C 
ATOM      8  C   UNL     1       6.416   5.878  16.896  0.00  0.00    +0.000 C 
ATOM      9  N   UNL     1       6.779   7.275  16.701  0.00  0.00    +0.000 N 
ATOM     10  C   UNL     1       7.653   7.733  17.653  0.00  0.00    +0.000 C 
ATOM     11  O   UNL     1       7.995   8.894  17.784  0.00  0.00    +0.000 OA
ATOM     12  N   UNL     1       8.041   6.695  18.419  0.00  0.00    +0.000 N 
ATOM     13  C   UNL     1       7.432   5.549  18.028  0.00  0.00    +0.000 C 
ATOM     14  O   UNL     1       7.649   4.447  18.514  0.00  0.00    +0.000 OA
ATOM     15  H   UNL     1       6.281   7.930  16.117  0.00  0.00    +0.000 HD
ATOM     16  H   UNL     1       8.713   6.760  19.168  0.00  0.00    +0.000 HD
ENDBRANCH   1   8
BRANCH   5  17
ATOM     17  C   UNL     1       2.105   8.019  18.326  0.00  0.00    +0.000 A 
ATOM     18  N   UNL     1       2.165   9.175  17.645  0.00  0.00    +0.000 NA
ATOM     19  O   UNL     1       1.572  10.099  18.523  0.00  0.00    +0.000 OA
ATOM     20  C   UNL     1       1.192   9.387  19.622  0.00  0.00    +0.000 A 
ATOM     21  N   UNL     1       1.406   8.102  19.499  0.00  0.00    +0.000 NA
BRANCH  20  22
ATOM     22  C   UNL     1       0.952  10.105  20.893  0.00  0.00    +0.000 C 
ATOM     23  C   UNL     1       0.175   9.172  21.864  0.00  0.00    +0.000 C 
ATOM     24  C   UNL     1      -0.328  10.107  22.951  0.00  0.00    +0.000 C 
ATOM     25  C   UNL     1      -0.787  11.227  22.063  0.00  0.00    +0.000 A 
ATOM     26  C   UNL     1      -1.862  12.078  22.220  0.00  0.00    +0.000 A 
ATOM     27 CL   UNL     1      -2.978  11.884  23.513  0.00  0.00    +0.000 Cl
ATOM     28  C   UNL     1      -2.085  13.050  21.247  0.00  0.00    +0.000 A 
ATOM     29  C   UNL     1      -1.208  13.186  20.156  0.00  0.00    +0.000 A 
ATOM     30  C   UNL     1      -0.144  12.299  19.977  0.00  0.00    +0.000 A 
ATOM     31  C   UNL     1       0.017  11.284  20.904  0.00  0.00    +0.000 A 
ENDBRANCH  20  22
ENDBRANCH   5  17
TORSDOF 3
ENDMDL
MODEL 4
REMARK VINA RESULT:      -9.8      1.007      1.282
REMARK  Name = 
REMARK  4 active torsions:
REMARK  status: ('A' for Active; 'I' for Inactive)
REMARK    1  A    between atoms: C_1  and  C_2
REMARK    2  A    between atoms: C_2  and  C_3
REMARK    3  A    between atoms: C_7  and  C_8
REMARK    4  A    between atoms: C_11  and  C_12
REMARK                            x       y       z     vdW  Elec       q    Type
REMARK                         _______ _______ _______ _____ _____    ______ ____
ROOT
ATOM      1  C   UNL     1       2.832   4.889  18.614  0.00  0.00    +0.000 A 
ATOM      2  C   UNL     1       3.742   5.156  17.576  0.00  0.00    +0.000 A 
ATOM      3  C   UNL     1       4.019   6.467  17.170  0.00  0.00    +0.000 A 
ATOM      4  C   UNL     1       3.380   7.544  17.783  0.00  0.00    +0.000 A 
ATOM      5  C   UNL     1       2.459   7.313  18.803  0.00  0.00    +0.000 A 
ATOM      6  C   UNL     1       2.204   5.988  19.215  0.00  0.00    +0.000 A 
ENDROOT
BRANCH   1   8
ATOM      7  C   UNL     1       1.448   2.836  18.154  0.00  0.00    +0.000 C 
ATOM      8  C   UNL     1       2.531   3.455  19.031  0.00  0.00    +0.000 C 
ATOM      9  N   UNL     1       3.758   2.672  19.023  0.00  0.00    +0.000 N 
ATOM     10  C   UNL     1       4.146   2.281  20.279  0.00  0.00    +0.000 C 
ATOM     11  O   UNL     1       5.202   1.738  20.545  0.00  0.00    +0.000 OA
ATOM     12  N   UNL     1       3.178   2.618  21.154  0.00  0.00    +0.000 N 
ATOM     13  C   UNL     1       2.157   3.252  20.527  0.00  0.00    +0.000 C 
ATOM     14  O   UNL     1       1.124   3.614  21.075  0.00  0.00    +0.000 OA
ATOM     15  H   UNL     1       4.412   2.620  18.255  0.00  0.00    +0.000 HD
ATOM     16  H   UNL     1       3.202   2.406  22.139  0.00  0.00    +0.000 HD
ENDBRANCH   1   8
BRANCH   5  17
ATOM     17  C   UNL     1       1.797   8.400  19.509  0.00  0.00    +0.000 A 
ATOM     18  N   UNL     1       1.140   8.307  20.676  0.00  0.00    +0.000 NA
ATOM     19  O   UNL     1       0.419   9.512  20.739  0.00  0.00    +0.000 OA
ATOM     20  C   UNL     1       0.750  10.210  19.615  0.00  0.00    +0.000 A 
ATOM     21  N   UNL     1       1.662   9.613  18.891  0.00  0.00    +0.000 NA
BRANCH  20  22
ATOM     22  C   UNL     1      -0.148  11.291  19.153  0.00  0.00    +0.000 C 
ATOM     23  C   UNL     1      -0.823  11.953  20.387  0.00  0.00    +0.000 C 
ATOM     24  C   UNL     1      -1.965  12.761  19.795  0.00  0.00    +0.000 C 
ATOM     25  C   UNL     1      -2.460  11.735  18.820  0.00  0.00    +0.000 A 
ATOM     26  C   UNL     1      -3.752  11.474  18.410  0.00  0.00    +0.000 A 
ATOM     27 CL   UNL     1      -5.095  12.294  19.102  0.00  0.00    +0.000 Cl
ATOM     28  C   UNL     1      -3.961  10.455  17.483  0.00  0.00    +0.000 A 
ATOM     29  C   UNL     1      -2.875   9.741  16.946  0.00  0.00    +0.000 A 
ATOM     30  C   UNL     1      -1.572   9.978  17.390  0.00  0.00    +0.000 A 
ATOM     31  C   UNL     1      -1.386  10.933  18.375  0.00  0.00    +0.000 A 
ENDBRANCH  20  22
ENDBRANCH   5  17
TORSDOF 3
ENDMDL
MODEL 5
REMARK VINA RESULT:      -9.7      2.714      3.828
REMARK  Name = 
REMARK  4 active torsions:
REMARK  status: ('A' for Active; 'I' for Inactive)
REMARK    1  A    between atoms: C_1  and  C_2
REMARK    2  A    between atoms: C_2  and  C_3
REMARK    3  A    between atoms: C_7  and  C_8
REMARK    4  A    between atoms: C_11  and  C_12
REMARK                            x       y       z     vdW  Elec       q    Type
REMARK                         _______ _______ _______ _____ _____    ______ ____
ROOT
ATOM      1  C   UNL     1       4.460   5.899  17.310  0.00  0.00    +0.000 A 
ATOM      2  C   UNL     1       3.687   4.731  17.183  0.00  0.00    +0.000 A 
ATOM      3  C   UNL     1       2.392   4.655  17.707  0.00  0.00    +0.000 A 
ATOM      4  C   UNL     1       1.841   5.741  18.385  0.00  0.00    +0.000 A 
ATOM      5  C   UNL     1       2.587   6.908  18.545  0.00  0.00    +0.000 A 
ATOM      6  C   UNL     1       3.884   6.977  17.995  0.00  0.00    +0.000 A 
ENDROOT
BRANCH   1   8
ATOM      7  C   UNL     1       5.976   5.217  15.418  0.00  0.00    +0.000 C 
ATOM      8  C   UNL     1       5.875   5.957  16.748  0.00  0.00    +0.000 C 
ATOM      9  N   UNL     1       6.305   7.344  16.639  0.00  0.00    +0.000 N 
ATOM     10  C   UNL     1       7.321   7.654  17.506  0.00  0.00    +0.000 C 
ATOM     11  O   UNL     1       7.755   8.774  17.699  0.00  0.00    +0.000 OA
ATOM     12  N   UNL     1       7.731   6.523  18.113  0.00  0.00    +0.000 N 
ATOM     13  C   UNL     1       7.000   5.458  17.699  0.00  0.00    +0.000 C 
ATOM     14  O   UNL     1       7.201   4.301  18.047  0.00  0.00    +0.000 OA
ATOM     15  H   UNL     1       5.783   8.083  16.190  0.00  0.00    +0.000 HD
ATOM     16  H   UNL     1       8.494   6.473  18.769  0.00  0.00    +0.000 HD
ENDBRANCH   1   8
BRANCH   5  17
ATOM     17  C   UNL     1       2.047   8.087  19.203  0.00  0.00    +0.000 A 
ATOM     18  N   UNL     1       1.476   8.130  20.418  0.00  0.00    +0.000 NA
ATOM     19  O   UNL     1       0.835   9.380  20.432  0.00  0.00    +0.000 OA
ATOM     20  C   UNL     1       1.120   9.965  19.234  0.00  0.00    +0.000 A 
ATOM     21  N   UNL     1       1.937   9.255  18.499  0.00  0.00    +0.000 NA
BRANCH  20  22
ATOM     22  C   UNL     1       0.255  11.063  18.750  0.00  0.00    +0.000 C 
ATOM     23  C   UNL     1      -0.203  11.922  19.962  0.00  0.00    +0.000 C 
ATOM     24  C   UNL     1      -1.346  12.758  19.412  0.00  0.00    +0.000 C 
ATOM     25  C   UNL     1      -2.040  11.675  18.639  0.00  0.00    +0.000 A 
ATOM     26  C   UNL     1      -3.390  11.488  18.422  0.00  0.00    +0.000 A 
ATOM     27 CL   UNL     1      -4.566  12.501  19.160  0.00  0.00    +0.000 Cl
ATOM     28  C   UNL     1      -3.793  10.393  17.661  0.00  0.00    +0.000 A 
ATOM     29  C   UNL     1      -2.843   9.525  17.094  0.00  0.00    +0.000 A 
ATOM     30  C   UNL     1      -1.480   9.691  17.347  0.00  0.00    +0.000 A 
ATOM     31  C   UNL     1      -1.096  10.733  18.175  0.00  0.00    +0.000 A 
ENDBRANCH  20  22
ENDBRANCH   5  17
TORSDOF 3
ENDMDL
MODEL 6
REMARK VINA RESULT:      -9.7      2.281      2.850
REMARK  Name = 
REMARK  4 active torsions:
REMARK  status: ('A' for Active; 'I' for Inactive)
REMARK    1  A    between atoms: C_1  and  C_2
REMARK    2  A    between atoms: C_2  and  C_3
REMARK    3  A    between atoms: C_7  and  C_8
REMARK    4  A    between atoms: C_11  and  C_12
REMARK                            x       y       z     vdW  Elec       q    Type
REMARK                         _______ _______ _______ _____ _____    ______ ____
ROOT
ATOM      1  C   UNL     1       3.508   4.608  18.182  0.00  0.00    +0.000 A 
ATOM      2  C   UNL     1       4.687   4.828  17.448  0.00  0.00    +0.000 A 
ATOM      3  C   UNL     1       5.047   6.109  17.014  0.00  0.00    +0.000 A 
ATOM      4  C   UNL     1       4.227   7.202  17.291  0.00  0.00    +0.000 A 
ATOM      5  C   UNL     1       3.042   7.016  18.001  0.00  0.00    +0.000 A 
ATOM      6  C   UNL     1       2.702   5.723  18.448  0.00  0.00    +0.000 A 
ENDROOT
BRANCH   1   8
ATOM      7  C   UNL     1       2.354   2.462  17.544  0.00  0.00    +0.000 C 
ATOM      8  C   UNL     1       3.125   3.204  18.631  0.00  0.00    +0.000 C 
ATOM      9  N   UNL     1       4.315   2.479  19.053  0.00  0.00    +0.000 N 
ATOM     10  C   UNL     1       4.328   2.218  20.399  0.00  0.00    +0.000 C 
ATOM     11  O   UNL     1       5.270   1.749  21.009  0.00  0.00    +0.000 OA
ATOM     12  N   UNL     1       3.142   2.586  20.922  0.00  0.00    +0.000 N 
ATOM     13  C   UNL     1       2.335   3.116  19.969  0.00  0.00    +0.000 C 
ATOM     14  O   UNL     1       1.181   3.477  20.159  0.00  0.00    +0.000 OA
ATOM     15  H   UNL     1       5.164   2.390  18.514  0.00  0.00    +0.000 HD
ATOM     16  H   UNL     1       2.883   2.462  21.888  0.00  0.00    +0.000 HD
ENDBRANCH   1   8
BRANCH   5  17
ATOM     17  C   UNL     1       2.172   8.127  18.358  0.00  0.00    +0.000 A 
ATOM     18  N   UNL     1       2.022   9.272  17.673  0.00  0.00    +0.000 NA
ATOM     19  O   UNL     1       1.368  10.114  18.588  0.00  0.00    +0.000 OA
ATOM     20  C   UNL     1       1.167   9.368  19.712  0.00  0.00    +0.000 A 
ATOM     21  N   UNL     1       1.551   8.125  19.576  0.00  0.00    +0.000 NA
BRANCH  20  22
ATOM     22  C   UNL     1       0.917  10.060  20.995  0.00  0.00    +0.000 C 
ATOM     23  C   UNL     1       0.073   9.134  21.915  0.00  0.00    +0.000 C 
ATOM     24  C   UNL     1      -0.426  10.059  23.013  0.00  0.00    +0.000 C 
ATOM     25  C   UNL     1      -0.811  11.220  22.144  0.00  0.00    +0.000 A 
ATOM     26  C   UNL     1      -1.855  12.111  22.293  0.00  0.00    +0.000 A 
ATOM     27 CL   UNL     1      -3.018  11.928  23.545  0.00  0.00    +0.000 Cl
ATOM     28  C   UNL     1      -2.007  13.118  21.342  0.00  0.00    +0.000 A 
ATOM     29  C   UNL     1      -1.092  13.247  20.282  0.00  0.00    +0.000 A 
ATOM     30  C   UNL     1      -0.060  12.323  20.110  0.00  0.00    +0.000 A 
ATOM     31  C   UNL     1       0.031  11.276  21.012  0.00  0.00    +0.000 A 
ENDBRANCH  20  22
ENDBRANCH   5  17
TORSDOF 3
ENDMDL
MODEL 7
REMARK VINA RESULT:      -9.7      2.926      3.978
REMARK  Name = 
REMARK  4 active torsions:
REMARK  status: ('A' for Active; 'I' for Inactive)
REMARK    1  A    between atoms: C_1  and  C_2
REMARK    2  A    between atoms: C_2  and  C_3
REMARK    3  A    between atoms: C_7  and  C_8
REMARK    4  A    between atoms: C_11  and  C_12
REMARK                            x       y       z     vdW  Elec       q    Type
REMARK                         _______ _______ _______ _____ _____    ______ ____
ROOT
ATOM      1  C   UNL     1       4.354   4.699  17.521  0.00  0.00    +0.000 A 
ATOM      2  C   UNL     1       3.484   3.666  17.131  0.00  0.00    +0.000 A 
ATOM      3  C   UNL     1       2.166   3.609  17.598  0.00  0.00    +0.000 A 
ATOM      4  C   UNL     1       1.689   4.577  18.481  0.00  0.00    +0.000 A 
ATOM      5  C   UNL     1       2.531   5.605  18.901  0.00  0.00    +0.000 A 
ATOM      6  C   UNL     1       3.851   5.660  18.407  0.00  0.00    +0.000 A 
ENDROOT
BRANCH   1   8
ATOM      7  C   UNL     1       6.788   4.599  18.160  0.00  0.00    +0.000 C 
ATOM      8  C   UNL     1       5.791   4.735  17.015  0.00  0.00    +0.000 C 
ATOM      9  N   UNL     1       5.980   3.711  15.997  0.00  0.00    +0.000 N 
ATOM     10  C   UNL     1       6.201   4.237  14.750  0.00  0.00    +0.000 C 
ATOM     11  O   UNL     1       6.252   3.592  13.720  0.00  0.00    +0.000 OA
ATOM     12  N   UNL     1       6.327   5.575  14.861  0.00  0.00    +0.000 N 
ATOM     13  C   UNL     1       6.170   5.970  16.149  0.00  0.00    +0.000 C 
ATOM     14  O   UNL     1       6.293   7.124  16.540  0.00  0.00    +0.000 OA
ATOM     15  H   UNL     1       5.732   2.738  16.095  0.00  0.00    +0.000 HD
ATOM     16  H   UNL     1       6.534   6.193  14.093  0.00  0.00    +0.000 HD
ENDBRANCH   1   8
BRANCH   5  17
ATOM     17  C   UNL     1       2.074   6.668  19.784  0.00  0.00    +0.000 A 
ATOM     18  N   UNL     1       1.250   6.529  20.836  0.00  0.00    +0.000 NA
ATOM     19  O   UNL     1       0.862   7.850  21.120  0.00  0.00    +0.000 OA
ATOM     20  C   UNL     1       1.524   8.639  20.226  0.00  0.00    +0.000 A 
ATOM     21  N   UNL     1       2.349   7.969  19.463  0.00  0.00    +0.000 NA
BRANCH  20  22
ATOM     22  C   UNL     1       1.013  10.001  19.958  0.00  0.00    +0.000 C 
ATOM     23  C   UNL     1       0.332  10.550  21.243  0.00  0.00    +0.000 C 
ATOM     24  C   UNL     1      -0.459  11.754  20.757  0.00  0.00    +0.000 C 
ATOM     25  C   UNL     1      -1.027  11.137  19.513  0.00  0.00    +0.000 A 
ATOM     26  C   UNL     1      -2.258  11.344  18.924  0.00  0.00    +0.000 A 
ATOM     27 CL   UNL     1      -3.448  12.343  19.658  0.00  0.00    +0.000 Cl
ATOM     28  C   UNL     1      -2.560  10.645  17.756  0.00  0.00    +0.000 A 
ATOM     29  C   UNL     1      -1.614   9.783  17.172  0.00  0.00    +0.000 A 
ATOM     30  C   UNL     1      -0.385   9.545  17.791  0.00  0.00    +0.000 A 
ATOM     31  C   UNL     1      -0.130  10.179  18.995  0.00  0.00    +0.000 A 
ENDBRANCH  20  22
ENDBRANCH   5  17
TORSDOF 3
ENDMDL
MODEL 8
REMARK VINA RESULT:      -9.5      1.879      2.749
REMARK  Name = 
REMARK  4 active torsions:
REMARK  status: ('A' for Active; 'I' for Inactive)
REMARK    1  A    between atoms: C_1  and  C_2
REMARK    2  A    between atoms: C_2  and  C_3
REMARK    3  A    between atoms: C_7  and  C_8
REMARK    4  A    between atoms: C_11  and  C_12
REMARK                            x       y       z     vdW  Elec       q    Type
REMARK                         _______ _______ _______ _____ _____    ______ ____
ROOT
ATOM      1  C   UNL     1       3.479   4.578  18.342  0.00  0.00    +0.000 A 
ATOM      2  C   UNL     1       4.841   4.568  17.993  0.00  0.00    +0.000 A 
ATOM      3  C   UNL     1       5.488   5.727  17.550  0.00  0.00    +0.000 A 
ATOM      4  C   UNL     1       4.784   6.924  17.430  0.00  0.00    +0.000 A 
ATOM      5  C   UNL     1       3.428   6.965  17.751  0.00  0.00    +0.000 A 
ATOM      6  C   UNL     1       2.794   5.794  18.214  0.00  0.00    +0.000 A 
ENDROOT
BRANCH   1   8
ATOM      7  C   UNL     1       3.175   2.111  17.936  0.00  0.00    +0.000 C 
ATOM      8  C   UNL     1       2.788   3.302  18.806  0.00  0.00    +0.000 C 
ATOM      9  N   UNL     1       3.075   3.070  20.214  0.00  0.00    +0.000 N 
ATOM     10  C   UNL     1       1.967   3.202  21.011  0.00  0.00    +0.000 C 
ATOM     11  O   UNL     1       1.978   3.191  22.227  0.00  0.00    +0.000 OA
ATOM     12  N   UNL     1       0.886   3.366  20.223  0.00  0.00    +0.000 N 
ATOM     13  C   UNL     1       1.237   3.376  18.913  0.00  0.00    +0.000 C 
ATOM     14  O   UNL     1       0.445   3.450  17.983  0.00  0.00    +0.000 OA
ATOM     15  H   UNL     1       3.996   3.069  20.629  0.00  0.00    +0.000 HD
ATOM     16  H   UNL     1      -0.059   3.447  20.564  0.00  0.00    +0.000 HD
ENDBRANCH   1   8
BRANCH   5  17
ATOM     17  C   UNL     1       2.655   8.197  17.689  0.00  0.00    +0.000 A 
ATOM     18  N   UNL     1       3.149   9.445  17.640  0.00  0.00    +0.000 NA
ATOM     19  O   UNL     1       2.034  10.247  17.938  0.00  0.00    +0.000 OA
ATOM     20  C   UNL     1       0.985   9.391  18.100  0.00  0.00    +0.000 A 
ATOM     21  N   UNL     1       1.299   8.144  17.858  0.00  0.00    +0.000 NA
BRANCH  20  22
ATOM     22  C   UNL     1      -0.207   9.852  18.845  0.00  0.00    +0.000 C 
ATOM     23  C   UNL     1      -0.293  11.402  18.756  0.00  0.00    +0.000 C 
ATOM     24  C   UNL     1      -1.299  11.779  19.830  0.00  0.00    +0.000 C 
ATOM     25  C   UNL     1      -0.795  10.869  20.912  0.00  0.00    +0.000 A 
ATOM     26  C   UNL     1      -0.759  11.075  22.276  0.00  0.00    +0.000 A 
ATOM     27 CL   UNL     1      -1.232  12.575  22.970  0.00  0.00    +0.000 Cl
ATOM     28  C   UNL     1      -0.237  10.068  23.085  0.00  0.00    +0.000 A 
ATOM     29  C   UNL     1       0.202   8.854  22.525  0.00  0.00    +0.000 A 
ATOM     30  C   UNL     1       0.202   8.663  21.142  0.00  0.00    +0.000 A 
ATOM     31  C   UNL     1      -0.239   9.703  20.342  0.00  0.00    +0.000 A 
ENDBRANCH  20  22
ENDBRANCH   5  17
TORSDOF 3
ENDMDL
MODEL 9
REMARK VINA RESULT:      -9.4      2.087      3.098
REMARK  Name = 
REMARK  4 active torsions:
REMARK  status: ('A' for Active; 'I' for Inactive)
REMARK    1  A    between atoms: C_1  and  C_2
REMARK    2  A    between atoms: C_2  and  C_3
REMARK    3  A    between atoms: C_7  and  C_8
REMARK    4  A    between atoms: C_11  and  C_12
REMARK                            x       y       z     vdW  Elec       q    Type
REMARK                         _______ _______ _______ _____ _____    ______ ____
ROOT
ATOM      1  C   UNL     1       3.065   5.135  18.882  0.00  0.00    +0.000 A 
ATOM      2  C   UNL     1       4.246   4.907  18.153  0.00  0.00    +0.000 A 
ATOM      3  C   UNL     1       4.783   5.888  17.312  0.00  0.00    +0.000 A 
ATOM      4  C   UNL     1       4.144   7.119  17.167  0.00  0.00    +0.000 A 
ATOM      5  C   UNL     1       2.962   7.371  17.862  0.00  0.00    +0.000 A 
ATOM      6  C   UNL     1       2.443   6.380  18.720  0.00  0.00    +0.000 A 
ENDROOT
BRANCH   1   8
ATOM      7  C   UNL     1       2.493   4.474  21.244  0.00  0.00    +0.000 C 
ATOM      8  C   UNL     1       2.486   4.048  19.779  0.00  0.00    +0.000 C 
ATOM      9  N   UNL     1       1.154   3.686  19.318  0.00  0.00    +0.000 N 
ATOM     10  C   UNL     1       1.095   2.412  18.816  0.00  0.00    +0.000 C 
ATOM     11  O   UNL     1       0.132   1.930  18.249  0.00  0.00    +0.000 OA
ATOM     12  N   UNL     1       2.277   1.804  19.036  0.00  0.00    +0.000 N 
ATOM     13  C   UNL     1       3.146   2.645  19.651  0.00  0.00    +0.000 C 
ATOM     14  O   UNL     1       4.271   2.332  20.020  0.00  0.00    +0.000 OA
ATOM     15  H   UNL     1       0.405   4.336  19.131  0.00  0.00    +0.000 HD
ATOM     16  H   UNL     1       2.479   0.847  18.796  0.00  0.00    +0.000 HD
ENDBRANCH   1   8
BRANCH   5  17
ATOM     17  C   UNL     1       2.277   8.652  17.785  0.00  0.00    +0.000 A 
ATOM     18  N   UNL     1       2.857   9.862  17.717  0.00  0.00    +0.000 NA
ATOM     19  O   UNL     1       1.802  10.744  18.006  0.00  0.00    +0.000 OA
ATOM     20  C   UNL     1       0.696   9.966  18.182  0.00  0.00    +0.000 A 
ATOM     21  N   UNL     1       0.921   8.697  17.957  0.00  0.00    +0.000 NA
BRANCH  20  22
ATOM     22  C   UNL     1      -0.459  10.520  18.923  0.00  0.00    +0.000 C 
ATOM     23  C   UNL     1      -0.346  12.070  18.954  0.00  0.00    +0.000 C 
ATOM     24  C   UNL     1      -1.340  12.492  20.023  0.00  0.00    +0.000 C 
ATOM     25  C   UNL     1      -1.000  11.447  21.044  0.00  0.00    +0.000 A 
ATOM     26  C   UNL     1      -0.995  11.545  22.421  0.00  0.00    +0.000 A 
ATOM     27 CL   UNL     1      -1.304  13.037  23.216  0.00  0.00    +0.000 Cl
ATOM     28  C   UNL     1      -0.637  10.421  23.164  0.00  0.00    +0.000 A 
ATOM     29  C   UNL     1      -0.332   9.207  22.524  0.00  0.00    +0.000 A 
ATOM     30  C   UNL     1      -0.298   9.120  21.130  0.00  0.00    +0.000 A 
ATOM     31  C   UNL     1      -0.571  10.265  20.402  0.00  0.00    +0.000 A 
ENDBRANCH  20  22
ENDBRANCH   5  17
TORSDOF 3
ENDMDL
