MODEL 1
REMARK VINA RESULT:      -9.3      0.000      0.000
REMARK  Name = 
REMARK  3 active torsions:
REMARK  status: ('A' for Active; 'I' for Inactive)
REMARK    1  A    between atoms: C_2  and  C_20
REMARK    2  A    between atoms: N_3  and  C_4
REMARK    3  A    between atoms: C_8  and  C_9
REMARK                            x       y       z     vdW  Elec       q    Type
REMARK                         _______ _______ _______ _____ _____    ______ ____
ROOT
ATOM      1  C   UNL     1       1.907   8.624  18.982  0.00  0.00    +0.000 A 
ATOM      2  C   UNL     1       2.049   9.469  17.887  0.00  0.00    +0.000 A 
ATOM      3  C   UNL     1       1.618  10.790  17.968  0.00  0.00    +0.000 A 
ATOM      4  C   UNL     1       1.010  11.255  19.134  0.00  0.00    +0.000 A 
ATOM      5  C   UNL     1       0.766  10.399  20.216  0.00  0.00    +0.000 A 
ATOM      6  C   UNL     1       1.272   9.090  20.145  0.00  0.00    +0.000 A 
ENDROOT
BRANCH   5   7
ATOM      7  C   UNL     1      -0.014  10.835  21.377  0.00  0.00    +0.000 A 
ATOM      8  N   UNL     1       0.138  10.428  22.621  0.00  0.00    +0.000 NA
ATOM      9  N   UNL     1      -0.770  11.080  23.415  0.00  0.00    +0.000 NA
ATOM     10  C   UNL     1      -1.509  11.859  22.650  0.00  0.00    +0.000 A 
ATOM     11  N   UNL     1      -1.108  11.690  21.345  0.00  0.00    +0.000 N 
ATOM     12  C   UNL     1      -1.721  12.267  20.162  0.00  0.00    +0.000 C 
ATOM     13  C   UNL     1      -3.234  12.410  20.221  0.00  0.00    +0.000 C 
ATOM     14  C   UNL     1      -3.702  13.633  21.009  0.00  0.00    +0.000 C 
ATOM     15  C   UNL     1      -2.888  13.956  22.262  0.00  0.00    +0.000 C 
ATOM     16  C   UNL     1      -2.612  12.740  23.138  0.00  0.00    +0.000 C 
ENDBRANCH   5   7
BRANCH   1  19
ATOM     17  O   UNL     1       3.955   7.238  17.291  0.00  0.00    +0.000 OA
ATOM     18  C   UNL     1       3.235   6.683  18.113  0.00  0.00    +0.000 C 
ATOM     19  N   UNL     1       2.331   7.282  18.969  0.00  0.00    +0.000 N 
ATOM     20  H   UNL     1       1.766   6.658  19.530  0.00  0.00    +0.000 HD
BRANCH  18  21
ATOM     21  C   UNL     1       3.042   5.248  18.084  0.00  0.00    +0.000 A 
ATOM     22  N   UNL     1       1.782   4.689  18.166  0.00  0.00    +0.000 N 
ATOM     23  C   UNL     1       1.843   3.854  19.262  0.00  0.00    +0.000 A 
ATOM     24  C   UNL     1       0.856   3.503  20.189  0.00  0.00    +0.000 A 
ATOM     25  C   UNL     1       1.284   2.818  21.320  0.00  0.00    +0.000 A 
ATOM     26  C   UNL     1       2.613   2.408  21.464  0.00  0.00    +0.000 A 
ATOM     27  C   UNL     1       3.569   2.681  20.479  0.00  0.00    +0.000 A 
ATOM     28  C   UNL     1       3.184   3.480  19.388  0.00  0.00    +0.000 A 
ATOM     29  C   UNL     1       3.907   4.212  18.399  0.00  0.00    +0.000 A 
ATOM     30 CL   UNL     1       5.603   4.192  18.230  0.00  0.00    +0.000 Cl
ATOM     31  H   UNL     1       0.944   5.183  17.895  0.00  0.00    +0.000 HD
ENDBRANCH  18  21
ENDBRANCH   1  19
TORSDOF 3
ENDMDL
MODEL 2
REMARK VINA RESULT:      -9.3      3.486      9.364
REMARK  Name = 
REMARK  3 active torsions:
REMARK  status: ('A' for Active; 'I' for Inactive)
REMARK    1  A    between atoms: C_2  and  C_20
REMARK    2  A    between atoms: N_3  and  C_4
REMARK    3  A    between atoms: C_8  and  C_9
REMARK                            x       y       z     vdW  Elec       q    Type
REMARK                         _______ _______ _______ _____ _____    ______ ____
ROOT
ATOM      1  C   UNL     1       1.949   6.752  20.158  0.00  0.00    +0.000 A 
ATOM      2  C   UNL     1       1.194   5.667  20.588  0.00  0.00    +0.000 A 
ATOM      3  C   UNL     1       1.765   4.397  20.634  0.00  0.00    +0.000 A 
ATOM      4  C   UNL     1       3.081   4.209  20.214  0.00  0.00    +0.000 A 
ATOM      5  C   UNL     1       3.832   5.267  19.684  0.00  0.00    +0.000 A 
ATOM      6  C   UNL     1       3.267   6.553  19.713  0.00  0.00    +0.000 A 
ENDROOT
BRANCH   5   7
ATOM      7  C   UNL     1       5.154   5.046  19.093  0.00  0.00    +0.000 A 
ATOM      8  N   UNL     1       6.292   4.916  19.744  0.00  0.00    +0.000 NA
ATOM      9  N   UNL     1       7.300   4.707  18.839  0.00  0.00    +0.000 NA
ATOM     10  C   UNL     1       6.786   4.751  17.625  0.00  0.00    +0.000 A 
ATOM     11  N   UNL     1       5.443   5.025  17.735  0.00  0.00    +0.000 N 
ATOM     12  C   UNL     1       4.511   5.271  16.649  0.00  0.00    +0.000 C 
ATOM     13  C   UNL     1       5.092   6.011  15.453  0.00  0.00    +0.000 C 
ATOM     14  C   UNL     1       5.891   5.114  14.508  0.00  0.00    +0.000 C 
ATOM     15  C   UNL     1       6.742   4.041  15.187  0.00  0.00    +0.000 C 
ATOM     16  C   UNL     1       7.560   4.566  16.362  0.00  0.00    +0.000 C 
ENDBRANCH   5   7
BRANCH   1  19
ATOM     17  O   UNL     1       1.418   8.743  22.333  0.00  0.00    +0.000 OA
ATOM     18  C   UNL     1       1.146   8.911  21.149  0.00  0.00    +0.000 C 
ATOM     19  N   UNL     1       1.437   8.062  20.099  0.00  0.00    +0.000 N 
ATOM     20  H   UNL     1       1.069   8.327  19.194  0.00  0.00    +0.000 HD
BRANCH  18  21
ATOM     21  C   UNL     1       0.204   9.932  20.739  0.00  0.00    +0.000 A 
ATOM     22  N   UNL     1       0.178  10.409  19.444  0.00  0.00    +0.000 N 
ATOM     23  C   UNL     1       0.370  11.768  19.572  0.00  0.00    +0.000 A 
ATOM     24  C   UNL     1       1.014  12.676  18.722  0.00  0.00    +0.000 A 
ATOM     25  C   UNL     1       1.246  13.947  19.236  0.00  0.00    +0.000 A 
ATOM     26  C   UNL     1       0.762  14.325  20.492  0.00  0.00    +0.000 A 
ATOM     27  C   UNL     1       0.033  13.434  21.288  0.00  0.00    +0.000 A 
ATOM     28  C   UNL     1      -0.105  12.108  20.841  0.00  0.00    +0.000 A 
ATOM     29  C   UNL     1      -0.474  10.887  21.480  0.00  0.00    +0.000 A 
ATOM     30 CL   UNL     1      -1.000  10.762  23.096  0.00  0.00    +0.000 Cl
ATOM     31  H   UNL     1       0.516   9.876  18.656  0.00  0.00    +0.000 HD
ENDBRANCH  18  21
ENDBRANCH   1  19
TORSDOF 3
ENDMDL
MODEL 3
REMARK VINA RESULT:      -9.1      2.753      4.249
REMARK  Name = 
REMARK  3 active torsions:
REMARK  status: ('A' for Active; 'I' for Inactive)
REMARK    1  A    between atoms: C_2  and  C_20
REMARK    2  A    between atoms: N_3  and  C_4
REMARK    3  A    between atoms: C_8  and  C_9
REMARK                            x       y       z     vdW  Elec       q    Type
REMARK                         _______ _______ _______ _____ _____    ______ ____
ROOT
ATOM      1  C   UNL     1       1.210   8.515  20.879  0.00  0.00    +0.000 A 
ATOM      2  C   UNL     1       0.524   8.425  22.086  0.00  0.00    +0.000 A 
ATOM      3  C   UNL     1      -0.388   9.414  22.442  0.00  0.00    +0.000 A 
ATOM      4  C   UNL     1      -0.586  10.515  21.608  0.00  0.00    +0.000 A 
ATOM      5  C   UNL     1       0.164  10.680  20.436  0.00  0.00    +0.000 A 
ATOM      6  C   UNL     1       1.025   9.638  20.054  0.00  0.00    +0.000 A 
ENDROOT
BRANCH   5   7
ATOM      7  C   UNL     1       0.079  11.907  19.640  0.00  0.00    +0.000 A 
ATOM      8  N   UNL     1      -0.676  12.101  18.578  0.00  0.00    +0.000 NA
ATOM      9  N   UNL     1      -0.486  13.382  18.127  0.00  0.00    +0.000 NA
ATOM     10  C   UNL     1       0.421  13.962  18.889  0.00  0.00    +0.000 A 
ATOM     11  N   UNL     1       0.851  13.047  19.821  0.00  0.00    +0.000 N 
ATOM     12  C   UNL     1       1.920  13.222  20.787  0.00  0.00    +0.000 C 
ATOM     13  C   UNL     1       3.096  14.061  20.307  0.00  0.00    +0.000 C 
ATOM     14  C   UNL     1       2.842  15.566  20.377  0.00  0.00    +0.000 C 
ATOM     15  C   UNL     1       1.427  16.010  20.004  0.00  0.00    +0.000 C 
ATOM     16  C   UNL     1       0.904  15.365  18.726  0.00  0.00    +0.000 C 
ENDBRANCH   5   7
BRANCH   1  19
ATOM     17  O   UNL     1       2.068   7.707  18.125  0.00  0.00    +0.000 OA
ATOM     18  C   UNL     1       2.439   7.166  19.161  0.00  0.00    +0.000 C 
ATOM     19  N   UNL     1       2.136   7.544  20.454  0.00  0.00    +0.000 N 
ATOM     20  H   UNL     1       2.470   6.934  21.188  0.00  0.00    +0.000 HD
BRANCH  18  21
ATOM     21  C   UNL     1       3.037   5.847  19.138  0.00  0.00    +0.000 A 
ATOM     22  N   UNL     1       4.272   5.606  19.706  0.00  0.00    +0.000 N 
ATOM     23  C   UNL     1       5.033   5.094  18.677  0.00  0.00    +0.000 A 
ATOM     24  C   UNL     1       6.404   5.212  18.418  0.00  0.00    +0.000 A 
ATOM     25  C   UNL     1       6.839   4.774  17.173  0.00  0.00    +0.000 A 
ATOM     26  C   UNL     1       5.968   4.146  16.276  0.00  0.00    +0.000 A 
ATOM     27  C   UNL     1       4.620   3.946  16.592  0.00  0.00    +0.000 A 
ATOM     28  C   UNL     1       4.133   4.493  17.792  0.00  0.00    +0.000 A 
ATOM     29  C   UNL     1       2.824   4.772  18.288  0.00  0.00    +0.000 A 
ATOM     30 CL   UNL     1       1.378   4.354  17.489  0.00  0.00    +0.000 Cl
ATOM     31  H   UNL     1       4.656   6.176  20.445  0.00  0.00    +0.000 HD
ENDBRANCH  18  21
ENDBRANCH   1  19
TORSDOF 3
ENDMDL
MODEL 4
REMARK VINA RESULT:      -9.1      3.145      4.378
REMARK  Name = 
REMARK  3 active torsions:
REMARK  status: ('A' for Active; 'I' for Inactive)
REMARK    1  A    between atoms: C_2  and  C_20
REMARK    2  A    between atoms: N_3  and  C_4
REMARK    3  A    between atoms: C_8  and  C_9
REMARK                            x       y       z     vdW  Elec       q    Type
REMARK                         _______ _______ _______ _____ _____    ______ ____
ROOT
ATOM      1  C   UNL     1       2.048   7.921  19.170  0.00  0.00    +0.000 A 
ATOM      2  C   UNL     1       1.829   7.523  20.484  0.00  0.00    +0.000 A 
ATOM      3  C   UNL     1       0.935   8.230  21.284  0.00  0.00    +0.000 A 
ATOM      4  C   UNL     1       0.288   9.358  20.778  0.00  0.00    +0.000 A 
ATOM      5  C   UNL     1       0.564   9.837  19.491  0.00  0.00    +0.000 A 
ATOM      6  C   UNL     1       1.412   9.071  18.673  0.00  0.00    +0.000 A 
ENDROOT
BRANCH   5   7
ATOM      7  C   UNL     1       0.014  11.107  19.013  0.00  0.00    +0.000 A 
ATOM      8  N   UNL     1      -1.064  11.264  18.270  0.00  0.00    +0.000 NA
ATOM      9  N   UNL     1      -1.258  12.603  18.047  0.00  0.00    +0.000 NA
ATOM     10  C   UNL     1      -0.273  13.267  18.619  0.00  0.00    +0.000 A 
ATOM     11  N   UNL     1       0.588  12.358  19.189  0.00  0.00    +0.000 N 
ATOM     12  C   UNL     1       1.862  12.644  19.825  0.00  0.00    +0.000 C 
ATOM     13  C   UNL     1       2.653  13.786  19.206  0.00  0.00    +0.000 C 
ATOM     14  C   UNL     1       2.173  15.169  19.643  0.00  0.00    +0.000 C 
ATOM     15  C   UNL     1       0.658  15.323  19.784  0.00  0.00    +0.000 C 
ATOM     16  C   UNL     1      -0.124  14.753  18.607  0.00  0.00    +0.000 C 
ENDBRANCH   5   7
BRANCH   1  19
ATOM     17  O   UNL     1       1.905   5.168  17.996  0.00  0.00    +0.000 OA
ATOM     18  C   UNL     1       2.845   5.942  17.852  0.00  0.00    +0.000 C 
ATOM     19  N   UNL     1       2.929   7.244  18.305  0.00  0.00    +0.000 N 
ATOM     20  H   UNL     1       3.815   7.711  18.160  0.00  0.00    +0.000 HD
BRANCH  18  21
ATOM     21  C   UNL     1       4.140   5.466  17.411  0.00  0.00    +0.000 A 
ATOM     22  N   UNL     1       4.868   4.563  18.160  0.00  0.00    +0.000 N 
ATOM     23  C   UNL     1       6.071   5.196  18.392  0.00  0.00    +0.000 A 
ATOM     24  C   UNL     1       6.935   5.124  19.491  0.00  0.00    +0.000 A 
ATOM     25  C   UNL     1       7.963   6.059  19.533  0.00  0.00    +0.000 A 
ATOM     26  C   UNL     1       8.183   6.948  18.476  0.00  0.00    +0.000 A 
ATOM     27  C   UNL     1       7.368   6.939  17.338  0.00  0.00    +0.000 A 
ATOM     28  C   UNL     1       6.250   6.087  17.331  0.00  0.00    +0.000 A 
ATOM     29  C   UNL     1       5.062   6.027  16.542  0.00  0.00    +0.000 A 
ATOM     30 CL   UNL     1       4.744   7.024  15.197  0.00  0.00    +0.000 Cl
ATOM     31  H   UNL     1       4.442   3.928  18.820  0.00  0.00    +0.000 HD
ENDBRANCH  18  21
ENDBRANCH   1  19
TORSDOF 3
ENDMDL
MODEL 5
REMARK VINA RESULT:      -9.1      2.820      8.949
REMARK  Name = 
REMARK  3 active torsions:
REMARK  status: ('A' for Active; 'I' for Inactive)
REMARK    1  A    between atoms: C_2  and  C_20
REMARK    2  A    between atoms: N_3  and  C_4
REMARK    3  A    between atoms: C_8  and  C_9
REMARK                            x       y       z     vdW  Elec       q    Type
REMARK                         _______ _______ _______ _____ _____    ______ ____
ROOT
ATOM      1  C   UNL     1       1.236   9.304  19.781  0.00  0.00    +0.000 A 
ATOM      2  C   UNL     1       1.381   9.960  18.564  0.00  0.00    +0.000 A 
ATOM      3  C   UNL     1       2.024   9.325  17.505  0.00  0.00    +0.000 A 
ATOM      4  C   UNL     1       2.556   8.047  17.677  0.00  0.00    +0.000 A 
ATOM      5  C   UNL     1       2.510   7.404  18.921  0.00  0.00    +0.000 A 
ATOM      6  C   UNL     1       1.794   8.027  19.957  0.00  0.00    +0.000 A 
ENDROOT
BRANCH   5   7
ATOM      7  C   UNL     1       3.206   6.136  19.152  0.00  0.00    +0.000 A 
ATOM      8  N   UNL     1       4.404   5.808  18.713  0.00  0.00    +0.000 NA
ATOM      9  N   UNL     1       4.708   4.545  19.153  0.00  0.00    +0.000 NA
ATOM     10  C   UNL     1       3.676   4.080  19.829  0.00  0.00    +0.000 A 
ATOM     11  N   UNL     1       2.679   5.028  19.802  0.00  0.00    +0.000 N 
ATOM     12  C   UNL     1       1.331   4.891  20.324  0.00  0.00    +0.000 C 
ATOM     13  C   UNL     1       0.725   3.501  20.196  0.00  0.00    +0.000 C 
ATOM     14  C   UNL     1       1.196   2.527  21.275  0.00  0.00    +0.000 C 
ATOM     15  C   UNL     1       2.668   2.648  21.670  0.00  0.00    +0.000 C 
ATOM     16  C   UNL     1       3.613   2.736  20.476  0.00  0.00    +0.000 C 
ENDBRANCH   5   7
BRANCH   1  19
ATOM     17  O   UNL     1      -1.313  10.870  19.951  0.00  0.00    +0.000 OA
ATOM     18  C   UNL     1      -0.557  10.660  20.893  0.00  0.00    +0.000 C 
ATOM     19  N   UNL     1       0.587   9.885  20.887  0.00  0.00    +0.000 N 
ATOM     20  H   UNL     1       1.131   9.884  21.740  0.00  0.00    +0.000 HD
BRANCH  18  21
ATOM     21  C   UNL     1      -0.629  11.460  22.098  0.00  0.00    +0.000 A 
ATOM     22  N   UNL     1      -1.420  11.084  23.165  0.00  0.00    +0.000 N 
ATOM     23  C   UNL     1      -2.268  12.153  23.362  0.00  0.00    +0.000 A 
ATOM     24  C   UNL     1      -3.592  12.188  23.814  0.00  0.00    +0.000 A 
ATOM     25  C   UNL     1      -4.258  13.402  23.688  0.00  0.00    +0.000 A 
ATOM     26  C   UNL     1      -3.600  14.551  23.237  0.00  0.00    +0.000 A 
ATOM     27  C   UNL     1      -2.246  14.521  22.883  0.00  0.00    +0.000 A 
ATOM     28  C   UNL     1      -1.589  13.278  22.884  0.00  0.00    +0.000 A 
ATOM     29  C   UNL     1      -0.372  12.806  22.307  0.00  0.00    +0.000 A 
ATOM     30 CL   UNL     1       0.748  13.787  21.479  0.00  0.00    +0.000 Cl
ATOM     31  H   UNL     1      -1.691  10.127  23.336  0.00  0.00    +0.000 HD
ENDBRANCH  18  21
ENDBRANCH   1  19
TORSDOF 3
ENDMDL
MODEL 6
REMARK VINA RESULT:      -9.1      3.043      9.080
REMARK  Name = 
REMARK  3 active torsions:
REMARK  status: ('A' for Active; 'I' for Inactive)
REMARK    1  A    between atoms: C_2  and  C_20
REMARK    2  A    between atoms: N_3  and  C_4
REMARK    3  A    between atoms: C_8  and  C_9
REMARK                            x       y       z     vdW  Elec       q    Type
REMARK                         _______ _______ _______ _____ _____    ______ ____
ROOT
ATOM      1  C   UNL     1       1.881   6.321  20.481  0.00  0.00    +0.000 A 
ATOM      2  C   UNL     1       1.061   5.198  20.507  0.00  0.00    +0.000 A 
ATOM      3  C   UNL     1       1.582   3.950  20.176  0.00  0.00    +0.000 A 
ATOM      4  C   UNL     1       2.915   3.832  19.782  0.00  0.00    +0.000 A 
ATOM      5  C   UNL     1       3.736   4.960  19.653  0.00  0.00    +0.000 A 
ATOM      6  C   UNL     1       3.217   6.200  20.061  0.00  0.00    +0.000 A 
ENDROOT
BRANCH   5   7
ATOM      7  C   UNL     1       5.083   4.865  19.088  0.00  0.00    +0.000 A 
ATOM      8  N   UNL     1       6.213   4.794  19.762  0.00  0.00    +0.000 NA
ATOM      9  N   UNL     1       7.255   4.701  18.876  0.00  0.00    +0.000 NA
ATOM     10  C   UNL     1       6.766   4.758  17.652  0.00  0.00    +0.000 A 
ATOM     11  N   UNL     1       5.404   4.924  17.738  0.00  0.00    +0.000 N 
ATOM     12  C   UNL     1       4.481   5.146  16.639  0.00  0.00    +0.000 C 
ATOM     13  C   UNL     1       5.030   5.978  15.490  0.00  0.00    +0.000 C 
ATOM     14  C   UNL     1       5.917   5.185  14.530  0.00  0.00    +0.000 C 
ATOM     15  C   UNL     1       6.832   4.151  15.187  0.00  0.00    +0.000 C 
ATOM     16  C   UNL     1       7.581   4.686  16.402  0.00  0.00    +0.000 C 
ENDBRANCH   5   7
BRANCH   1  19
ATOM     17  O   UNL     1       1.306   8.700  18.754  0.00  0.00    +0.000 OA
ATOM     18  C   UNL     1       1.241   8.692  19.978  0.00  0.00    +0.000 C 
ATOM     19  N   UNL     1       1.421   7.608  20.815  0.00  0.00    +0.000 N 
ATOM     20  H   UNL     1       1.405   7.803  21.808  0.00  0.00    +0.000 HD
BRANCH  18  21
ATOM     21  C   UNL     1       1.242   9.929  20.731  0.00  0.00    +0.000 A 
ATOM     22  N   UNL     1       0.990   9.947  22.088  0.00  0.00    +0.000 N 
ATOM     23  C   UNL     1      -0.088  10.794  22.230  0.00  0.00    +0.000 A 
ATOM     24  C   UNL     1      -1.141  10.775  23.152  0.00  0.00    +0.000 A 
ATOM     25  C   UNL     1      -2.204  11.633  22.896  0.00  0.00    +0.000 A 
ATOM     26  C   UNL     1      -2.167  12.543  21.835  0.00  0.00    +0.000 A 
ATOM     27  C   UNL     1      -1.061  12.619  20.981  0.00  0.00    +0.000 A 
ATOM     28  C   UNL     1      -0.031  11.676  21.146  0.00  0.00    +0.000 A 
ATOM     29  C   UNL     1       1.047  11.239  20.320  0.00  0.00    +0.000 A 
ATOM     30 CL   UNL     1       1.444  11.920  18.809  0.00  0.00    +0.000 Cl
ATOM     31  H   UNL     1       1.145   9.147  22.685  0.00  0.00    +0.000 HD
ENDBRANCH  18  21
ENDBRANCH   1  19
TORSDOF 3
ENDMDL
MODEL 7
REMARK VINA RESULT:      -9.1      4.267     10.251
REMARK  Name = 
REMARK  3 active torsions:
REMARK  status: ('A' for Active; 'I' for Inactive)
REMARK    1  A    between atoms: C_2  and  C_20
REMARK    2  A    between atoms: N_3  and  C_4
REMARK    3  A    between atoms: C_8  and  C_9
REMARK                            x       y       z     vdW  Elec       q    Type
REMARK                         _______ _______ _______ _____ _____    ______ ____
ROOT
ATOM      1  C   UNL     1       3.437   6.353  17.691  0.00  0.00    +0.000 A 
ATOM      2  C   UNL     1       2.976   5.169  18.256  0.00  0.00    +0.000 A 
ATOM      3  C   UNL     1       3.592   3.962  17.937  0.00  0.00    +0.000 A 
ATOM      4  C   UNL     1       4.645   3.936  17.023  0.00  0.00    +0.000 A 
ATOM      5  C   UNL     1       5.064   5.101  16.366  0.00  0.00    +0.000 A 
ATOM      6  C   UNL     1       4.483   6.319  16.754  0.00  0.00    +0.000 A 
ENDROOT
BRANCH   5   7
ATOM      7  C   UNL     1       6.057   5.057  15.290  0.00  0.00    +0.000 A 
ATOM      8  N   UNL     1       7.190   5.727  15.242  0.00  0.00    +0.000 NA
ATOM      9  N   UNL     1       7.849   5.404  14.083  0.00  0.00    +0.000 NA
ATOM     10  C   UNL     1       7.098   4.564  13.398  0.00  0.00    +0.000 A 
ATOM     11  N   UNL     1       5.928   4.364  14.094  0.00  0.00    +0.000 N 
ATOM     12  C   UNL     1       4.772   3.603  13.656  0.00  0.00    +0.000 C 
ATOM     13  C   UNL     1       4.479   3.671  12.164  0.00  0.00    +0.000 C 
ATOM     14  C   UNL     1       5.356   2.740  11.327  0.00  0.00    +0.000 C 
ATOM     15  C   UNL     1       6.812   2.627  11.781  0.00  0.00    +0.000 C 
ATOM     16  C   UNL     1       7.464   3.972  12.077  0.00  0.00    +0.000 C 
ENDBRANCH   5   7
BRANCH   1  19
ATOM     17  O   UNL     1       2.130   7.379  20.185  0.00  0.00    +0.000 OA
ATOM     18  C   UNL     1       2.212   8.001  19.131  0.00  0.00    +0.000 C 
ATOM     19  N   UNL     1       2.867   7.608  17.980  0.00  0.00    +0.000 N 
ATOM     20  H   UNL     1       2.766   8.217  17.178  0.00  0.00    +0.000 HD
BRANCH  18  21
ATOM     21  C   UNL     1       1.360   9.144  18.873  0.00  0.00    +0.000 A 
ATOM     22  N   UNL     1       1.616  10.012  17.830  0.00  0.00    +0.000 N 
ATOM     23  C   UNL     1       1.737  11.247  18.430  0.00  0.00    +0.000 A 
ATOM     24  C   UNL     1       2.531  12.347  18.085  0.00  0.00    +0.000 A 
ATOM     25  C   UNL     1       2.607  13.373  19.020  0.00  0.00    +0.000 A 
ATOM     26  C   UNL     1       1.839  13.352  20.189  0.00  0.00    +0.000 A 
ATOM     27  C   UNL     1       0.973  12.290  20.470  0.00  0.00    +0.000 A 
ATOM     28  C   UNL     1       0.976  11.185  19.601  0.00  0.00    +0.000 A 
ATOM     29  C   UNL     1       0.505   9.843  19.711  0.00  0.00    +0.000 A 
ATOM     30 CL   UNL     1      -0.370   9.232  21.040  0.00  0.00    +0.000 Cl
ATOM     31  H   UNL     1       2.138   9.743  17.009  0.00  0.00    +0.000 HD
ENDBRANCH  18  21
ENDBRANCH   1  19
TORSDOF 3
ENDMDL
MODEL 8
REMARK VINA RESULT:      -9.0      1.880      2.947
REMARK  Name = 
REMARK  3 active torsions:
REMARK  status: ('A' for Active; 'I' for Inactive)
REMARK    1  A    between atoms: C_2  and  C_20
REMARK    2  A    between atoms: N_3  and  C_4
REMARK    3  A    between atoms: C_8  and  C_9
REMARK                            x       y       z     vdW  Elec       q    Type
REMARK                         _______ _______ _______ _____ _____    ______ ____
ROOT
ATOM      1  C   UNL     1       2.112   8.110  18.754  0.00  0.00    +0.000 A 
ATOM      2  C   UNL     1       2.217   9.040  17.725  0.00  0.00    +0.000 A 
ATOM      3  C   UNL     1       1.772  10.345  17.920  0.00  0.00    +0.000 A 
ATOM      4  C   UNL     1       1.186  10.709  19.132  0.00  0.00    +0.000 A 
ATOM      5  C   UNL     1       0.979   9.767  20.149  0.00  0.00    +0.000 A 
ATOM      6  C   UNL     1       1.500   8.476  19.965  0.00  0.00    +0.000 A 
ENDROOT
BRANCH   5   7
ATOM      7  C   UNL     1       0.222  10.101  21.358  0.00  0.00    +0.000 A 
ATOM      8  N   UNL     1       0.253   9.455  22.506  0.00  0.00    +0.000 NA
ATOM      9  N   UNL     1      -0.581  10.085  23.393  0.00  0.00    +0.000 NA
ATOM     10  C   UNL     1      -1.158  11.096  22.775  0.00  0.00    +0.000 A 
ATOM     11  N   UNL     1      -0.728  11.108  21.469  0.00  0.00    +0.000 N 
ATOM     12  C   UNL     1      -1.192  11.980  20.405  0.00  0.00    +0.000 C 
ATOM     13  C   UNL     1      -2.668  12.346  20.465  0.00  0.00    +0.000 C 
ATOM     14  C   UNL     1      -2.981  13.462  21.460  0.00  0.00    +0.000 C 
ATOM     15  C   UNL     1      -2.186  13.419  22.765  0.00  0.00    +0.000 C 
ATOM     16  C   UNL     1      -2.136  12.035  23.402  0.00  0.00    +0.000 C 
ENDBRANCH   5   7
BRANCH   1  19
ATOM     17  O   UNL     1       1.953   5.808  20.665  0.00  0.00    +0.000 OA
ATOM     18  C   UNL     1       2.515   5.776  19.576  0.00  0.00    +0.000 C 
ATOM     19  N   UNL     1       2.553   6.779  18.627  0.00  0.00    +0.000 N 
ATOM     20  H   UNL     1       3.129   6.605  17.814  0.00  0.00    +0.000 HD
BRANCH  18  21
ATOM     21  C   UNL     1       3.477   4.738  19.265  0.00  0.00    +0.000 A 
ATOM     22  N   UNL     1       4.792   4.829  19.675  0.00  0.00    +0.000 N 
ATOM     23  C   UNL     1       5.525   4.745  18.511  0.00  0.00    +0.000 A 
ATOM     24  C   UNL     1       6.746   5.336  18.165  0.00  0.00    +0.000 A 
ATOM     25  C   UNL     1       7.120   5.247  16.829  0.00  0.00    +0.000 A 
ATOM     26  C   UNL     1       6.368   4.509  15.909  0.00  0.00    +0.000 A 
ATOM     27  C   UNL     1       5.201   3.841  16.295  0.00  0.00    +0.000 A 
ATOM     28  C   UNL     1       4.739   4.021  17.610  0.00  0.00    +0.000 A 
ATOM     29  C   UNL     1       3.488   3.788  18.256  0.00  0.00    +0.000 A 
ATOM     30 CL   UNL     1       2.143   3.046  17.518  0.00  0.00    +0.000 Cl
ATOM     31  H   UNL     1       5.081   5.379  20.471  0.00  0.00    +0.000 HD
ENDBRANCH  18  21
ENDBRANCH   1  19
TORSDOF 3
ENDMDL
MODEL 9
REMARK VINA RESULT:      -9.0      3.298      9.067
REMARK  Name = 
REMARK  3 active torsions:
REMARK  status: ('A' for Active; 'I' for Inactive)
REMARK    1  A    between atoms: C_2  and  C_20
REMARK    2  A    between atoms: N_3  and  C_4
REMARK    3  A    between atoms: C_8  and  C_9
REMARK                            x       y       z     vdW  Elec       q    Type
REMARK                         _______ _______ _______ _____ _____    ______ ____
ROOT
ATOM      1  C   UNL     1       0.206   9.566  19.728  0.00  0.00    +0.000 A 
ATOM      2  C   UNL     1       0.078   9.146  21.047  0.00  0.00    +0.000 A 
ATOM      3  C   UNL     1       0.933   8.170  21.552  0.00  0.00    +0.000 A 
ATOM      4  C   UNL     1       1.893   7.587  20.723  0.00  0.00    +0.000 A 
ATOM      5  C   UNL     1       1.978   7.922  19.366  0.00  0.00    +0.000 A 
ATOM      6  C   UNL     1       1.159   8.960  18.892  0.00  0.00    +0.000 A 
ENDROOT
BRANCH   5   7
ATOM      7  C   UNL     1       2.871   7.202  18.455  0.00  0.00    +0.000 A 
ATOM      8  N   UNL     1       3.773   7.736  17.657  0.00  0.00    +0.000 NA
ATOM      9  N   UNL     1       4.415   6.733  16.978  0.00  0.00    +0.000 NA
ATOM     10  C   UNL     1       3.877   5.581  17.329  0.00  0.00    +0.000 A 
ATOM     11  N   UNL     1       2.855   5.834  18.215  0.00  0.00    +0.000 N 
ATOM     12  C   UNL     1       1.923   4.870  18.770  0.00  0.00    +0.000 C 
ATOM     13  C   UNL     1       1.524   3.741  17.832  0.00  0.00    +0.000 C 
ATOM     14  C   UNL     1       2.563   2.623  17.744  0.00  0.00    +0.000 C 
ATOM     15  C   UNL     1       4.021   3.082  17.756  0.00  0.00    +0.000 C 
ATOM     16  C   UNL     1       4.301   4.246  16.812  0.00  0.00    +0.000 C 
ENDBRANCH   5   7
BRANCH   1  19
ATOM     17  O   UNL     1      -0.970  12.051  20.921  0.00  0.00    +0.000 OA
ATOM     18  C   UNL     1      -1.190  11.649  19.784  0.00  0.00    +0.000 C 
ATOM     19  N   UNL     1      -0.617  10.557  19.160  0.00  0.00    +0.000 N 
ATOM     20  H   UNL     1      -0.975  10.328  18.242  0.00  0.00    +0.000 HD
BRANCH  18  21
ATOM     21  C   UNL     1      -2.329  12.132  19.031  0.00  0.00    +0.000 A 
ATOM     22  N   UNL     1      -3.236  13.013  19.584  0.00  0.00    +0.000 N 
ATOM     23  C   UNL     1      -4.451  12.372  19.479  0.00  0.00    +0.000 A 
ATOM     24  C   UNL     1      -5.573  12.414  20.315  0.00  0.00    +0.000 A 
ATOM     25  C   UNL     1      -6.568  11.475  20.066  0.00  0.00    +0.000 A 
ATOM     26  C   UNL     1      -6.496  10.612  18.967  0.00  0.00    +0.000 A 
ATOM     27  C   UNL     1      -5.413  10.651  18.082  0.00  0.00    +0.000 A 
ATOM     28  C   UNL     1      -4.339  11.506  18.387  0.00  0.00    +0.000 A 
ATOM     29  C   UNL     1      -2.987  11.589  17.938  0.00  0.00    +0.000 A 
ATOM     30 CL   UNL     1      -2.319  10.626  16.701  0.00  0.00    +0.000 Cl
ATOM     31  H   UNL     1      -3.003  13.633  20.346  0.00  0.00    +0.000 HD
ENDBRANCH  18  21
ENDBRANCH   1  19
TORSDOF 3
ENDMDL
