MODEL 1
REMARK VINA RESULT:      -8.8      0.000      0.000
REMARK  Name = 
REMARK  2 active torsions:
REMARK  status: ('A' for Active; 'I' for Inactive)
REMARK    1  A    between atoms: C_2  and  C_11
REMARK    2  A    between atoms: C_15  and  N_16
REMARK                            x       y       z     vdW  Elec       q    Type
REMARK                         _______ _______ _______ _____ _____    ______ ____
ROOT
ATOM      1  C   UNL     1      -0.690  11.304  20.877  0.00  0.00    +0.000 A 
ATOM      2  C   UNL     1      -0.302  12.234  19.908  0.00  0.00    +0.000 A 
ATOM      3  C   UNL     1       0.655  11.881  18.964  0.00  0.00    +0.000 A 
ATOM      4  C   UNL     1       1.238  10.616  18.995  0.00  0.00    +0.000 A 
ATOM      5  C   UNL     1       0.882   9.671  19.958  0.00  0.00    +0.000 A 
ATOM      6  C   UNL     1      -0.107  10.030  20.906  0.00  0.00    +0.000 A 
ENDROOT
BRANCH   5   7
ATOM      7  N   UNL     1       1.476   8.383  20.060  0.00  0.00    +0.000 N 
ATOM      8  C   UNL     1       2.193   7.708  19.076  0.00  0.00    +0.000 C 
ATOM      9  O   UNL     1       2.410   8.168  17.956  0.00  0.00    +0.000 OA
ATOM     10  N   UNL     1       2.696   6.447  19.438  0.00  0.00    +0.000 N 
ATOM     11  C   UNL     1       2.322   5.671  20.616  0.00  0.00    +0.000 C 
ATOM     12  C   UNL     1       1.106   4.804  20.317  0.00  0.00    +0.000 C 
ATOM     13  C   UNL     1       1.451   3.407  19.804  0.00  0.00    +0.000 C 
ATOM     14  C   UNL     1       2.443   3.291  18.651  0.00  0.00    +0.000 C 
ATOM     15  C   UNL     1       2.705   4.533  17.798  0.00  0.00    +0.000 C 
ATOM     16  C   UNL     1       3.468   5.693  18.444  0.00  0.00    +0.000 C 
ATOM     17  C   UNL     1       3.426   2.132  18.830  0.00  0.00    +0.000 C 
ATOM     18  C   UNL     1       2.387   2.042  17.770  0.00  0.00    +0.000 C 
ATOM     19  H   UNL     1       1.517   8.006  20.988  0.00  0.00    +0.000 HD
ENDBRANCH   5   7
BRANCH   1  21
ATOM     20  O   UNL     1      -1.493  11.427  23.084  0.00  0.00    +0.000 OA
ATOM     21  C   UNL     1      -1.694  11.701  21.906  0.00  0.00    +0.000 C 
ATOM     22  N   UNL     1      -2.828  12.301  21.396  0.00  0.00    +0.000 N 
ATOM     23  C   UNL     1      -3.920  12.711  22.166  0.00  0.00    +0.000 A 
ATOM     24  C   UNL     1      -3.779  13.397  23.365  0.00  0.00    +0.000 A 
ATOM     25  C   UNL     1      -4.934  13.784  24.053  0.00  0.00    +0.000 A 
ATOM     26  C   UNL     1      -6.180  13.433  23.544  0.00  0.00    +0.000 A 
ATOM     27 CL   UNL     1      -7.622  13.816  24.389  0.00  0.00    +0.000 Cl
ATOM     28  C   UNL     1      -6.223  12.765  22.332  0.00  0.00    +0.000 A 
ATOM     29  N   UNL     1      -5.123  12.437  21.616  0.00  0.00    +0.000 NA
ATOM     30  H   UNL     1      -3.083  12.071  20.446  0.00  0.00    +0.000 HD
ENDBRANCH   1  21
TORSDOF 2
ENDMDL
MODEL 2
REMARK VINA RESULT:      -8.8      3.509      4.722
REMARK  Name = 
REMARK  2 active torsions:
REMARK  status: ('A' for Active; 'I' for Inactive)
REMARK    1  A    between atoms: C_2  and  C_11
REMARK    2  A    between atoms: C_15  and  N_16
REMARK                            x       y       z     vdW  Elec       q    Type
REMARK                         _______ _______ _______ _____ _____    ______ ____
ROOT
ATOM      1  C   UNL     1      -0.245  11.392  21.093  0.00  0.00    +0.000 A 
ATOM      2  C   UNL     1      -0.962  11.483  22.291  0.00  0.00    +0.000 A 
ATOM      3  C   UNL     1      -0.923  10.427  23.194  0.00  0.00    +0.000 A 
ATOM      4  C   UNL     1      -0.192   9.278  22.900  0.00  0.00    +0.000 A 
ATOM      5  C   UNL     1       0.521   9.152  21.707  0.00  0.00    +0.000 A 
ATOM      6  C   UNL     1       0.493  10.238  20.798  0.00  0.00    +0.000 A 
ENDROOT
BRANCH   5   7
ATOM      7  N   UNL     1       1.247   7.986  21.339  0.00  0.00    +0.000 N 
ATOM      8  C   UNL     1       1.845   7.721  20.110  0.00  0.00    +0.000 C 
ATOM      9  O   UNL     1       1.819   8.501  19.159  0.00  0.00    +0.000 OA
ATOM     10  N   UNL     1       2.524   6.495  20.008  0.00  0.00    +0.000 N 
ATOM     11  C   UNL     1       2.436   5.377  20.941  0.00  0.00    +0.000 C 
ATOM     12  C   UNL     1       1.276   4.462  20.567  0.00  0.00    +0.000 C 
ATOM     13  C   UNL     1       1.661   3.328  19.619  0.00  0.00    +0.000 C 
ATOM     14  C   UNL     1       2.446   3.680  18.360  0.00  0.00    +0.000 C 
ATOM     15  C   UNL     1       2.435   5.135  17.887  0.00  0.00    +0.000 C 
ATOM     16  C   UNL     1       3.182   6.166  18.738  0.00  0.00    +0.000 C 
ATOM     17  C   UNL     1       3.554   2.671  18.049  0.00  0.00    +0.000 C 
ATOM     18  C   UNL     1       2.360   2.732  17.163  0.00  0.00    +0.000 C 
ATOM     19  H   UNL     1       1.484   7.375  22.098  0.00  0.00    +0.000 HD
ENDBRANCH   5   7
BRANCH   1  21
ATOM     20  O   UNL     1      -0.973  12.382  19.088  0.00  0.00    +0.000 OA
ATOM     21  C   UNL     1      -0.318  12.515  20.115  0.00  0.00    +0.000 C 
ATOM     22  N   UNL     1       0.451  13.613  20.448  0.00  0.00    +0.000 N 
ATOM     23  C   UNL     1       0.576  14.760  19.659  0.00  0.00    +0.000 A 
ATOM     24  C   UNL     1      -0.511  15.377  19.053  0.00  0.00    +0.000 A 
ATOM     25  C   UNL     1      -0.287  16.534  18.299  0.00  0.00    +0.000 A 
ATOM     26  C   UNL     1       1.013  17.004  18.142  0.00  0.00    +0.000 A 
ATOM     27 CL   UNL     1       1.348  18.372  17.164  0.00  0.00    +0.000 Cl
ATOM     28  C   UNL     1       2.030  16.334  18.799  0.00  0.00    +0.000 A 
ATOM     29  N   UNL     1       1.831  15.252  19.586  0.00  0.00    +0.000 NA
ATOM     30  H   UNL     1       1.259  13.450  21.032  0.00  0.00    +0.000 HD
ENDBRANCH   1  21
TORSDOF 2
ENDMDL
MODEL 3
REMARK VINA RESULT:      -8.6      3.604      4.661
REMARK  Name = 
REMARK  2 active torsions:
REMARK  status: ('A' for Active; 'I' for Inactive)
REMARK    1  A    between atoms: C_2  and  C_11
REMARK    2  A    between atoms: C_15  and  N_16
REMARK                            x       y       z     vdW  Elec       q    Type
REMARK                         _______ _______ _______ _____ _____    ______ ____
ROOT
ATOM      1  C   UNL     1       0.613  11.491  21.432  0.00  0.00    +0.000 A 
ATOM      2  C   UNL     1      -0.550  11.516  22.208  0.00  0.00    +0.000 A 
ATOM      3  C   UNL     1      -1.057  10.326  22.719  0.00  0.00    +0.000 A 
ATOM      4  C   UNL     1      -0.424   9.117  22.443  0.00  0.00    +0.000 A 
ATOM      5  C   UNL     1       0.730   9.059  21.661  0.00  0.00    +0.000 A 
ATOM      6  C   UNL     1       1.254  10.275  21.158  0.00  0.00    +0.000 A 
ENDROOT
BRANCH   5   7
ATOM      7  N   UNL     1       1.391   7.848  21.314  0.00  0.00    +0.000 N 
ATOM      8  C   UNL     1       1.955   7.521  20.084  0.00  0.00    +0.000 C 
ATOM      9  O   UNL     1       1.955   8.277  19.113  0.00  0.00    +0.000 OA
ATOM     10  N   UNL     1       2.571   6.260  20.006  0.00  0.00    +0.000 N 
ATOM     11  C   UNL     1       2.442   5.173  20.969  0.00  0.00    +0.000 C 
ATOM     12  C   UNL     1       1.232   4.308  20.637  0.00  0.00    +0.000 C 
ATOM     13  C   UNL     1       1.545   3.132  19.715  0.00  0.00    +0.000 C 
ATOM     14  C   UNL     1       2.327   3.411  18.435  0.00  0.00    +0.000 C 
ATOM     15  C   UNL     1       2.381   4.852  17.924  0.00  0.00    +0.000 C 
ATOM     16  C   UNL     1       3.192   5.865  18.736  0.00  0.00    +0.000 C 
ATOM     17  C   UNL     1       3.377   2.339  18.137  0.00  0.00    +0.000 C 
ATOM     18  C   UNL     1       2.175   2.437  17.266  0.00  0.00    +0.000 C 
ATOM     19  H   UNL     1       1.609   7.247  22.086  0.00  0.00    +0.000 HD
ENDBRANCH   5   7
BRANCH   1  21
ATOM     20  O   UNL     1       2.206  13.210  21.251  0.00  0.00    +0.000 OA
ATOM     21  C   UNL     1       1.133  12.766  20.861  0.00  0.00    +0.000 C 
ATOM     22  N   UNL     1       0.282  13.379  19.962  0.00  0.00    +0.000 N 
ATOM     23  C   UNL     1       0.536  14.604  19.340  0.00  0.00    +0.000 A 
ATOM     24  C   UNL     1       1.771  14.925  18.789  0.00  0.00    +0.000 A 
ATOM     25  C   UNL     1       1.922  16.169  18.168  0.00  0.00    +0.000 A 
ATOM     26  C   UNL     1       0.855  17.060  18.160  0.00  0.00    +0.000 A 
ATOM     27 CL   UNL     1       1.015  18.626  17.480  0.00  0.00    +0.000 Cl
ATOM     28  C   UNL     1      -0.343  16.646  18.717  0.00  0.00    +0.000 A 
ATOM     29  N   UNL     1      -0.533  15.424  19.265  0.00  0.00    +0.000 NA
ATOM     30  H   UNL     1      -0.706  13.187  20.059  0.00  0.00    +0.000 HD
ENDBRANCH   1  21
TORSDOF 2
ENDMDL
MODEL 4
REMARK VINA RESULT:      -8.4      4.549     10.280
REMARK  Name = 
REMARK  2 active torsions:
REMARK  status: ('A' for Active; 'I' for Inactive)
REMARK    1  A    between atoms: C_2  and  C_11
REMARK    2  A    between atoms: C_15  and  N_16
REMARK                            x       y       z     vdW  Elec       q    Type
REMARK                         _______ _______ _______ _____ _____    ______ ____
ROOT
ATOM      1  C   UNL     1       0.812   8.976  21.018  0.00  0.00    +0.000 A 
ATOM      2  C   UNL     1      -0.022   8.588  22.071  0.00  0.00    +0.000 A 
ATOM      3  C   UNL     1      -0.680   9.559  22.818  0.00  0.00    +0.000 A 
ATOM      4  C   UNL     1      -0.493  10.909  22.532  0.00  0.00    +0.000 A 
ATOM      5  C   UNL     1       0.343  11.328  21.496  0.00  0.00    +0.000 A 
ATOM      6  C   UNL     1       0.996  10.334  20.726  0.00  0.00    +0.000 A 
ENDROOT
BRANCH   5   7
ATOM      7  N   UNL     1       0.601  12.693  21.190  0.00  0.00    +0.000 N 
ATOM      8  C   UNL     1      -0.305  13.630  20.702  0.00  0.00    +0.000 C 
ATOM      9  O   UNL     1      -1.488  13.378  20.473  0.00  0.00    +0.000 OA
ATOM     10  N   UNL     1       0.199  14.926  20.500  0.00  0.00    +0.000 N 
ATOM     11  C   UNL     1       1.605  15.315  20.487  0.00  0.00    +0.000 C 
ATOM     12  C   UNL     1       2.188  15.158  19.088  0.00  0.00    +0.000 C 
ATOM     13  C   UNL     1       2.081  16.415  18.227  0.00  0.00    +0.000 C 
ATOM     14  C   UNL     1       0.724  17.105  18.129  0.00  0.00    +0.000 C 
ATOM     15  C   UNL     1      -0.520  16.304  18.516  0.00  0.00    +0.000 C 
ATOM     16  C   UNL     1      -0.713  15.959  19.995  0.00  0.00    +0.000 C 
ATOM     17  C   UNL     1       0.830  18.630  18.177  0.00  0.00    +0.000 C 
ATOM     18  C   UNL     1       0.439  17.971  16.901  0.00  0.00    +0.000 C 
ATOM     19  H   UNL     1       1.481  13.043  21.518  0.00  0.00    +0.000 HD
ENDBRANCH   5   7
BRANCH   1  21
ATOM     20  O   UNL     1       1.984   8.200  19.133  0.00  0.00    +0.000 OA
ATOM     21  C   UNL     1       1.539   7.930  20.242  0.00  0.00    +0.000 C 
ATOM     22  N   UNL     1       1.577   6.691  20.850  0.00  0.00    +0.000 N 
ATOM     23  C   UNL     1       2.159   5.551  20.289  0.00  0.00    +0.000 A 
ATOM     24  C   UNL     1       3.399   5.572  19.663  0.00  0.00    +0.000 A 
ATOM     25  C   UNL     1       3.908   4.375  19.149  0.00  0.00    +0.000 A 
ATOM     26  C   UNL     1       3.145   3.216  19.240  0.00  0.00    +0.000 A 
ATOM     27 CL   UNL     1       3.690   1.740  18.558  0.00  0.00    +0.000 Cl
ATOM     28  C   UNL     1       1.929   3.287  19.898  0.00  0.00    +0.000 A 
ATOM     29  N   UNL     1       1.444   4.419  20.459  0.00  0.00    +0.000 NA
ATOM     30  H   UNL     1       0.831   6.472  21.496  0.00  0.00    +0.000 HD
ENDBRANCH   1  21
TORSDOF 2
ENDMDL
MODEL 5
REMARK VINA RESULT:      -8.2      1.761      1.910
REMARK  Name = 
REMARK  2 active torsions:
REMARK  status: ('A' for Active; 'I' for Inactive)
REMARK    1  A    between atoms: C_2  and  C_11
REMARK    2  A    between atoms: C_15  and  N_16
REMARK                            x       y       z     vdW  Elec       q    Type
REMARK                         _______ _______ _______ _____ _____    ______ ____
ROOT
ATOM      1  C   UNL     1      -0.285  11.229  20.844  0.00  0.00    +0.000 A 
ATOM      2  C   UNL     1      -0.396  11.788  19.567  0.00  0.00    +0.000 A 
ATOM      3  C   UNL     1       0.064  11.075  18.465  0.00  0.00    +0.000 A 
ATOM      4  C   UNL     1       0.649   9.822  18.635  0.00  0.00    +0.000 A 
ATOM      5  C   UNL     1       0.786   9.245  19.897  0.00  0.00    +0.000 A 
ATOM      6  C   UNL     1       0.299   9.967  21.014  0.00  0.00    +0.000 A 
ENDROOT
BRANCH   5   7
ATOM      7  N   UNL     1       1.414   7.990  20.129  0.00  0.00    +0.000 N 
ATOM      8  C   UNL     1       2.380   7.375  19.338  0.00  0.00    +0.000 C 
ATOM      9  O   UNL     1       2.828   7.869  18.304  0.00  0.00    +0.000 OA
ATOM     10  N   UNL     1       2.857   6.136  19.802  0.00  0.00    +0.000 N 
ATOM     11  C   UNL     1       2.262   5.318  20.852  0.00  0.00    +0.000 C 
ATOM     12  C   UNL     1       1.202   4.391  20.269  0.00  0.00    +0.000 C 
ATOM     13  C   UNL     1       1.739   3.026  19.843  0.00  0.00    +0.000 C 
ATOM     14  C   UNL     1       2.980   2.988  18.957  0.00  0.00    +0.000 C 
ATOM     15  C   UNL     1       3.363   4.259  18.198  0.00  0.00    +0.000 C 
ATOM     16  C   UNL     1       3.884   5.446  19.013  0.00  0.00    +0.000 C 
ATOM     17  C   UNL     1       3.959   1.882  19.357  0.00  0.00    +0.000 C 
ATOM     18  C   UNL     1       3.206   1.755  18.080  0.00  0.00    +0.000 C 
ATOM     19  H   UNL     1       1.256   7.597  21.039  0.00  0.00    +0.000 HD
ENDBRANCH   5   7
BRANCH   1  21
ATOM     20  O   UNL     1      -0.644  11.536  23.148  0.00  0.00    +0.000 OA
ATOM     21  C   UNL     1      -0.751  12.013  22.024  0.00  0.00    +0.000 C 
ATOM     22  N   UNL     1      -1.346  13.219  21.710  0.00  0.00    +0.000 N 
ATOM     23  C   UNL     1      -1.900  14.096  22.646  0.00  0.00    +0.000 A 
ATOM     24  C   UNL     1      -1.265  14.422  23.838  0.00  0.00    +0.000 A 
ATOM     25  C   UNL     1      -1.890  15.326  24.703  0.00  0.00    +0.000 A 
ATOM     26  C   UNL     1      -3.140  15.835  24.368  0.00  0.00    +0.000 A 
ATOM     27 CL   UNL     1      -3.981  16.886  25.430  0.00  0.00    +0.000 Cl
ATOM     28  C   UNL     1      -3.687  15.469  23.150  0.00  0.00    +0.000 A 
ATOM     29  N   UNL     1      -3.073  14.647  22.268  0.00  0.00    +0.000 NA
ATOM     30  H   UNL     1      -1.776  13.297  20.798  0.00  0.00    +0.000 HD
ENDBRANCH   1  21
TORSDOF 2
ENDMDL
MODEL 6
REMARK VINA RESULT:      -8.2      2.809      3.305
REMARK  Name = 
REMARK  2 active torsions:
REMARK  status: ('A' for Active; 'I' for Inactive)
REMARK    1  A    between atoms: C_2  and  C_11
REMARK    2  A    between atoms: C_15  and  N_16
REMARK                            x       y       z     vdW  Elec       q    Type
REMARK                         _______ _______ _______ _____ _____    ______ ____
ROOT
ATOM      1  C   UNL     1      -0.854  10.648  20.393  0.00  0.00    +0.000 A 
ATOM      2  C   UNL     1      -0.776  11.337  21.607  0.00  0.00    +0.000 A 
ATOM      3  C   UNL     1       0.011  10.829  22.634  0.00  0.00    +0.000 A 
ATOM      4  C   UNL     1       0.701   9.631  22.462  0.00  0.00    +0.000 A 
ATOM      5  C   UNL     1       0.632   8.914  21.268  0.00  0.00    +0.000 A 
ATOM      6  C   UNL     1      -0.157   9.445  20.218  0.00  0.00    +0.000 A 
ENDROOT
BRANCH   5   7
ATOM      7  N   UNL     1       1.281   7.666  21.056  0.00  0.00    +0.000 N 
ATOM      8  C   UNL     1       2.058   7.298  19.960  0.00  0.00    +0.000 C 
ATOM      9  O   UNL     1       2.288   8.044  19.009  0.00  0.00    +0.000 OA
ATOM     10  N   UNL     1       2.607   6.006  20.002  0.00  0.00    +0.000 N 
ATOM     11  C   UNL     1       2.234   4.936  20.921  0.00  0.00    +0.000 C 
ATOM     12  C   UNL     1       1.068   4.133  20.357  0.00  0.00    +0.000 C 
ATOM     13  C   UNL     1       1.492   2.934  19.512  0.00  0.00    +0.000 C 
ATOM     14  C   UNL     1       2.523   3.159  18.411  0.00  0.00    +0.000 C 
ATOM     15  C   UNL     1       2.753   4.590  17.922  0.00  0.00    +0.000 C 
ATOM     16  C   UNL     1       3.443   5.567  18.878  0.00  0.00    +0.000 C 
ATOM     17  C   UNL     1       3.552   2.030  18.323  0.00  0.00    +0.000 C 
ATOM     18  C   UNL     1       2.551   2.183  17.234  0.00  0.00    +0.000 C 
ATOM     19  H   UNL     1       1.311   7.061  21.855  0.00  0.00    +0.000 HD
ENDBRANCH   5   7
BRANCH   1  21
ATOM     20  O   UNL     1      -1.225  11.532  18.247  0.00  0.00    +0.000 OA
ATOM     21  C   UNL     1      -1.727  11.182  19.308  0.00  0.00    +0.000 C 
ATOM     22  N   UNL     1      -3.059  11.298  19.651  0.00  0.00    +0.000 N 
ATOM     23  C   UNL     1      -4.049  11.819  18.814  0.00  0.00    +0.000 A 
ATOM     24  C   UNL     1      -4.155  11.476  17.471  0.00  0.00    +0.000 A 
ATOM     25  C   UNL     1      -5.193  12.035  16.719  0.00  0.00    +0.000 A 
ATOM     26  C   UNL     1      -6.057  12.944  17.320  0.00  0.00    +0.000 A 
ATOM     27 CL   UNL     1      -7.297  13.714  16.421  0.00  0.00    +0.000 Cl
ATOM     28  C   UNL     1      -5.886  13.210  18.668  0.00  0.00    +0.000 A 
ATOM     29  N   UNL     1      -4.930  12.634  19.432  0.00  0.00    +0.000 NA
ATOM     30  H   UNL     1      -3.274  11.416  20.631  0.00  0.00    +0.000 HD
ENDBRANCH   1  21
TORSDOF 2
ENDMDL
MODEL 7
REMARK VINA RESULT:      -8.1      2.872      3.154
REMARK  Name = 
REMARK  2 active torsions:
REMARK  status: ('A' for Active; 'I' for Inactive)
REMARK    1  A    between atoms: C_2  and  C_11
REMARK    2  A    between atoms: C_15  and  N_16
REMARK                            x       y       z     vdW  Elec       q    Type
REMARK                         _______ _______ _______ _____ _____    ______ ____
ROOT
ATOM      1  C   UNL     1       0.199  12.080  20.436  0.00  0.00    +0.000 A 
ATOM      2  C   UNL     1      -0.644  12.320  19.347  0.00  0.00    +0.000 A 
ATOM      3  C   UNL     1      -0.875  11.307  18.424  0.00  0.00    +0.000 A 
ATOM      4  C   UNL     1      -0.256  10.068  18.571  0.00  0.00    +0.000 A 
ATOM      5  C   UNL     1       0.602   9.804  19.640  0.00  0.00    +0.000 A 
ATOM      6  C   UNL     1       0.820  10.833  20.588  0.00  0.00    +0.000 A 
ENDROOT
BRANCH   5   7
ATOM      7  N   UNL     1       1.292   8.572  19.813  0.00  0.00    +0.000 N 
ATOM      8  C   UNL     1       2.075   7.908  18.873  0.00  0.00    +0.000 C 
ATOM      9  O   UNL     1       2.274   8.329  17.734  0.00  0.00    +0.000 OA
ATOM     10  N   UNL     1       2.668   6.709  19.303  0.00  0.00    +0.000 N 
ATOM     11  C   UNL     1       2.337   5.965  20.513  0.00  0.00    +0.000 C 
ATOM     12  C   UNL     1       1.196   4.992  20.243  0.00  0.00    +0.000 C 
ATOM     13  C   UNL     1       1.656   3.603  19.804  0.00  0.00    +0.000 C 
ATOM     14  C   UNL     1       2.672   3.509  18.671  0.00  0.00    +0.000 C 
ATOM     15  C   UNL     1       2.851   4.725  17.760  0.00  0.00    +0.000 C 
ATOM     16  C   UNL     1       3.512   5.970  18.357  0.00  0.00    +0.000 C 
ATOM     17  C   UNL     1       3.739   2.440  18.919  0.00  0.00    +0.000 C 
ATOM     18  C   UNL     1       2.727   2.218  17.852  0.00  0.00    +0.000 C 
ATOM     19  H   UNL     1       1.347   8.245  20.759  0.00  0.00    +0.000 HD
ENDBRANCH   5   7
BRANCH   1  21
ATOM     20  O   UNL     1       1.622  13.547  21.600  0.00  0.00    +0.000 OA
ATOM     21  C   UNL     1       0.468  13.182  21.405  0.00  0.00    +0.000 C 
ATOM     22  N   UNL     1      -0.652  13.650  22.063  0.00  0.00    +0.000 N 
ATOM     23  C   UNL     1      -0.634  14.642  23.047  0.00  0.00    +0.000 A 
ATOM     24  C   UNL     1       0.102  15.814  22.920  0.00  0.00    +0.000 A 
ATOM     25  C   UNL     1       0.039  16.757  23.950  0.00  0.00    +0.000 A 
ATOM     26  C   UNL     1      -0.718  16.479  25.084  0.00  0.00    +0.000 A 
ATOM     27 CL   UNL     1      -0.765  17.568  26.407  0.00  0.00    +0.000 Cl
ATOM     28  C   UNL     1      -1.433  15.294  25.113  0.00  0.00    +0.000 A 
ATOM     29  N   UNL     1      -1.440  14.395  24.102  0.00  0.00    +0.000 NA
ATOM     30  H   UNL     1      -1.426  13.010  22.167  0.00  0.00    +0.000 HD
ENDBRANCH   1  21
TORSDOF 2
ENDMDL
MODEL 8
REMARK VINA RESULT:      -8.1      1.424      1.610
REMARK  Name = 
REMARK  2 active torsions:
REMARK  status: ('A' for Active; 'I' for Inactive)
REMARK    1  A    between atoms: C_2  and  C_11
REMARK    2  A    between atoms: C_15  and  N_16
REMARK                            x       y       z     vdW  Elec       q    Type
REMARK                         _______ _______ _______ _____ _____    ______ ____
ROOT
ATOM      1  C   UNL     1      -0.775  12.011  19.473  0.00  0.00    +0.000 A 
ATOM      2  C   UNL     1      -0.034  13.006  18.830  0.00  0.00    +0.000 A 
ATOM      3  C   UNL     1       1.241  12.713  18.357  0.00  0.00    +0.000 A 
ATOM      4  C   UNL     1       1.783  11.443  18.542  0.00  0.00    +0.000 A 
ATOM      5  C   UNL     1       1.072  10.434  19.192  0.00  0.00    +0.000 A 
ATOM      6  C   UNL     1      -0.233  10.732  19.655  0.00  0.00    +0.000 A 
ENDROOT
BRANCH   5   7
ATOM      7  N   UNL     1       1.595   9.135  19.444  0.00  0.00    +0.000 N 
ATOM      8  C   UNL     1       2.036   8.210  18.502  0.00  0.00    +0.000 C 
ATOM      9  O   UNL     1       2.031   8.418  17.290  0.00  0.00    +0.000 OA
ATOM     10  N   UNL     1       2.529   6.998  19.015  0.00  0.00    +0.000 N 
ATOM     11  C   UNL     1       2.376   6.510  20.381  0.00  0.00    +0.000 C 
ATOM     12  C   UNL     1       1.072   5.733  20.525  0.00  0.00    +0.000 C 
ATOM     13  C   UNL     1       1.211   4.236  20.262  0.00  0.00    +0.000 C 
ATOM     14  C   UNL     1       1.918   3.794  18.985  0.00  0.00    +0.000 C 
ATOM     15  C   UNL     1       2.062   4.811  17.852  0.00  0.00    +0.000 C 
ATOM     16  C   UNL     1       3.017   5.988  18.069  0.00  0.00    +0.000 C 
ATOM     17  C   UNL     1       2.844   2.596  19.204  0.00  0.00    +0.000 C 
ATOM     18  C   UNL     1       1.594   2.410  18.419  0.00  0.00    +0.000 C 
ATOM     19  H   UNL     1       1.815   8.944  20.403  0.00  0.00    +0.000 HD
ENDBRANCH   5   7
BRANCH   1  21
ATOM     20  O   UNL     1      -3.123  12.063  19.346  0.00  0.00    +0.000 OA
ATOM     21  C   UNL     1      -2.129  12.342  20.006  0.00  0.00    +0.000 C 
ATOM     22  N   UNL     1      -2.119  13.021  21.208  0.00  0.00    +0.000 N 
ATOM     23  C   UNL     1      -3.263  13.476  21.869  0.00  0.00    +0.000 A 
ATOM     24  C   UNL     1      -4.404  12.697  22.019  0.00  0.00    +0.000 A 
ATOM     25  C   UNL     1      -5.492  13.233  22.715  0.00  0.00    +0.000 A 
ATOM     26  C   UNL     1      -5.418  14.537  23.195  0.00  0.00    +0.000 A 
ATOM     27 CL   UNL     1      -6.753  15.266  23.986  0.00  0.00    +0.000 Cl
ATOM     28  C   UNL     1      -4.234  15.230  23.015  0.00  0.00    +0.000 A 
ATOM     29  N   UNL     1      -3.145  14.711  22.402  0.00  0.00    +0.000 NA
ATOM     30  H   UNL     1      -1.300  13.574  21.418  0.00  0.00    +0.000 HD
ENDBRANCH   1  21
TORSDOF 2
ENDMDL
MODEL 9
REMARK VINA RESULT:      -8.0      4.526     10.927
REMARK  Name = 
REMARK  2 active torsions:
REMARK  status: ('A' for Active; 'I' for Inactive)
REMARK    1  A    between atoms: C_2  and  C_11
REMARK    2  A    between atoms: C_15  and  N_16
REMARK                            x       y       z     vdW  Elec       q    Type
REMARK                         _______ _______ _______ _____ _____    ______ ____
ROOT
ATOM      1  C   UNL     1       1.681   8.488  19.486  0.00  0.00    +0.000 A 
ATOM      2  C   UNL     1       1.611   7.704  20.643  0.00  0.00    +0.000 A 
ATOM      3  C   UNL     1       0.911   8.176  21.747  0.00  0.00    +0.000 A 
ATOM      4  C   UNL     1       0.301   9.427  21.710  0.00  0.00    +0.000 A 
ATOM      5  C   UNL     1       0.365  10.237  20.576  0.00  0.00    +0.000 A 
ATOM      6  C   UNL     1       1.064   9.745  19.446  0.00  0.00    +0.000 A 
ENDROOT
BRANCH   5   7
ATOM      7  N   UNL     1      -0.203  11.539  20.500  0.00  0.00    +0.000 N 
ATOM      8  C   UNL     1       0.376  12.734  20.919  0.00  0.00    +0.000 C 
ATOM      9  O   UNL     1       1.498  12.808  21.419  0.00  0.00    +0.000 OA
ATOM     10  N   UNL     1      -0.390  13.894  20.713  0.00  0.00    +0.000 N 
ATOM     11  C   UNL     1      -1.806  13.945  20.369  0.00  0.00    +0.000 C 
ATOM     12  C   UNL     1      -2.662  13.925  21.630  0.00  0.00    +0.000 C 
ATOM     13  C   UNL     1      -2.992  15.311  22.178  0.00  0.00    +0.000 C 
ATOM     14  C   UNL     1      -1.846  16.300  22.367  0.00  0.00    +0.000 C 
ATOM     15  C   UNL     1      -0.420  15.748  22.420  0.00  0.00    +0.000 C 
ATOM     16  C   UNL     1       0.174  15.184  21.127  0.00  0.00    +0.000 C 
ATOM     17  C   UNL     1      -2.215  17.723  21.946  0.00  0.00    +0.000 C 
ATOM     18  C   UNL     1      -2.019  17.424  23.390  0.00  0.00    +0.000 C 
ATOM     19  H   UNL     1      -1.031  11.610  19.939  0.00  0.00    +0.000 HD
ENDBRANCH   5   7
BRANCH   1  21
ATOM     20  O   UNL     1       2.393   8.584  17.247  0.00  0.00    +0.000 OA
ATOM     21  C   UNL     1       2.461   7.989  18.317  0.00  0.00    +0.000 C 
ATOM     22  N   UNL     1       3.155   6.818  18.550  0.00  0.00    +0.000 N 
ATOM     23  C   UNL     1       3.912   6.143  17.589  0.00  0.00    +0.000 A 
ATOM     24  C   UNL     1       4.784   6.794  16.725  0.00  0.00    +0.000 A 
ATOM     25  C   UNL     1       5.515   6.029  15.811  0.00  0.00    +0.000 A 
ATOM     26  C   UNL     1       5.317   4.653  15.763  0.00  0.00    +0.000 A 
ATOM     27 CL   UNL     1       6.131   3.681  14.609  0.00  0.00    +0.000 Cl
ATOM     28  C   UNL     1       4.442   4.089  16.676  0.00  0.00    +0.000 A 
ATOM     29  N   UNL     1       3.772   4.800  17.612  0.00  0.00    +0.000 NA
ATOM     30  H   UNL     1       2.795   6.204  19.267  0.00  0.00    +0.000 HD
ENDBRANCH   1  21
TORSDOF 2
ENDMDL
