MODEL 1
REMARK VINA RESULT:      -8.4      0.000      0.000
REMARK  Name = 
REMARK  5 active torsions:
REMARK  status: ('A' for Active; 'I' for Inactive)
REMARK    1  A    between atoms: C_1  and  C_2
REMARK    2  A    between atoms: C_2  and  N_3
REMARK    3  A    between atoms: C_10  and  N_11
REMARK    4  A    between atoms: C_12  and  C_14
REMARK    5  A    between atoms: C_19  and  C_20
REMARK                            x       y       z     vdW  Elec       q    Type
REMARK                         _______ _______ _______ _____ _____    ______ ____
ROOT
ATOM      1  N   UNL     1       8.916   9.292  19.108  0.00  0.00    +0.000 N 
ATOM      2  C   UNL     1       8.168   8.796  18.051  0.00  0.00    +0.000 C 
ATOM      3  O   UNL     1       7.950   9.389  16.997  0.00  0.00    +0.000 OA
ATOM      4  H   UNL     1       9.201   8.650  19.836  0.00  0.00    +0.000 HD
ENDROOT
BRANCH   1  12
ATOM      5  N   UNL     1      11.286  14.447  19.372  0.00  0.00    +0.000 N 
ATOM      6  C   UNL     1      11.695  15.124  18.220  0.00  0.00    +0.000 C 
ATOM      7  O   UNL     1      12.286  16.206  18.244  0.00  0.00    +0.000 OA
ATOM      8  C   UNL     1      11.272  14.523  16.901  0.00  0.00    +0.000 C 
ATOM      9  C   UNL     1      11.409  13.017  16.925  0.00  0.00    +0.000 C 
ATOM     10  C   UNL     1      10.676  12.459  18.110  0.00  0.00    +0.000 A 
ATOM     11  C   UNL     1      10.109  11.177  18.039  0.00  0.00    +0.000 A 
ATOM     12  C   UNL     1       9.482  10.591  19.142  0.00  0.00    +0.000 A 
ATOM     13  C   UNL     1       9.414  11.321  20.327  0.00  0.00    +0.000 A 
ATOM     14  C   UNL     1      10.002  12.594  20.412  0.00  0.00    +0.000 A 
ATOM     15  C   UNL     1      10.643  13.175  19.310  0.00  0.00    +0.000 A 
BRANCH   5  17
ATOM     16  C   UNL     1      10.465  16.018  21.108  0.00  0.00    +0.000 C 
ATOM     17  C   UNL     1      11.570  15.071  20.663  0.00  0.00    +0.000 C 
ENDBRANCH   5  17
ENDBRANCH   1  12
BRANCH   2  18
ATOM     18  C   UNL     1       7.614   7.419  18.160  0.00  0.00    +0.000 A 
ATOM     19  C   UNL     1       8.163   6.423  18.963  0.00  0.00    +0.000 A 
ATOM     20  C   UNL     1       7.489   5.199  19.099  0.00  0.00    +0.000 A 
ATOM     21  C   UNL     1       6.277   4.941  18.461  0.00  0.00    +0.000 A 
ATOM     22  N   UNL     1       5.648   3.769  18.653  0.00  0.00    +0.000 NA
ATOM     23  C   UNL     1       4.456   3.561  18.042  0.00  0.00    +0.000 A 
ATOM     24  C   UNL     1       3.770   2.253  18.301  0.00  0.00    +0.000 C 
ATOM     25  C   UNL     1       3.861   4.500  17.210  0.00  0.00    +0.000 A 
ATOM     26  C   UNL     1       4.514   5.707  17.005  0.00  0.00    +0.000 A 
ATOM     27  C   UNL     1       5.737   5.947  17.639  0.00  0.00    +0.000 A 
ATOM     28  C   UNL     1       6.407   7.170  17.490  0.00  0.00    +0.000 A 
ENDBRANCH   2  18
TORSDOF 3
ENDMDL
MODEL 2
REMARK VINA RESULT:      -8.3      0.687      1.932
REMARK  Name = 
REMARK  5 active torsions:
REMARK  status: ('A' for Active; 'I' for Inactive)
REMARK    1  A    between atoms: C_1  and  C_2
REMARK    2  A    between atoms: C_2  and  N_3
REMARK    3  A    between atoms: C_10  and  N_11
REMARK    4  A    between atoms: C_12  and  C_14
REMARK    5  A    between atoms: C_19  and  C_20
REMARK                            x       y       z     vdW  Elec       q    Type
REMARK                         _______ _______ _______ _____ _____    ______ ____
ROOT
ATOM      1  N   UNL     1       9.080   9.411  19.098  0.00  0.00    +0.000 N 
ATOM      2  C   UNL     1       8.266   8.957  18.073  0.00  0.00    +0.000 C 
ATOM      3  O   UNL     1       7.998   9.582  17.050  0.00  0.00    +0.000 OA
ATOM      4  H   UNL     1       9.396   8.746  19.791  0.00  0.00    +0.000 HD
ENDROOT
BRANCH   1  12
ATOM      5  N   UNL     1      11.376  14.607  19.092  0.00  0.00    +0.000 N 
ATOM      6  C   UNL     1      11.223  15.476  20.175  0.00  0.00    +0.000 C 
ATOM      7  O   UNL     1      11.637  16.638  20.176  0.00  0.00    +0.000 OA
ATOM      8  C   UNL     1      10.617  14.888  21.427  0.00  0.00    +0.000 C 
ATOM      9  C   UNL     1       9.468  13.966  21.091  0.00  0.00    +0.000 C 
ATOM     10  C   UNL     1       9.917  12.938  20.093  0.00  0.00    +0.000 A 
ATOM     11  C   UNL     1       9.331  11.663  20.093  0.00  0.00    +0.000 A 
ATOM     12  C   UNL     1       9.668  10.702  19.136  0.00  0.00    +0.000 A 
ATOM     13  C   UNL     1      10.624  11.032  18.177  0.00  0.00    +0.000 A 
ATOM     14  C   UNL     1      11.195  12.315  18.156  0.00  0.00    +0.000 A 
ATOM     15  C   UNL     1      10.847  13.283  19.107  0.00  0.00    +0.000 A 
BRANCH   5  17
ATOM     16  C   UNL     1      11.139  15.809  16.934  0.00  0.00    +0.000 C 
ATOM     17  C   UNL     1      12.074  15.111  17.911  0.00  0.00    +0.000 C 
ENDBRANCH   5  17
ENDBRANCH   1  12
BRANCH   2  18
ATOM     18  C   UNL     1       7.697   7.585  18.175  0.00  0.00    +0.000 A 
ATOM     19  C   UNL     1       8.177   6.610  19.045  0.00  0.00    +0.000 A 
ATOM     20  C   UNL     1       7.487   5.393  19.161  0.00  0.00    +0.000 A 
ATOM     21  C   UNL     1       6.327   5.121  18.437  0.00  0.00    +0.000 A 
ATOM     22  N   UNL     1       5.678   3.958  18.611  0.00  0.00    +0.000 NA
ATOM     23  C   UNL     1       4.536   3.737  17.914  0.00  0.00    +0.000 A 
ATOM     24  C   UNL     1       3.824   2.439  18.154  0.00  0.00    +0.000 C 
ATOM     25  C   UNL     1       4.013   4.655  17.014  0.00  0.00    +0.000 A 
ATOM     26  C   UNL     1       4.687   5.854  16.828  0.00  0.00    +0.000 A 
ATOM     27  C   UNL     1       5.858   6.106  17.549  0.00  0.00    +0.000 A 
ATOM     28  C   UNL     1       6.545   7.323  17.420  0.00  0.00    +0.000 A 
ENDBRANCH   2  18
TORSDOF 3
ENDMDL
MODEL 3
REMARK VINA RESULT:      -8.3      7.976     11.822
REMARK  Name = 
REMARK  5 active torsions:
REMARK  status: ('A' for Active; 'I' for Inactive)
REMARK    1  A    between atoms: C_1  and  C_2
REMARK    2  A    between atoms: C_2  and  N_3
REMARK    3  A    between atoms: C_10  and  N_11
REMARK    4  A    between atoms: C_12  and  C_14
REMARK    5  A    between atoms: C_19  and  C_20
REMARK                            x       y       z     vdW  Elec       q    Type
REMARK                         _______ _______ _______ _____ _____    ______ ____
ROOT
ATOM      1  N   UNL     1       0.984   8.976  20.224  0.00  0.00    +0.000 N 
ATOM      2  C   UNL     1       1.027   9.611  21.455  0.00  0.00    +0.000 C 
ATOM      3  O   UNL     1       1.691   9.240  22.421  0.00  0.00    +0.000 OA
ATOM      4  H   UNL     1       0.573   9.471  19.443  0.00  0.00    +0.000 HD
ENDROOT
BRANCH   1  12
ATOM      5  N   UNL     1       3.814   4.191  19.059  0.00  0.00    +0.000 N 
ATOM      6  C   UNL     1       3.504   2.985  19.693  0.00  0.00    +0.000 C 
ATOM      7  O   UNL     1       4.149   1.947  19.526  0.00  0.00    +0.000 OA
ATOM      8  C   UNL     1       2.243   2.967  20.524  0.00  0.00    +0.000 C 
ATOM      9  C   UNL     1       2.104   4.243  21.322  0.00  0.00    +0.000 C 
ATOM     10  C   UNL     1       2.213   5.428  20.408  0.00  0.00    +0.000 A 
ATOM     11  C   UNL     1       1.522   6.612  20.715  0.00  0.00    +0.000 A 
ATOM     12  C   UNL     1       1.653   7.761  19.930  0.00  0.00    +0.000 A 
ATOM     13  C   UNL     1       2.481   7.705  18.811  0.00  0.00    +0.000 A 
ATOM     14  C   UNL     1       3.195   6.533  18.514  0.00  0.00    +0.000 A 
ATOM     15  C   UNL     1       3.075   5.385  19.308  0.00  0.00    +0.000 A 
BRANCH   5  17
ATOM     16  C   UNL     1       4.563   3.867  16.716  0.00  0.00    +0.000 C 
ATOM     17  C   UNL     1       4.956   4.205  18.147  0.00  0.00    +0.000 C 
ENDBRANCH   5  17
ENDBRANCH   1  12
BRANCH   2  18
ATOM     18  C   UNL     1       0.257  10.872  21.630  0.00  0.00    +0.000 A 
ATOM     19  C   UNL     1       0.474  12.024  20.879  0.00  0.00    +0.000 A 
ATOM     20  C   UNL     1      -0.395  13.116  21.029  0.00  0.00    +0.000 A 
ATOM     21  C   UNL     1      -1.481  13.091  21.903  0.00  0.00    +0.000 A 
ATOM     22  N   UNL     1      -2.310  14.145  21.982  0.00  0.00    +0.000 NA
ATOM     23  C   UNL     1      -3.375  14.077  22.819  0.00  0.00    +0.000 A 
ATOM     24  C   UNL     1      -4.293  15.262  22.862  0.00  0.00    +0.000 C 
ATOM     25  C   UNL     1      -3.639  12.969  23.614  0.00  0.00    +0.000 A 
ATOM     26  C   UNL     1      -2.779  11.884  23.538  0.00  0.00    +0.000 A 
ATOM     27  C   UNL     1      -1.685  11.929  22.668  0.00  0.00    +0.000 A 
ATOM     28  C   UNL     1      -0.817  10.835  22.532  0.00  0.00    +0.000 A 
ENDBRANCH   2  18
TORSDOF 3
ENDMDL
MODEL 4
REMARK VINA RESULT:      -8.3      7.640     11.819
REMARK  Name = 
REMARK  5 active torsions:
REMARK  status: ('A' for Active; 'I' for Inactive)
REMARK    1  A    between atoms: C_1  and  C_2
REMARK    2  A    between atoms: C_2  and  N_3
REMARK    3  A    between atoms: C_10  and  N_11
REMARK    4  A    between atoms: C_12  and  C_14
REMARK    5  A    between atoms: C_19  and  C_20
REMARK                            x       y       z     vdW  Elec       q    Type
REMARK                         _______ _______ _______ _____ _____    ______ ____
ROOT
ATOM      1  N   UNL     1       1.407   8.593  20.714  0.00  0.00    +0.000 N 
ATOM      2  C   UNL     1       0.807   9.653  20.053  0.00  0.00    +0.000 C 
ATOM      3  O   UNL     1       0.495   9.662  18.864  0.00  0.00    +0.000 OA
ATOM      4  H   UNL     1       1.434   8.611  21.725  0.00  0.00    +0.000 HD
ENDROOT
BRANCH   1  12
ATOM      5  N   UNL     1       3.179   3.822  18.191  0.00  0.00    +0.000 N 
ATOM      6  C   UNL     1       2.790   2.562  18.653  0.00  0.00    +0.000 C 
ATOM      7  O   UNL     1       3.218   1.505  18.183  0.00  0.00    +0.000 OA
ATOM      8  C   UNL     1       1.704   2.537  19.703  0.00  0.00    +0.000 C 
ATOM      9  C   UNL     1       1.914   3.633  20.723  0.00  0.00    +0.000 C 
ATOM     10  C   UNL     1       2.055   4.955  20.027  0.00  0.00    +0.000 A 
ATOM     11  C   UNL     1       1.629   6.129  20.667  0.00  0.00    +0.000 A 
ATOM     12  C   UNL     1       1.809   7.387  20.085  0.00  0.00    +0.000 A 
ATOM     13  C   UNL     1       2.413   7.454  18.831  0.00  0.00    +0.000 A 
ATOM     14  C   UNL     1       2.865   6.285  18.197  0.00  0.00    +0.000 A 
ATOM     15  C   UNL     1       2.697   5.025  18.787  0.00  0.00    +0.000 A 
BRANCH   5  17
ATOM     16  C   UNL     1       5.551   4.174  17.554  0.00  0.00    +0.000 C 
ATOM     17  C   UNL     1       4.134   3.874  17.086  0.00  0.00    +0.000 C 
ENDBRANCH   5  17
ENDBRANCH   1  12
BRANCH   2  18
ATOM     18  C   UNL     1       0.456  10.869  20.836  0.00  0.00    +0.000 A 
ATOM     19  C   UNL     1       1.098  12.096  20.690  0.00  0.00    +0.000 A 
ATOM     20  C   UNL     1       0.604  13.216  21.379  0.00  0.00    +0.000 A 
ATOM     21  C   UNL     1      -0.517  13.149  22.205  0.00  0.00    +0.000 A 
ATOM     22  N   UNL     1      -0.977  14.256  22.811  0.00  0.00    +0.000 NA
ATOM     23  C   UNL     1      -2.088  14.163  23.584  0.00  0.00    +0.000 A 
ATOM     24  C   UNL     1      -2.588  15.424  24.223  0.00  0.00    +0.000 C 
ATOM     25  C   UNL     1      -2.764  12.968  23.790  0.00  0.00    +0.000 A 
ATOM     26  C   UNL     1      -2.285  11.824  23.171  0.00  0.00    +0.000 A 
ATOM     27  C   UNL     1      -1.150  11.902  22.357  0.00  0.00    +0.000 A 
ATOM     28  C   UNL     1      -0.659  10.775  21.680  0.00  0.00    +0.000 A 
ENDBRANCH   2  18
TORSDOF 3
ENDMDL
MODEL 5
REMARK VINA RESULT:      -8.0      7.305     11.027
REMARK  Name = 
REMARK  5 active torsions:
REMARK  status: ('A' for Active; 'I' for Inactive)
REMARK    1  A    between atoms: C_1  and  C_2
REMARK    2  A    between atoms: C_2  and  N_3
REMARK    3  A    between atoms: C_10  and  N_11
REMARK    4  A    between atoms: C_12  and  C_14
REMARK    5  A    between atoms: C_19  and  C_20
REMARK                            x       y       z     vdW  Elec       q    Type
REMARK                         _______ _______ _______ _____ _____    ______ ____
ROOT
ATOM      1  N   UNL     1       1.529   7.916  20.656  0.00  0.00    +0.000 N 
ATOM      2  C   UNL     1       0.990   9.071  20.113  0.00  0.00    +0.000 C 
ATOM      3  O   UNL     1       1.021   9.377  18.924  0.00  0.00    +0.000 OA
ATOM      4  H   UNL     1       1.272   7.665  21.602  0.00  0.00    +0.000 HD
ENDROOT
BRANCH   1  12
ATOM      5  N   UNL     1       4.305   3.970  17.659  0.00  0.00    +0.000 N 
ATOM      6  C   UNL     1       5.224   4.318  16.665  0.00  0.00    +0.000 C 
ATOM      7  O   UNL     1       5.783   3.492  15.940  0.00  0.00    +0.000 OA
ATOM      8  C   UNL     1       5.608   5.776  16.586  0.00  0.00    +0.000 C 
ATOM      9  C   UNL     1       4.400   6.664  16.777  0.00  0.00    +0.000 C 
ATOM     10  C   UNL     1       3.690   6.291  18.045  0.00  0.00    +0.000 A 
ATOM     11  C   UNL     1       2.992   7.271  18.768  0.00  0.00    +0.000 A 
ATOM     12  C   UNL     1       2.258   6.952  19.914  0.00  0.00    +0.000 A 
ATOM     13  C   UNL     1       2.244   5.626  20.341  0.00  0.00    +0.000 A 
ATOM     14  C   UNL     1       2.918   4.636  19.607  0.00  0.00    +0.000 A 
ATOM     15  C   UNL     1       3.643   4.954  18.451  0.00  0.00    +0.000 A 
BRANCH   5  17
ATOM     16  C   UNL     1       2.599   2.186  17.406  0.00  0.00    +0.000 C 
ATOM     17  C   UNL     1       4.010   2.550  17.843  0.00  0.00    +0.000 C 
ENDBRANCH   5  17
ENDBRANCH   1  12
BRANCH   2  18
ATOM     18  C   UNL     1       0.266  10.007  21.016  0.00  0.00    +0.000 A 
ATOM     19  C   UNL     1      -0.407   9.610  22.168  0.00  0.00    +0.000 A 
ATOM     20  C   UNL     1      -0.944  10.585  23.023  0.00  0.00    +0.000 A 
ATOM     21  C   UNL     1      -0.824  11.950  22.764  0.00  0.00    +0.000 A 
ATOM     22  N   UNL     1      -1.318  12.848  23.633  0.00  0.00    +0.000 NA
ATOM     23  C   UNL     1      -1.158  14.169  23.368  0.00  0.00    +0.000 A 
ATOM     24  C   UNL     1      -1.699  15.142  24.372  0.00  0.00    +0.000 C 
ATOM     25  C   UNL     1      -0.517  14.636  22.228  0.00  0.00    +0.000 A 
ATOM     26  C   UNL     1      -0.013  13.709  21.328  0.00  0.00    +0.000 A 
ATOM     27  C   UNL     1      -0.155  12.343  21.591  0.00  0.00    +0.000 A 
ATOM     28  C   UNL     1       0.378  11.375  20.726  0.00  0.00    +0.000 A 
ENDBRANCH   2  18
TORSDOF 3
ENDMDL
MODEL 6
REMARK VINA RESULT:      -8.0      7.288     11.009
REMARK  Name = 
REMARK  5 active torsions:
REMARK  status: ('A' for Active; 'I' for Inactive)
REMARK    1  A    between atoms: C_1  and  C_2
REMARK    2  A    between atoms: C_2  and  N_3
REMARK    3  A    between atoms: C_10  and  N_11
REMARK    4  A    between atoms: C_12  and  C_14
REMARK    5  A    between atoms: C_19  and  C_20
REMARK                            x       y       z     vdW  Elec       q    Type
REMARK                         _______ _______ _______ _____ _____    ______ ____
ROOT
ATOM      1  N   UNL     1       1.446   8.899  19.708  0.00  0.00    +0.000 N 
ATOM      2  C   UNL     1       0.658   9.722  18.920  0.00  0.00    +0.000 C 
ATOM      3  O   UNL     1       0.455   9.569  17.717  0.00  0.00    +0.000 OA
ATOM      4  H   UNL     1       1.383   8.993  20.713  0.00  0.00    +0.000 HD
ENDROOT
BRANCH   1  12
ATOM      5  N   UNL     1       4.274   4.394  17.714  0.00  0.00    +0.000 N 
ATOM      6  C   UNL     1       5.266   4.527  16.739  0.00  0.00    +0.000 C 
ATOM      7  O   UNL     1       5.843   3.565  16.224  0.00  0.00    +0.000 OA
ATOM      8  C   UNL     1       5.705   5.934  16.413  0.00  0.00    +0.000 C 
ATOM      9  C   UNL     1       4.518   6.868  16.347  0.00  0.00    +0.000 C 
ATOM     10  C   UNL     1       3.715   6.759  17.610  0.00  0.00    +0.000 A 
ATOM     11  C   UNL     1       3.006   7.875  18.084  0.00  0.00    +0.000 A 
ATOM     12  C   UNL     1       2.189   7.796  19.215  0.00  0.00    +0.000 A 
ATOM     13  C   UNL     1       2.102   6.576  19.883  0.00  0.00    +0.000 A 
ATOM     14  C   UNL     1       2.787   5.451  19.398  0.00  0.00    +0.000 A 
ATOM     15  C   UNL     1       3.596   5.526  18.257  0.00  0.00    +0.000 A 
BRANCH   5  17
ATOM     16  C   UNL     1       2.659   2.528  17.462  0.00  0.00    +0.000 C 
ATOM     17  C   UNL     1       3.919   3.043  18.142  0.00  0.00    +0.000 C 
ENDBRANCH   5  17
ENDBRANCH   1  12
BRANCH   2  18
ATOM     18  C   UNL     1      -0.049  10.859  19.568  0.00  0.00    +0.000 A 
ATOM     19  C   UNL     1      -0.436  12.017  18.898  0.00  0.00    +0.000 A 
ATOM     20  C   UNL     1      -1.216  12.972  19.568  0.00  0.00    +0.000 A 
ATOM     21  C   UNL     1      -1.629  12.804  20.889  0.00  0.00    +0.000 A 
ATOM     22  N   UNL     1      -2.409  13.726  21.476  0.00  0.00    +0.000 NA
ATOM     23  C   UNL     1      -2.819  13.518  22.752  0.00  0.00    +0.000 A 
ATOM     24  C   UNL     1      -3.710  14.556  23.366  0.00  0.00    +0.000 C 
ATOM     25  C   UNL     1      -2.453  12.398  23.488  0.00  0.00    +0.000 A 
ATOM     26  C   UNL     1      -1.641  11.450  22.884  0.00  0.00    +0.000 A 
ATOM     27  C   UNL     1      -1.222  11.639  21.564  0.00  0.00    +0.000 A 
ATOM     28  C   UNL     1      -0.435  10.682  20.905  0.00  0.00    +0.000 A 
ENDBRANCH   2  18
TORSDOF 3
ENDMDL
MODEL 7
REMARK VINA RESULT:      -8.0      7.833     11.849
REMARK  Name = 
REMARK  5 active torsions:
REMARK  status: ('A' for Active; 'I' for Inactive)
REMARK    1  A    between atoms: C_1  and  C_2
REMARK    2  A    between atoms: C_2  and  N_3
REMARK    3  A    between atoms: C_10  and  N_11
REMARK    4  A    between atoms: C_12  and  C_14
REMARK    5  A    between atoms: C_19  and  C_20
REMARK                            x       y       z     vdW  Elec       q    Type
REMARK                         _______ _______ _______ _____ _____    ______ ____
ROOT
ATOM      1  N   UNL     1       1.004   8.011  21.078  0.00  0.00    +0.000 N 
ATOM      2  C   UNL     1       0.764   9.215  20.434  0.00  0.00    +0.000 C 
ATOM      3  O   UNL     1       1.000   9.445  19.251  0.00  0.00    +0.000 OA
ATOM      4  H   UNL     1       0.589   7.863  21.989  0.00  0.00    +0.000 HD
ENDROOT
BRANCH   1  12
ATOM      5  N   UNL     1       3.639   3.579  18.694  0.00  0.00    +0.000 N 
ATOM      6  C   UNL     1       3.138   2.280  18.813  0.00  0.00    +0.000 C 
ATOM      7  O   UNL     1       3.725   1.286  18.379  0.00  0.00    +0.000 OA
ATOM      8  C   UNL     1       1.755   2.145  19.404  0.00  0.00    +0.000 C 
ATOM      9  C   UNL     1       1.573   3.083  20.575  0.00  0.00    +0.000 C 
ATOM     10  C   UNL     1       1.923   4.483  20.162  0.00  0.00    +0.000 A 
ATOM     11  C   UNL     1       1.277   5.571  20.770  0.00  0.00    +0.000 A 
ATOM     12  C   UNL     1       1.624   6.891  20.468  0.00  0.00    +0.000 A 
ATOM     13  C   UNL     1       2.626   7.111  19.525  0.00  0.00    +0.000 A 
ATOM     14  C   UNL     1       3.294   6.026  18.933  0.00  0.00    +0.000 A 
ATOM     15  C   UNL     1       2.956   4.703  19.246  0.00  0.00    +0.000 A 
BRANCH   5  17
ATOM     16  C   UNL     1       4.754   3.979  16.515  0.00  0.00    +0.000 C 
ATOM     17  C   UNL     1       4.919   3.754  18.011  0.00  0.00    +0.000 C 
ENDBRANCH   5  17
ENDBRANCH   1  12
BRANCH   2  18
ATOM     18  C   UNL     1       0.124  10.315  21.205  0.00  0.00    +0.000 A 
ATOM     19  C   UNL     1      -0.684  10.113  22.321  0.00  0.00    +0.000 A 
ATOM     20  C   UNL     1      -1.131  11.222  23.057  0.00  0.00    +0.000 A 
ATOM     21  C   UNL     1      -0.789  12.529  22.716  0.00  0.00    +0.000 A 
ATOM     22  N   UNL     1      -1.206  13.557  23.475  0.00  0.00    +0.000 NA
ATOM     23  C   UNL     1      -0.831  14.815  23.133  0.00  0.00    +0.000 A 
ATOM     24  C   UNL     1      -1.293  15.934  24.018  0.00  0.00    +0.000 C 
ATOM     25  C   UNL     1      -0.045  15.091  22.022  0.00  0.00    +0.000 A 
ATOM     26  C   UNL     1       0.379  14.032  21.235  0.00  0.00    +0.000 A 
ATOM     27  C   UNL     1       0.016  12.726  21.579  0.00  0.00    +0.000 A 
ATOM     28  C   UNL     1       0.460  11.625  20.832  0.00  0.00    +0.000 A 
ENDBRANCH   2  18
TORSDOF 3
ENDMDL
MODEL 8
REMARK VINA RESULT:      -8.0      7.832     11.740
REMARK  Name = 
REMARK  5 active torsions:
REMARK  status: ('A' for Active; 'I' for Inactive)
REMARK    1  A    between atoms: C_1  and  C_2
REMARK    2  A    between atoms: C_2  and  N_3
REMARK    3  A    between atoms: C_10  and  N_11
REMARK    4  A    between atoms: C_12  and  C_14
REMARK    5  A    between atoms: C_19  and  C_20
REMARK                            x       y       z     vdW  Elec       q    Type
REMARK                         _______ _______ _______ _____ _____    ______ ____
ROOT
ATOM      1  N   UNL     1       0.763   8.633  20.506  0.00  0.00    +0.000 N 
ATOM      2  C   UNL     1       0.931   9.410  21.641  0.00  0.00    +0.000 C 
ATOM      3  O   UNL     1       1.799   9.240  22.494  0.00  0.00    +0.000 OA
ATOM      4  H   UNL     1       0.156   8.978  19.774  0.00  0.00    +0.000 HD
ENDROOT
BRANCH   1  12
ATOM      5  N   UNL     1       4.005   4.118  19.331  0.00  0.00    +0.000 N 
ATOM      6  C   UNL     1       3.738   2.863  19.885  0.00  0.00    +0.000 C 
ATOM      7  O   UNL     1       4.466   1.881  19.718  0.00  0.00    +0.000 OA
ATOM      8  C   UNL     1       2.427   2.717  20.620  0.00  0.00    +0.000 C 
ATOM      9  C   UNL     1       2.142   3.938  21.464  0.00  0.00    +0.000 C 
ATOM     10  C   UNL     1       2.228   5.173  20.615  0.00  0.00    +0.000 A 
ATOM     11  C   UNL     1       1.435   6.289  20.925  0.00  0.00    +0.000 A 
ATOM     12  C   UNL     1       1.537   7.483  20.206  0.00  0.00    +0.000 A 
ATOM     13  C   UNL     1       2.443   7.541  19.149  0.00  0.00    +0.000 A 
ATOM     14  C   UNL     1       3.258   6.437  18.851  0.00  0.00    +0.000 A 
ATOM     15  C   UNL     1       3.165   5.245  19.580  0.00  0.00    +0.000 A 
BRANCH   5  17
ATOM     16  C   UNL     1       4.934   3.974  17.036  0.00  0.00    +0.000 C 
ATOM     17  C   UNL     1       5.203   4.256  18.507  0.00  0.00    +0.000 C 
ENDBRANCH   5  17
ENDBRANCH   1  12
BRANCH   2  18
ATOM     18  C   UNL     1       0.031  10.578  21.839  0.00  0.00    +0.000 A 
ATOM     19  C   UNL     1      -0.821  10.725  22.931  0.00  0.00    +0.000 A 
ATOM     20  C   UNL     1      -1.530  11.925  23.093  0.00  0.00    +0.000 A 
ATOM     21  C   UNL     1      -1.408  12.990  22.201  0.00  0.00    +0.000 A 
ATOM     22  N   UNL     1      -2.076  14.135  22.421  0.00  0.00    +0.000 NA
ATOM     23  C   UNL     1      -1.912  15.162  21.550  0.00  0.00    +0.000 A 
ATOM     24  C   UNL     1      -2.652  16.434  21.841  0.00  0.00    +0.000 C 
ATOM     25  C   UNL     1      -1.096  15.078  20.430  0.00  0.00    +0.000 A 
ATOM     26  C   UNL     1      -0.414  13.893  20.199  0.00  0.00    +0.000 A 
ATOM     27  C   UNL     1      -0.557  12.828  21.093  0.00  0.00    +0.000 A 
ATOM     28  C   UNL     1       0.150  11.629  20.917  0.00  0.00    +0.000 A 
ENDBRANCH   2  18
TORSDOF 3
ENDMDL
MODEL 9
REMARK VINA RESULT:      -8.0      7.765     11.790
REMARK  Name = 
REMARK  5 active torsions:
REMARK  status: ('A' for Active; 'I' for Inactive)
REMARK    1  A    between atoms: C_1  and  C_2
REMARK    2  A    between atoms: C_2  and  N_3
REMARK    3  A    between atoms: C_10  and  N_11
REMARK    4  A    between atoms: C_12  and  C_14
REMARK    5  A    between atoms: C_19  and  C_20
REMARK                            x       y       z     vdW  Elec       q    Type
REMARK                         _______ _______ _______ _____ _____    ______ ____
ROOT
ATOM      1  N   UNL     1       1.330   8.885  20.496  0.00  0.00    +0.000 N 
ATOM      2  C   UNL     1       0.137   9.071  21.176  0.00  0.00    +0.000 C 
ATOM      3  O   UNL     1      -0.647   8.178  21.488  0.00  0.00    +0.000 OA
ATOM      4  H   UNL     1       1.992   9.649  20.470  0.00  0.00    +0.000 HD
ENDROOT
BRANCH   1  12
ATOM      5  N   UNL     1       3.286   3.938  18.503  0.00  0.00    +0.000 N 
ATOM      6  C   UNL     1       3.005   2.729  19.144  0.00  0.00    +0.000 C 
ATOM      7  O   UNL     1       3.479   1.647  18.788  0.00  0.00    +0.000 OA
ATOM      8  C   UNL     1       1.978   2.777  20.250  0.00  0.00    +0.000 C 
ATOM      9  C   UNL     1       2.165   4.007  21.109  0.00  0.00    +0.000 C 
ATOM     10  C   UNL     1       2.183   5.233  20.242  0.00  0.00    +0.000 A 
ATOM     11  C   UNL     1       1.713   6.454  20.751  0.00  0.00    +0.000 A 
ATOM     12  C   UNL     1       1.780   7.633  20.004  0.00  0.00    +0.000 A 
ATOM     13  C   UNL     1       2.313   7.570  18.718  0.00  0.00    +0.000 A 
ATOM     14  C   UNL     1       2.809   6.357  18.213  0.00  0.00    +0.000 A 
ATOM     15  C   UNL     1       2.756   5.178  18.968  0.00  0.00    +0.000 A 
BRANCH   5  17
ATOM     16  C   UNL     1       5.605   4.297  17.699  0.00  0.00    +0.000 C 
ATOM     17  C   UNL     1       4.179   3.902  17.347  0.00  0.00    +0.000 C 
ENDBRANCH   5  17
ENDBRANCH   1  12
BRANCH   2  18
ATOM     18  C   UNL     1      -0.220  10.446  21.617  0.00  0.00    +0.000 A 
ATOM     19  C   UNL     1      -1.080  10.723  22.677  0.00  0.00    +0.000 A 
ATOM     20  C   UNL     1      -1.247  12.051  23.099  0.00  0.00    +0.000 A 
ATOM     21  C   UNL     1      -0.574  13.114  22.498  0.00  0.00    +0.000 A 
ATOM     22  N   UNL     1      -0.734  14.365  22.963  0.00  0.00    +0.000 NA
ATOM     23  C   UNL     1      -0.042  15.373  22.376  0.00  0.00    +0.000 A 
ATOM     24  C   UNL     1      -0.225  16.751  22.938  0.00  0.00    +0.000 C 
ATOM     25  C   UNL     1       0.815  15.173  21.302  0.00  0.00    +0.000 A 
ATOM     26  C   UNL     1       0.974  13.883  20.817  0.00  0.00    +0.000 A 
ATOM     27  C   UNL     1       0.281  12.828  21.419  0.00  0.00    +0.000 A 
ATOM     28  C   UNL     1       0.448  11.505  20.984  0.00  0.00    +0.000 A 
ENDBRANCH   2  18
TORSDOF 3
ENDMDL
