MODEL 1
REMARK VINA RESULT:      -8.8      0.000      0.000
REMARK  Name = 
REMARK  8 active torsions:
REMARK  status: ('A' for Active; 'I' for Inactive)
REMARK    1  A    between atoms: C_1  and  C_2
REMARK    2  A    between atoms: C_2  and  C_3
REMARK    3  A    between atoms: C_6  and  C_7
REMARK    4  A    between atoms: C_10  and  C_11
REMARK    5  A    between atoms: C_11  and  C_12
REMARK    6  A    between atoms: C_12  and  C_13
REMARK    7  A    between atoms: N_24  and  C_25
REMARK    8  A    between atoms: C_25  and  C_26
REMARK                            x       y       z     vdW  Elec       q    Type
REMARK                         _______ _______ _______ _____ _____    ______ ____
ROOT
ATOM      1  C   UNL     1       6.907   5.343  19.509  0.00  0.00    +0.000 C 
ENDROOT
BRANCH   1   2
ATOM      2  C   UNL     1       5.486   4.865  19.232  0.00  0.00    +0.000 C 
ATOM      3  O   UNL     1       5.204   3.682  19.110  0.00  0.00    +0.000 OA
ATOM      4  N   UNL     1       4.607   5.916  19.203  0.00  0.00    +0.000 N 
ATOM      5  C   UNL     1       3.271   5.764  18.893  0.00  0.00    +0.000 A 
ATOM      6  N   UNL     1       2.781   6.500  17.905  0.00  0.00    +0.000 NA
ATOM      7  C   UNL     1       2.115   7.513  18.550  0.00  0.00    +0.000 A 
ATOM      8  C   UNL     1       1.682   8.749  18.076  0.00  0.00    +0.000 A 
ATOM      9  C   UNL     1       1.205   9.679  19.006  0.00  0.00    +0.000 A 
ATOM     10  C   UNL     1       1.116   9.365  20.367  0.00  0.00    +0.000 A 
ATOM     11  C   UNL     1       1.437   8.089  20.840  0.00  0.00    +0.000 A 
ATOM     12  C   UNL     1       1.948   7.199  19.900  0.00  0.00    +0.000 A 
ATOM     13  N   UNL     1       2.372   5.884  19.944  0.00  0.00    +0.000 N 
ATOM     14  H   UNL     1       4.975   6.779  18.818  0.00  0.00    +0.000 HD
BRANCH  13  15
ATOM     15  C   UNL     1       1.584   4.811  20.520  0.00  0.00    +0.000 C 
ATOM     16  C   UNL     1       1.482   3.580  19.645  0.00  0.00    +0.000 C 
ENDBRANCH  13  15
ENDBRANCH   1   2
BRANCH   1  17
ATOM     17  C   UNL     1       7.698   5.761  18.274  0.00  0.00    +0.000 C 
BRANCH  17  21
ATOM     18  C   UNL     1       8.488   9.252  18.308  0.00  0.00    +0.000 A 
ATOM     19  N   UNL     1       7.623   9.219  17.274  0.00  0.00    +0.000 NA
ATOM     20  O   UNL     1       7.268   7.876  17.186  0.00  0.00    +0.000 OA
ATOM     21  C   UNL     1       7.948   7.216  18.161  0.00  0.00    +0.000 A 
ATOM     22  N   UNL     1       8.721   8.008  18.876  0.00  0.00    +0.000 NA
BRANCH  18  26
ATOM     23  C   UNL     1      10.277  12.887  19.750  0.00  0.00    +0.000 A 
ATOM     24  C   UNL     1       9.869  12.774  18.417  0.00  0.00    +0.000 A 
ATOM     25  C   UNL     1       9.299  11.584  17.942  0.00  0.00    +0.000 A 
ATOM     26  C   UNL     1       9.120  10.479  18.789  0.00  0.00    +0.000 A 
ATOM     27  C   UNL     1       9.557  10.584  20.113  0.00  0.00    +0.000 A 
ATOM     28  C   UNL     1      10.149  11.766  20.581  0.00  0.00    +0.000 A 
BRANCH  23  30
ATOM     29  C   UNL     1      10.186  14.700  21.543  0.00  0.00    +0.000 C 
ATOM     30  C   UNL     1      10.871  14.169  20.286  0.00  0.00    +0.000 C 
ENDBRANCH  23  30
ENDBRANCH  18  26
ENDBRANCH  17  21
ENDBRANCH   1  17
TORSDOF 6
ENDMDL
MODEL 2
REMARK VINA RESULT:      -8.7      3.746      7.677
REMARK  Name = 
REMARK  8 active torsions:
REMARK  status: ('A' for Active; 'I' for Inactive)
REMARK    1  A    between atoms: C_1  and  C_2
REMARK    2  A    between atoms: C_2  and  C_3
REMARK    3  A    between atoms: C_6  and  C_7
REMARK    4  A    between atoms: C_10  and  C_11
REMARK    5  A    between atoms: C_11  and  C_12
REMARK    6  A    between atoms: C_12  and  C_13
REMARK    7  A    between atoms: N_24  and  C_25
REMARK    8  A    between atoms: C_25  and  C_26
REMARK                            x       y       z     vdW  Elec       q    Type
REMARK                         _______ _______ _______ _____ _____    ______ ____
ROOT
ATOM      1  C   UNL     1       1.639   4.182  19.316  0.00  0.00    +0.000 C 
ENDROOT
BRANCH   1   2
ATOM      2  C   UNL     1       2.737   3.648  18.403  0.00  0.00    +0.000 C 
ATOM      3  O   UNL     1       2.569   2.683  17.670  0.00  0.00    +0.000 OA
ATOM      4  N   UNL     1       3.867   4.419  18.484  0.00  0.00    +0.000 N 
ATOM      5  C   UNL     1       5.034   4.106  17.818  0.00  0.00    +0.000 A 
ATOM      6  N   UNL     1       6.144   4.002  18.536  0.00  0.00    +0.000 NA
ATOM      7  C   UNL     1       6.792   5.191  18.310  0.00  0.00    +0.000 A 
ATOM      8  C   UNL     1       7.823   5.802  19.021  0.00  0.00    +0.000 A 
ATOM      9  C   UNL     1       8.162   7.118  18.685  0.00  0.00    +0.000 A 
ATOM     10  C   UNL     1       7.524   7.787  17.636  0.00  0.00    +0.000 A 
ATOM     11  C   UNL     1       6.569   7.146  16.839  0.00  0.00    +0.000 A 
ATOM     12  C   UNL     1       6.222   5.854  17.222  0.00  0.00    +0.000 A 
ATOM     13  N   UNL     1       5.357   4.898  16.724  0.00  0.00    +0.000 N 
ATOM     14  H   UNL     1       4.062   4.806  19.401  0.00  0.00    +0.000 HD
BRANCH  13  15
ATOM     15  C   UNL     1       5.340   4.482  15.335  0.00  0.00    +0.000 C 
ATOM     16  C   UNL     1       6.706   4.454  14.681  0.00  0.00    +0.000 C 
ENDBRANCH  13  15
ENDBRANCH   1   2
BRANCH   1  17
ATOM     17  C   UNL     1       2.133   4.957  20.532  0.00  0.00    +0.000 C 
BRANCH  17  21
ATOM     18  C   UNL     1       1.057   8.363  20.771  0.00  0.00    +0.000 A 
ATOM     19  N   UNL     1       1.909   8.460  19.731  0.00  0.00    +0.000 NA
ATOM     20  O   UNL     1       2.386   7.162  19.574  0.00  0.00    +0.000 OA
ATOM     21  C   UNL     1       1.792   6.398  20.530  0.00  0.00    +0.000 A 
ATOM     22  N   UNL     1       0.973   7.084  21.301  0.00  0.00    +0.000 NA
BRANCH  18  26
ATOM     23  C   UNL     1      -1.264  11.649  22.293  0.00  0.00    +0.000 A 
ATOM     24  C   UNL     1      -0.868  11.617  20.952  0.00  0.00    +0.000 A 
ATOM     25  C   UNL     1      -0.099  10.553  20.458  0.00  0.00    +0.000 A 
ATOM     26  C   UNL     1       0.290   9.494  21.292  0.00  0.00    +0.000 A 
ATOM     27  C   UNL     1      -0.080   9.543  22.640  0.00  0.00    +0.000 A 
ATOM     28  C   UNL     1      -0.828  10.619  23.138  0.00  0.00    +0.000 A 
BRANCH  23  30
ATOM     29  C   UNL     1      -1.319  13.888  23.513  0.00  0.00    +0.000 C 
ATOM     30  C   UNL     1      -2.113  12.774  22.837  0.00  0.00    +0.000 C 
ENDBRANCH  23  30
ENDBRANCH  18  26
ENDBRANCH  17  21
ENDBRANCH   1  17
TORSDOF 6
ENDMDL
MODEL 3
REMARK VINA RESULT:      -8.7      0.515      1.029
REMARK  Name = 
REMARK  8 active torsions:
REMARK  status: ('A' for Active; 'I' for Inactive)
REMARK    1  A    between atoms: C_1  and  C_2
REMARK    2  A    between atoms: C_2  and  C_3
REMARK    3  A    between atoms: C_6  and  C_7
REMARK    4  A    between atoms: C_10  and  C_11
REMARK    5  A    between atoms: C_11  and  C_12
REMARK    6  A    between atoms: C_12  and  C_13
REMARK    7  A    between atoms: N_24  and  C_25
REMARK    8  A    between atoms: C_25  and  C_26
REMARK                            x       y       z     vdW  Elec       q    Type
REMARK                         _______ _______ _______ _____ _____    ______ ____
ROOT
ATOM      1  C   UNL     1       6.721   5.160  19.411  0.00  0.00    +0.000 C 
ENDROOT
BRANCH   1   2
ATOM      2  C   UNL     1       5.264   4.759  19.211  0.00  0.00    +0.000 C 
ATOM      3  O   UNL     1       4.904   3.590  19.184  0.00  0.00    +0.000 OA
ATOM      4  N   UNL     1       4.453   5.860  19.132  0.00  0.00    +0.000 N 
ATOM      5  C   UNL     1       3.100   5.775  18.873  0.00  0.00    +0.000 A 
ATOM      6  N   UNL     1       2.625   6.470  17.850  0.00  0.00    +0.000 NA
ATOM      7  C   UNL     1       2.047   7.567  18.439  0.00  0.00    +0.000 A 
ATOM      8  C   UNL     1       1.677   8.793  17.889  0.00  0.00    +0.000 A 
ATOM      9  C   UNL     1       1.292   9.815  18.763  0.00  0.00    +0.000 A 
ATOM     10  C   UNL     1       1.229   9.604  20.145  0.00  0.00    +0.000 A 
ATOM     11  C   UNL     1       1.485   8.346  20.699  0.00  0.00    +0.000 A 
ATOM     12  C   UNL     1       1.906   7.361  19.812  0.00  0.00    +0.000 A 
ATOM     13  N   UNL     1       2.247   6.027  19.939  0.00  0.00    +0.000 N 
ATOM     14  H   UNL     1       4.862   6.667  18.675  0.00  0.00    +0.000 HD
BRANCH  13  15
ATOM     15  C   UNL     1       1.413   5.051  20.614  0.00  0.00    +0.000 C 
ATOM     16  C   UNL     1       1.345   3.708  19.918  0.00  0.00    +0.000 C 
ENDBRANCH  13  15
ENDBRANCH   1   2
BRANCH   1  17
ATOM     17  C   UNL     1       7.448   5.599  18.144  0.00  0.00    +0.000 C 
BRANCH  17  21
ATOM     18  C   UNL     1       8.399   9.047  18.272  0.00  0.00    +0.000 A 
ATOM     19  N   UNL     1       7.469   9.098  17.296  0.00  0.00    +0.000 NA
ATOM     20  O   UNL     1       7.047   7.777  17.176  0.00  0.00    +0.000 OA
ATOM     21  C   UNL     1       7.757   7.045  18.076  0.00  0.00    +0.000 A 
ATOM     22  N   UNL     1       8.610   7.770  18.771  0.00  0.00    +0.000 NA
BRANCH  18  26
ATOM     23  C   UNL     1      10.576  12.467  19.708  0.00  0.00    +0.000 A 
ATOM     24  C   UNL     1       9.967  11.582  20.604  0.00  0.00    +0.000 A 
ATOM     25  C   UNL     1       9.245  10.474  20.136  0.00  0.00    +0.000 A 
ATOM     26  C   UNL     1       9.116  10.223  18.761  0.00  0.00    +0.000 A 
ATOM     27  C   UNL     1       9.699  11.127  17.867  0.00  0.00    +0.000 A 
ATOM     28  C   UNL     1      10.400  12.246  18.335  0.00  0.00    +0.000 A 
BRANCH  23  30
ATOM     29  C   UNL     1      11.135  14.938  19.410  0.00  0.00    +0.000 C 
ATOM     30  C   UNL     1      11.379  13.651  20.194  0.00  0.00    +0.000 C 
ENDBRANCH  23  30
ENDBRANCH  18  26
ENDBRANCH  17  21
ENDBRANCH   1  17
TORSDOF 6
ENDMDL
MODEL 4
REMARK VINA RESULT:      -8.2      3.923      8.731
REMARK  Name = 
REMARK  8 active torsions:
REMARK  status: ('A' for Active; 'I' for Inactive)
REMARK    1  A    between atoms: C_1  and  C_2
REMARK    2  A    between atoms: C_2  and  C_3
REMARK    3  A    between atoms: C_6  and  C_7
REMARK    4  A    between atoms: C_10  and  C_11
REMARK    5  A    between atoms: C_11  and  C_12
REMARK    6  A    between atoms: C_12  and  C_13
REMARK    7  A    between atoms: N_24  and  C_25
REMARK    8  A    between atoms: C_25  and  C_26
REMARK                            x       y       z     vdW  Elec       q    Type
REMARK                         _______ _______ _______ _____ _____    ______ ____
ROOT
ATOM      1  C   UNL     1       1.496   6.254  20.952  0.00  0.00    +0.000 C 
ENDROOT
BRANCH   1   2
ATOM      2  C   UNL     1       2.249   5.181  20.173  0.00  0.00    +0.000 C 
ATOM      3  O   UNL     1       1.735   4.119  19.856  0.00  0.00    +0.000 OA
ATOM      4  N   UNL     1       3.512   5.601  19.847  0.00  0.00    +0.000 N 
ATOM      5  C   UNL     1       4.429   4.789  19.211  0.00  0.00    +0.000 A 
ATOM      6  N   UNL     1       5.609   4.621  19.790  0.00  0.00    +0.000 NA
ATOM      7  C   UNL     1       6.442   5.454  19.084  0.00  0.00    +0.000 A 
ATOM      8  C   UNL     1       7.700   5.955  19.412  0.00  0.00    +0.000 A 
ATOM      9  C   UNL     1       8.243   6.952  18.593  0.00  0.00    +0.000 A 
ATOM     10  C   UNL     1       7.569   7.402  17.452  0.00  0.00    +0.000 A 
ATOM     11  C   UNL     1       6.360   6.825  17.048  0.00  0.00    +0.000 A 
ATOM     12  C   UNL     1       5.825   5.867  17.903  0.00  0.00    +0.000 A 
ATOM     13  N   UNL     1       4.692   5.075  17.878  0.00  0.00    +0.000 N 
ATOM     14  H   UNL     1       3.964   6.190  20.538  0.00  0.00    +0.000 HD
BRANCH  13  15
ATOM     15  C   UNL     1       4.311   4.262  16.739  0.00  0.00    +0.000 C 
ATOM     16  C   UNL     1       5.478   3.789  15.898  0.00  0.00    +0.000 C 
ENDBRANCH  13  15
ENDBRANCH   1   2
BRANCH   1  17
ATOM     17  C   UNL     1       1.683   7.676  20.435  0.00  0.00    +0.000 C 
BRANCH  17  21
ATOM     18  C   UNL     1      -0.233  10.271  21.986  0.00  0.00    +0.000 A 
ATOM     19  N   UNL     1       0.601   9.961  22.999  0.00  0.00    +0.000 NA
ATOM     20  O   UNL     1       1.387   8.939  22.475  0.00  0.00    +0.000 OA
ATOM     21  C   UNL     1       0.960   8.715  21.204  0.00  0.00    +0.000 A 
ATOM     22  N   UNL     1      -0.040   9.497  20.851  0.00  0.00    +0.000 NA
BRANCH  18  26
ATOM     23  C   UNL     1      -3.152  13.419  22.249  0.00  0.00    +0.000 A 
ATOM     24  C   UNL     1      -2.859  12.625  23.362  0.00  0.00    +0.000 A 
ATOM     25  C   UNL     1      -1.918  11.589  23.273  0.00  0.00    +0.000 A 
ATOM     26  C   UNL     1      -1.245  11.324  22.071  0.00  0.00    +0.000 A 
ATOM     27  C   UNL     1      -1.563  12.099  20.951  0.00  0.00    +0.000 A 
ATOM     28  C   UNL     1      -2.521  13.118  21.034  0.00  0.00    +0.000 A 
BRANCH  23  30
ATOM     29  C   UNL     1      -5.239  14.358  23.376  0.00  0.00    +0.000 C 
ATOM     30  C   UNL     1      -4.144  14.556  22.331  0.00  0.00    +0.000 C 
ENDBRANCH  23  30
ENDBRANCH  18  26
ENDBRANCH  17  21
ENDBRANCH   1  17
TORSDOF 6
ENDMDL
MODEL 5
REMARK VINA RESULT:      -8.2      3.319      7.464
REMARK  Name = 
REMARK  8 active torsions:
REMARK  status: ('A' for Active; 'I' for Inactive)
REMARK    1  A    between atoms: C_1  and  C_2
REMARK    2  A    between atoms: C_2  and  C_3
REMARK    3  A    between atoms: C_6  and  C_7
REMARK    4  A    between atoms: C_10  and  C_11
REMARK    5  A    between atoms: C_11  and  C_12
REMARK    6  A    between atoms: C_12  and  C_13
REMARK    7  A    between atoms: N_24  and  C_25
REMARK    8  A    between atoms: C_25  and  C_26
REMARK                            x       y       z     vdW  Elec       q    Type
REMARK                         _______ _______ _______ _____ _____    ______ ____
ROOT
ATOM      1  C   UNL     1       2.486   3.717  18.321  0.00  0.00    +0.000 C 
ENDROOT
BRANCH   1   2
ATOM      2  C   UNL     1       3.813   3.386  17.646  0.00  0.00    +0.000 C 
ATOM      3  O   UNL     1       3.957   2.405  16.931  0.00  0.00    +0.000 OA
ATOM      4  N   UNL     1       4.754   4.347  17.906  0.00  0.00    +0.000 N 
ATOM      5  C   UNL     1       6.062   4.246  17.479  0.00  0.00    +0.000 A 
ATOM      6  N   UNL     1       7.017   4.345  18.392  0.00  0.00    +0.000 NA
ATOM      7  C   UNL     1       7.478   5.630  18.246  0.00  0.00    +0.000 A 
ATOM      8  C   UNL     1       8.234   6.418  19.112  0.00  0.00    +0.000 A 
ATOM      9  C   UNL     1       8.394   7.772  18.796  0.00  0.00    +0.000 A 
ATOM     10  C   UNL     1       7.857   8.313  17.623  0.00  0.00    +0.000 A 
ATOM     11  C   UNL     1       7.197   7.508  16.688  0.00  0.00    +0.000 A 
ATOM     12  C   UNL     1       7.016   6.176  17.048  0.00  0.00    +0.000 A 
ATOM     13  N   UNL     1       6.440   5.079  16.435  0.00  0.00    +0.000 N 
ATOM     14  H   UNL     1       4.703   4.765  18.828  0.00  0.00    +0.000 HD
BRANCH  13  15
ATOM     15  C   UNL     1       6.758   4.663  15.082  0.00  0.00    +0.000 C 
ATOM     16  C   UNL     1       5.629   3.943  14.375  0.00  0.00    +0.000 C 
ENDBRANCH  13  15
ENDBRANCH   1   2
BRANCH   1  17
ATOM     17  C   UNL     1       2.606   4.315  19.719  0.00  0.00    +0.000 C 
BRANCH  17  21
ATOM     18  C   UNL     1       1.683   7.741  20.189  0.00  0.00    +0.000 A 
ATOM     19  N   UNL     1       2.399   7.847  19.051  0.00  0.00    +0.000 NA
ATOM     20  O   UNL     1       2.808   6.540  18.798  0.00  0.00    +0.000 OA
ATOM     21  C   UNL     1       2.316   5.765  19.801  0.00  0.00    +0.000 A 
ATOM     22  N   UNL     1       1.625   6.449  20.690  0.00  0.00    +0.000 NA
BRANCH  18  26
ATOM     23  C   UNL     1      -0.313  11.054  22.070  0.00  0.00    +0.000 A 
ATOM     24  C   UNL     1       0.185  11.168  20.769  0.00  0.00    +0.000 A 
ATOM     25  C   UNL     1       0.849  10.094  20.160  0.00  0.00    +0.000 A 
ATOM     26  C   UNL     1       1.028   8.877  20.836  0.00  0.00    +0.000 A 
ATOM     27  C   UNL     1       0.556   8.775  22.148  0.00  0.00    +0.000 A 
ATOM     28  C   UNL     1      -0.086   9.858  22.764  0.00  0.00    +0.000 A 
BRANCH  23  30
ATOM     29  C   UNL     1      -2.470  11.843  23.180  0.00  0.00    +0.000 C 
ATOM     30  C   UNL     1      -1.053  12.192  22.733  0.00  0.00    +0.000 C 
ENDBRANCH  23  30
ENDBRANCH  18  26
ENDBRANCH  17  21
ENDBRANCH   1  17
TORSDOF 6
ENDMDL
MODEL 6
REMARK VINA RESULT:      -8.2      3.786      8.220
REMARK  Name = 
REMARK  8 active torsions:
REMARK  status: ('A' for Active; 'I' for Inactive)
REMARK    1  A    between atoms: C_1  and  C_2
REMARK    2  A    between atoms: C_2  and  C_3
REMARK    3  A    between atoms: C_6  and  C_7
REMARK    4  A    between atoms: C_10  and  C_11
REMARK    5  A    between atoms: C_11  and  C_12
REMARK    6  A    between atoms: C_12  and  C_13
REMARK    7  A    between atoms: N_24  and  C_25
REMARK    8  A    between atoms: C_25  and  C_26
REMARK                            x       y       z     vdW  Elec       q    Type
REMARK                         _______ _______ _______ _____ _____    ______ ____
ROOT
ATOM      1  C   UNL     1       1.449   5.480  20.260  0.00  0.00    +0.000 C 
ENDROOT
BRANCH   1   2
ATOM      2  C   UNL     1       2.340   4.615  19.375  0.00  0.00    +0.000 C 
ATOM      3  O   UNL     1       1.932   3.603  18.824  0.00  0.00    +0.000 OA
ATOM      4  N   UNL     1       3.592   5.159  19.252  0.00  0.00    +0.000 N 
ATOM      5  C   UNL     1       4.614   4.532  18.569  0.00  0.00    +0.000 A 
ATOM      6  N   UNL     1       5.751   4.326  19.217  0.00  0.00    +0.000 NA
ATOM      7  C   UNL     1       6.577   5.321  18.756  0.00  0.00    +0.000 A 
ATOM      8  C   UNL     1       7.764   5.822  19.286  0.00  0.00    +0.000 A 
ATOM      9  C   UNL     1       8.299   6.983  18.716  0.00  0.00    +0.000 A 
ATOM     10  C   UNL     1       7.691   7.599  17.616  0.00  0.00    +0.000 A 
ATOM     11  C   UNL     1       6.565   7.041  17.002  0.00  0.00    +0.000 A 
ATOM     12  C   UNL     1       6.032   5.911  17.615  0.00  0.00    +0.000 A 
ATOM     13  N   UNL     1       4.965   5.076  17.341  0.00  0.00    +0.000 N 
ATOM     14  H   UNL     1       3.941   5.633  20.077  0.00  0.00    +0.000 HD
BRANCH  13  15
ATOM     15  C   UNL     1       4.740   4.469  16.042  0.00  0.00    +0.000 C 
ATOM     16  C   UNL     1       5.979   3.860  15.421  0.00  0.00    +0.000 C 
ENDBRANCH  13  15
ENDBRANCH   1   2
BRANCH   1  17
ATOM     17  C   UNL     1       2.143   6.680  20.896  0.00  0.00    +0.000 C 
BRANCH  17  21
ATOM     18  C   UNL     1       0.247   9.715  20.820  0.00  0.00    +0.000 A 
ATOM     19  N   UNL     1       0.811   9.762  19.596  0.00  0.00    +0.000 NA
ATOM     20  O   UNL     1       1.583   8.605  19.545  0.00  0.00    +0.000 OA
ATOM     21  C   UNL     1       1.427   7.967  20.736  0.00  0.00    +0.000 A 
ATOM     22  N   UNL     1       0.626   8.607  21.563  0.00  0.00    +0.000 NA
BRANCH  18  26
ATOM     23  C   UNL     1      -2.529  12.655  22.284  0.00  0.00    +0.000 A 
ATOM     24  C   UNL     1      -2.196  12.604  20.927  0.00  0.00    +0.000 A 
ATOM     25  C   UNL     1      -1.280  11.655  20.451  0.00  0.00    +0.000 A 
ATOM     26  C   UNL     1      -0.677  10.733  21.319  0.00  0.00    +0.000 A 
ATOM     27  C   UNL     1      -0.988  10.806  22.681  0.00  0.00    +0.000 A 
ATOM     28  C   UNL     1      -1.886  11.770  23.159  0.00  0.00    +0.000 A 
BRANCH  23  30
ATOM     29  C   UNL     1      -3.768  13.572  24.317  0.00  0.00    +0.000 C 
ATOM     30  C   UNL     1      -3.533  13.654  22.811  0.00  0.00    +0.000 C 
ENDBRANCH  23  30
ENDBRANCH  18  26
ENDBRANCH  17  21
ENDBRANCH   1  17
TORSDOF 6
ENDMDL
MODEL 7
REMARK VINA RESULT:      -8.1      4.972      8.289
REMARK  Name = 
REMARK  8 active torsions:
REMARK  status: ('A' for Active; 'I' for Inactive)
REMARK    1  A    between atoms: C_1  and  C_2
REMARK    2  A    between atoms: C_2  and  C_3
REMARK    3  A    between atoms: C_6  and  C_7
REMARK    4  A    between atoms: C_10  and  C_11
REMARK    5  A    between atoms: C_11  and  C_12
REMARK    6  A    between atoms: C_12  and  C_13
REMARK    7  A    between atoms: N_24  and  C_25
REMARK    8  A    between atoms: C_25  and  C_26
REMARK                            x       y       z     vdW  Elec       q    Type
REMARK                         _______ _______ _______ _____ _____    ______ ____
ROOT
ATOM      1  C   UNL     1       1.614   6.326  20.712  0.00  0.00    +0.000 C 
ENDROOT
BRANCH   1   2
ATOM      2  C   UNL     1       2.382   5.017  20.563  0.00  0.00    +0.000 C 
ATOM      3  O   UNL     1       2.093   4.012  21.197  0.00  0.00    +0.000 OA
ATOM      4  N   UNL     1       3.361   5.123  19.611  0.00  0.00    +0.000 N 
ATOM      5  C   UNL     1       4.252   4.105  19.338  0.00  0.00    +0.000 A 
ATOM      6  N   UNL     1       5.545   4.385  19.406  0.00  0.00    +0.000 NA
ATOM      7  C   UNL     1       5.917   4.535  18.093  0.00  0.00    +0.000 A 
ATOM      8  C   UNL     1       7.044   5.140  17.541  0.00  0.00    +0.000 A 
ATOM      9  C   UNL     1       7.074   5.333  16.155  0.00  0.00    +0.000 A 
ATOM     10  C   UNL     1       6.029   4.889  15.337  0.00  0.00    +0.000 A 
ATOM     11  C   UNL     1       4.947   4.177  15.865  0.00  0.00    +0.000 A 
ATOM     12  C   UNL     1       4.923   4.037  17.249  0.00  0.00    +0.000 A 
ATOM     13  N   UNL     1       4.068   3.422  18.144  0.00  0.00    +0.000 N 
ATOM     14  H   UNL     1       3.813   6.029  19.553  0.00  0.00    +0.000 HD
BRANCH  13  15
ATOM     15  C   UNL     1       3.619   2.050  18.005  0.00  0.00    +0.000 C 
ATOM     16  C   UNL     1       2.179   1.825  18.413  0.00  0.00    +0.000 C 
ENDBRANCH  13  15
ENDBRANCH   1   2
BRANCH   1  17
ATOM     17  C   UNL     1       2.156   7.488  19.887  0.00  0.00    +0.000 C 
BRANCH  17  21
ATOM     18  C   UNL     1       0.074  10.358  20.380  0.00  0.00    +0.000 A 
ATOM     19  N   UNL     1       0.588  10.648  19.168  0.00  0.00    +0.000 NA
ATOM     20  O   UNL     1       1.427   9.571  18.900  0.00  0.00    +0.000 OA
ATOM     21  C   UNL     1       1.356   8.732  19.968  0.00  0.00    +0.000 A 
ATOM     22  N   UNL     1       0.548   9.168  20.912  0.00  0.00    +0.000 NA
BRANCH  18  26
ATOM     23  C   UNL     1      -2.715  12.926  22.410  0.00  0.00    +0.000 A 
ATOM     24  C   UNL     1      -1.908  12.041  23.130  0.00  0.00    +0.000 A 
ATOM     25  C   UNL     1      -1.008  11.193  22.468  0.00  0.00    +0.000 A 
ATOM     26  C   UNL     1      -0.892  11.211  21.070  0.00  0.00    +0.000 A 
ATOM     27  C   UNL     1      -1.723  12.075  20.349  0.00  0.00    +0.000 A 
ATOM     28  C   UNL     1      -2.639  12.905  21.010  0.00  0.00    +0.000 A 
BRANCH  23  30
ATOM     29  C   UNL     1      -3.348  14.113  24.577  0.00  0.00    +0.000 C 
ATOM     30  C   UNL     1      -3.672  13.865  23.107  0.00  0.00    +0.000 C 
ENDBRANCH  23  30
ENDBRANCH  18  26
ENDBRANCH  17  21
ENDBRANCH   1  17
TORSDOF 6
ENDMDL
MODEL 8
REMARK VINA RESULT:      -8.1      4.955      8.283
REMARK  Name = 
REMARK  8 active torsions:
REMARK  status: ('A' for Active; 'I' for Inactive)
REMARK    1  A    between atoms: C_1  and  C_2
REMARK    2  A    between atoms: C_2  and  C_3
REMARK    3  A    between atoms: C_6  and  C_7
REMARK    4  A    between atoms: C_10  and  C_11
REMARK    5  A    between atoms: C_11  and  C_12
REMARK    6  A    between atoms: C_12  and  C_13
REMARK    7  A    between atoms: N_24  and  C_25
REMARK    8  A    between atoms: C_25  and  C_26
REMARK                            x       y       z     vdW  Elec       q    Type
REMARK                         _______ _______ _______ _____ _____    ______ ____
ROOT
ATOM      1  C   UNL     1       1.771   6.103  20.573  0.00  0.00    +0.000 C 
ENDROOT
BRANCH   1   2
ATOM      2  C   UNL     1       2.569   4.820  20.371  0.00  0.00    +0.000 C 
ATOM      3  O   UNL     1       2.311   3.786  20.971  0.00  0.00    +0.000 OA
ATOM      4  N   UNL     1       3.536   4.983  19.414  0.00  0.00    +0.000 N 
ATOM      5  C   UNL     1       4.448   3.997  19.098  0.00  0.00    +0.000 A 
ATOM      6  N   UNL     1       5.735   4.306  19.164  0.00  0.00    +0.000 NA
ATOM      7  C   UNL     1       6.090   4.511  17.853  0.00  0.00    +0.000 A 
ATOM      8  C   UNL     1       7.197   5.163  17.313  0.00  0.00    +0.000 A 
ATOM      9  C   UNL     1       7.209   5.405  15.935  0.00  0.00    +0.000 A 
ATOM     10  C   UNL     1       6.167   4.964  15.111  0.00  0.00    +0.000 A 
ATOM     11  C   UNL     1       5.107   4.207  15.623  0.00  0.00    +0.000 A 
ATOM     12  C   UNL     1       5.101   4.019  17.001  0.00  0.00    +0.000 A 
ATOM     13  N   UNL     1       4.269   3.352  17.882  0.00  0.00    +0.000 N 
ATOM     14  H   UNL     1       3.965   5.901  19.384  0.00  0.00    +0.000 HD
BRANCH  13  15
ATOM     15  C   UNL     1       3.853   1.975  17.699  0.00  0.00    +0.000 C 
ATOM     16  C   UNL     1       3.238   1.346  18.931  0.00  0.00    +0.000 C 
ENDBRANCH  13  15
ENDBRANCH   1   2
BRANCH   1  17
ATOM     17  C   UNL     1       2.267   7.302  19.772  0.00  0.00    +0.000 C 
BRANCH  17  21
ATOM     18  C   UNL     1       0.192  10.135  20.466  0.00  0.00    +0.000 A 
ATOM     19  N   UNL     1       0.579  10.433  19.209  0.00  0.00    +0.000 NA
ATOM     20  O   UNL     1       1.408   9.370  18.861  0.00  0.00    +0.000 OA
ATOM     21  C   UNL     1       1.456   8.532  19.931  0.00  0.00    +0.000 A 
ATOM     22  N   UNL     1       0.736   8.955  20.950  0.00  0.00    +0.000 NA
BRANCH  18  26
ATOM     23  C   UNL     1      -2.542  12.545  22.751  0.00  0.00    +0.000 A 
ATOM     24  C   UNL     1      -2.330  12.801  21.392  0.00  0.00    +0.000 A 
ATOM     25  C   UNL     1      -1.429  12.025  20.650  0.00  0.00    +0.000 A 
ATOM     26  C   UNL     1      -0.718  10.972  21.247  0.00  0.00    +0.000 A 
ATOM     27  C   UNL     1      -0.908  10.737  22.612  0.00  0.00    +0.000 A 
ATOM     28  C   UNL     1      -1.792  11.528  23.359  0.00  0.00    +0.000 A 
BRANCH  23  30
ATOM     29  C   UNL     1      -4.329  12.537  24.571  0.00  0.00    +0.000 C 
ATOM     30  C   UNL     1      -3.528  13.354  23.561  0.00  0.00    +0.000 C 
ENDBRANCH  23  30
ENDBRANCH  18  26
ENDBRANCH  17  21
ENDBRANCH   1  17
TORSDOF 6
ENDMDL
MODEL 9
REMARK VINA RESULT:      -8.0      5.154      8.814
REMARK  Name = 
REMARK  8 active torsions:
REMARK  status: ('A' for Active; 'I' for Inactive)
REMARK    1  A    between atoms: C_1  and  C_2
REMARK    2  A    between atoms: C_2  and  C_3
REMARK    3  A    between atoms: C_6  and  C_7
REMARK    4  A    between atoms: C_10  and  C_11
REMARK    5  A    between atoms: C_11  and  C_12
REMARK    6  A    between atoms: C_12  and  C_13
REMARK    7  A    between atoms: N_24  and  C_25
REMARK    8  A    between atoms: C_25  and  C_26
REMARK                            x       y       z     vdW  Elec       q    Type
REMARK                         _______ _______ _______ _____ _____    ______ ____
ROOT
ATOM      1  C   UNL     1       1.904   7.821  20.091  0.00  0.00    +0.000 C 
ENDROOT
BRANCH   1   2
ATOM      2  C   UNL     1       2.188   6.324  20.026  0.00  0.00    +0.000 C 
ATOM      3  O   UNL     1       1.471   5.496  20.569  0.00  0.00    +0.000 OA
ATOM      4  N   UNL     1       3.286   6.062  19.250  0.00  0.00    +0.000 N 
ATOM      5  C   UNL     1       3.804   4.793  19.092  0.00  0.00    +0.000 A 
ATOM      6  N   UNL     1       5.085   4.611  19.379  0.00  0.00    +0.000 NA
ATOM      7  C   UNL     1       5.697   4.591  18.150  0.00  0.00    +0.000 A 
ATOM      8  C   UNL     1       7.038   4.756  17.811  0.00  0.00    +0.000 A 
ATOM      9  C   UNL     1       7.360   4.892  16.455  0.00  0.00    +0.000 A 
ATOM     10  C   UNL     1       6.376   4.815  15.464  0.00  0.00    +0.000 A 
ATOM     11  C   UNL     1       5.044   4.533  15.783  0.00  0.00    +0.000 A 
ATOM     12  C   UNL     1       4.746   4.445  17.139  0.00  0.00    +0.000 A 
ATOM     13  N   UNL     1       3.596   4.186  17.861  0.00  0.00    +0.000 N 
ATOM     14  H   UNL     1       4.026   6.755  19.297  0.00  0.00    +0.000 HD
BRANCH  13  15
ATOM     15  C   UNL     1       2.732   3.049  17.605  0.00  0.00    +0.000 C 
ATOM     16  C   UNL     1       2.944   1.886  18.551  0.00  0.00    +0.000 C 
ENDBRANCH  13  15
ENDBRANCH   1   2
BRANCH   1  17
ATOM     17  C   UNL     1       1.607   8.360  21.487  0.00  0.00    +0.000 C 
BRANCH  17  21
ATOM     18  C   UNL     1      -0.638  11.112  21.930  0.00  0.00    +0.000 A 
ATOM     19  N   UNL     1      -0.907  10.796  20.647  0.00  0.00    +0.000 NA
ATOM     20  O   UNL     1      -0.058   9.724  20.388  0.00  0.00    +0.000 OA
ATOM     21  C   UNL     1       0.651   9.490  21.524  0.00  0.00    +0.000 A 
ATOM     22  N   UNL     1       0.345  10.318  22.503  0.00  0.00    +0.000 NA
BRANCH  18  26
ATOM     23  C   UNL     1      -2.599  14.247  24.126  0.00  0.00    +0.000 A 
ATOM     24  C   UNL     1      -3.243  13.027  23.899  0.00  0.00    +0.000 A 
ATOM     25  C   UNL     1      -2.609  12.009  23.171  0.00  0.00    +0.000 A 
ATOM     26  C   UNL     1      -1.317  12.186  22.654  0.00  0.00    +0.000 A 
ATOM     27  C   UNL     1      -0.688  13.418  22.855  0.00  0.00    +0.000 A 
ATOM     28  C   UNL     1      -1.331  14.443  23.563  0.00  0.00    +0.000 A 
BRANCH  23  30
ATOM     29  C   UNL     1      -4.488  15.956  24.268  0.00  0.00    +0.000 C 
ATOM     30  C   UNL     1      -3.255  15.346  24.929  0.00  0.00    +0.000 C 
ENDBRANCH  23  30
ENDBRANCH  18  26
ENDBRANCH  17  21
ENDBRANCH   1  17
TORSDOF 6
ENDMDL
