MODEL 1
REMARK VINA RESULT:      -8.5      0.000      0.000
REMARK  Name = 
REMARK  6 active torsions:
REMARK  status: ('A' for Active; 'I' for Inactive)
REMARK    1  A    between atoms: N_3  and  C_4
REMARK    2  A    between atoms: N_10  and  C_11
REMARK    3  A    between atoms: C_14  and  C_15
REMARK    4  A    between atoms: N_17  and  C_18
REMARK    5  A    between atoms: C_18  and  C_19
REMARK    6  A    between atoms: C_19  and  C_20
REMARK                            x       y       z     vdW  Elec       q    Type
REMARK                         _______ _______ _______ _____ _____    ______ ____
ROOT
ATOM      1  C   UNL     1       7.473   7.629  17.745  0.00  0.00    +0.000 A 
ATOM      2  C   UNL     1       8.044   6.621  18.530  0.00  0.00    +0.000 A 
ATOM      3  C   UNL     1       7.373   5.417  18.767  0.00  0.00    +0.000 A 
ATOM      4  C   UNL     1       6.110   5.206  18.218  0.00  0.00    +0.000 A 
ATOM      5  C   UNL     1       5.509   6.227  17.473  0.00  0.00    +0.000 A 
ATOM      6  C   UNL     1       6.190   7.428  17.230  0.00  0.00    +0.000 A 
ENDROOT
BRANCH   1  10
ATOM      7  O   UNL     1       9.025   9.329  19.529  0.00  0.00    +0.000 OA
ATOM      8  C   UNL     1       8.819   9.640  18.360  0.00  0.00    +0.000 C 
ATOM      9  N   UNL     1       9.216  10.838  17.795  0.00  0.00    +0.000 N 
ATOM     10  N   UNL     1       8.121   8.853  17.455  0.00  0.00    +0.000 N 
ATOM     11  H   UNL     1       8.817  11.076  16.900  0.00  0.00    +0.000 HD
ATOM     12  H   UNL     1       8.125   9.149  16.491  0.00  0.00    +0.000 HD
BRANCH   9  13
ATOM     13  C   UNL     1       9.870  11.888  18.483  0.00  0.00    +0.000 A 
ATOM     14  C   UNL     1       9.335  13.173  18.620  0.00  0.00    +0.000 A 
ATOM     15  C   UNL     1      10.068  14.188  19.238  0.00  0.00    +0.000 A 
ATOM     16  C   UNL     1      11.338  13.926  19.735  0.00  0.00    +0.000 A 
ATOM     17  C   UNL     1      11.867  12.641  19.636  0.00  0.00    +0.000 A 
ATOM     18  C   UNL     1      11.131  11.622  19.023  0.00  0.00    +0.000 A 
ENDBRANCH   9  13
ENDBRANCH   1  10
BRANCH   4  19
ATOM     19  C   UNL     1       5.371   3.930  18.419  0.00  0.00    +0.000 C 
ATOM     20  O   UNL     1       5.286   3.446  19.542  0.00  0.00    +0.000 OA
ATOM     21  N   UNL     1       4.769   3.378  17.304  0.00  0.00    +0.000 N 
ATOM     22  H   UNL     1       4.715   3.922  16.452  0.00  0.00    +0.000 HD
BRANCH  21  23
ATOM     23  C   UNL     1       3.941   2.189  17.439  0.00  0.00    +0.000 C 
BRANCH  23  24
ATOM     24  C   UNL     1       2.447   2.514  17.506  0.00  0.00    +0.000 C 
BRANCH  24  25
ATOM     25  C   UNL     1       2.016   2.991  18.874  0.00  0.00    +0.000 A 
ATOM     26  C   UNL     1       1.898   2.077  19.932  0.00  0.00    +0.000 A 
ATOM     27  C   UNL     1       1.535   2.505  21.212  0.00  0.00    +0.000 A 
ATOM     28  C   UNL     1       1.289   3.854  21.452  0.00  0.00    +0.000 A 
ATOM     29  C   UNL     1       1.394   4.762  20.404  0.00  0.00    +0.000 A 
ATOM     30  F   UNL     1       1.152   6.060  20.632  0.00  0.00    +0.000 F 
ATOM     31  C   UNL     1       1.752   4.346  19.124  0.00  0.00    +0.000 A 
ENDBRANCH  24  25
ENDBRANCH  23  24
ENDBRANCH  21  23
ENDBRANCH   4  19
TORSDOF 6
ENDMDL
MODEL 2
REMARK VINA RESULT:      -8.2      1.292      1.503
REMARK  Name = 
REMARK  6 active torsions:
REMARK  status: ('A' for Active; 'I' for Inactive)
REMARK    1  A    between atoms: N_3  and  C_4
REMARK    2  A    between atoms: N_10  and  C_11
REMARK    3  A    between atoms: C_14  and  C_15
REMARK    4  A    between atoms: N_17  and  C_18
REMARK    5  A    between atoms: C_18  and  C_19
REMARK    6  A    between atoms: C_19  and  C_20
REMARK                            x       y       z     vdW  Elec       q    Type
REMARK                         _______ _______ _______ _____ _____    ______ ____
ROOT
ATOM      1  C   UNL     1       7.907   7.234  18.440  0.00  0.00    +0.000 A 
ATOM      2  C   UNL     1       7.861   5.995  19.087  0.00  0.00    +0.000 A 
ATOM      3  C   UNL     1       7.048   4.959  18.614  0.00  0.00    +0.000 A 
ATOM      4  C   UNL     1       6.264   5.155  17.479  0.00  0.00    +0.000 A 
ATOM      5  C   UNL     1       6.264   6.407  16.856  0.00  0.00    +0.000 A 
ATOM      6  C   UNL     1       7.088   7.439  17.328  0.00  0.00    +0.000 A 
ENDROOT
BRANCH   1  10
ATOM      7  O   UNL     1       7.850  10.020  17.589  0.00  0.00    +0.000 OA
ATOM      8  C   UNL     1       8.680   9.608  18.394  0.00  0.00    +0.000 C 
ATOM      9  N   UNL     1       9.706  10.379  18.910  0.00  0.00    +0.000 N 
ATOM     10  N   UNL     1       8.731   8.305  18.864  0.00  0.00    +0.000 N 
ATOM     11  H   UNL     1      10.444   9.891  19.394  0.00  0.00    +0.000 HD
ATOM     12  H   UNL     1       9.372   8.114  19.619  0.00  0.00    +0.000 HD
BRANCH   9  13
ATOM     13  C   UNL     1       9.975  11.723  18.557  0.00  0.00    +0.000 A 
ATOM     14  C   UNL     1      10.829  12.090  17.513  0.00  0.00    +0.000 A 
ATOM     15  C   UNL     1      11.119  13.435  17.269  0.00  0.00    +0.000 A 
ATOM     16  C   UNL     1      10.549  14.424  18.060  0.00  0.00    +0.000 A 
ATOM     17  C   UNL     1       9.670  14.072  19.080  0.00  0.00    +0.000 A 
ATOM     18  C   UNL     1       9.374  12.727  19.321  0.00  0.00    +0.000 A 
ENDBRANCH   9  13
ENDBRANCH   1  10
BRANCH   4  19
ATOM     19  C   UNL     1       5.406   4.073  16.924  0.00  0.00    +0.000 C 
ATOM     20  O   UNL     1       5.395   3.863  15.717  0.00  0.00    +0.000 OA
ATOM     21  N   UNL     1       4.688   3.319  17.835  0.00  0.00    +0.000 N 
ATOM     22  H   UNL     1       4.888   3.418  18.822  0.00  0.00    +0.000 HD
BRANCH  21  23
ATOM     23  C   UNL     1       3.910   2.178  17.379  0.00  0.00    +0.000 C 
BRANCH  23  24
ATOM     24  C   UNL     1       2.409   2.352  17.621  0.00  0.00    +0.000 C 
BRANCH  24  25
ATOM     25  C   UNL     1       2.109   3.236  18.808  0.00  0.00    +0.000 A 
ATOM     26  C   UNL     1       1.807   2.664  20.053  0.00  0.00    +0.000 A 
ATOM     27  C   UNL     1       1.560   3.465  21.171  0.00  0.00    +0.000 A 
ATOM     28  C   UNL     1       1.618   4.852  21.060  0.00  0.00    +0.000 A 
ATOM     29  C   UNL     1       1.907   5.425  19.825  0.00  0.00    +0.000 A 
ATOM     30  F   UNL     1       1.958   6.759  19.716  0.00  0.00    +0.000 F 
ATOM     31  C   UNL     1       2.150   4.635  18.704  0.00  0.00    +0.000 A 
ENDBRANCH  24  25
ENDBRANCH  23  24
ENDBRANCH  21  23
ENDBRANCH   4  19
TORSDOF 6
ENDMDL
MODEL 3
REMARK VINA RESULT:      -8.1      5.930      8.489
REMARK  Name = 
REMARK  6 active torsions:
REMARK  status: ('A' for Active; 'I' for Inactive)
REMARK    1  A    between atoms: N_3  and  C_4
REMARK    2  A    between atoms: N_10  and  C_11
REMARK    3  A    between atoms: C_14  and  C_15
REMARK    4  A    between atoms: N_17  and  C_18
REMARK    5  A    between atoms: C_18  and  C_19
REMARK    6  A    between atoms: C_19  and  C_20
REMARK                            x       y       z     vdW  Elec       q    Type
REMARK                         _______ _______ _______ _____ _____    ______ ____
ROOT
ATOM      1  C   UNL     1       1.218   9.352  18.996  0.00  0.00    +0.000 A 
ATOM      2  C   UNL     1       1.965   9.253  17.817  0.00  0.00    +0.000 A 
ATOM      3  C   UNL     1       2.843   8.185  17.601  0.00  0.00    +0.000 A 
ATOM      4  C   UNL     1       2.987   7.196  18.572  0.00  0.00    +0.000 A 
ATOM      5  C   UNL     1       2.283   7.314  19.776  0.00  0.00    +0.000 A 
ATOM      6  C   UNL     1       1.397   8.380  19.984  0.00  0.00    +0.000 A 
ENDROOT
BRANCH   1  10
ATOM      7  O   UNL     1      -1.653   9.409  18.507  0.00  0.00    +0.000 OA
ATOM      8  C   UNL     1      -1.057  10.380  18.963  0.00  0.00    +0.000 C 
ATOM      9  N   UNL     1      -1.649  11.605  19.210  0.00  0.00    +0.000 N 
ATOM     10  N   UNL     1       0.300  10.397  19.252  0.00  0.00    +0.000 N 
ATOM     11  H   UNL     1      -1.032  12.383  19.384  0.00  0.00    +0.000 HD
ATOM     12  H   UNL     1       0.654  11.204  19.743  0.00  0.00    +0.000 HD
BRANCH   9  13
ATOM     13  C   UNL     1      -2.998  11.930  18.936  0.00  0.00    +0.000 A 
ATOM     14  C   UNL     1      -3.846  12.551  19.859  0.00  0.00    +0.000 A 
ATOM     15  C   UNL     1      -5.192  12.769  19.556  0.00  0.00    +0.000 A 
ATOM     16  C   UNL     1      -5.700  12.379  18.323  0.00  0.00    +0.000 A 
ATOM     17  C   UNL     1      -4.857  11.792  17.383  0.00  0.00    +0.000 A 
ATOM     18  C   UNL     1      -3.508  11.578  17.683  0.00  0.00    +0.000 A 
ENDBRANCH   9  13
ENDBRANCH   1  10
BRANCH   4  19
ATOM     19  C   UNL     1       3.886   6.029  18.374  0.00  0.00    +0.000 C 
ATOM     20  O   UNL     1       4.750   5.776  19.206  0.00  0.00    +0.000 OA
ATOM     21  N   UNL     1       3.656   5.249  17.255  0.00  0.00    +0.000 N 
ATOM     22  H   UNL     1       2.813   5.398  16.715  0.00  0.00    +0.000 HD
BRANCH  21  23
ATOM     23  C   UNL     1       4.424   4.031  17.048  0.00  0.00    +0.000 C 
BRANCH  23  24
ATOM     24  C   UNL     1       3.605   2.764  17.304  0.00  0.00    +0.000 C 
BRANCH  24  25
ATOM     25  C   UNL     1       2.766   2.857  18.557  0.00  0.00    +0.000 A 
ATOM     26  C   UNL     1       1.418   3.240  18.474  0.00  0.00    +0.000 A 
ATOM     27  C   UNL     1       0.617   3.298  19.618  0.00  0.00    +0.000 A 
ATOM     28  C   UNL     1       1.152   2.967  20.860  0.00  0.00    +0.000 A 
ATOM     29  C   UNL     1       2.489   2.596  20.948  0.00  0.00    +0.000 A 
ATOM     30  F   UNL     1       3.006   2.283  22.144  0.00  0.00    +0.000 F 
ATOM     31  C   UNL     1       3.298   2.540  19.815  0.00  0.00    +0.000 A 
ENDBRANCH  24  25
ENDBRANCH  23  24
ENDBRANCH  21  23
ENDBRANCH   4  19
TORSDOF 6
ENDMDL
MODEL 4
REMARK VINA RESULT:      -8.1      6.218      7.392
REMARK  Name = 
REMARK  6 active torsions:
REMARK  status: ('A' for Active; 'I' for Inactive)
REMARK    1  A    between atoms: N_3  and  C_4
REMARK    2  A    between atoms: N_10  and  C_11
REMARK    3  A    between atoms: C_14  and  C_15
REMARK    4  A    between atoms: N_17  and  C_18
REMARK    5  A    between atoms: C_18  and  C_19
REMARK    6  A    between atoms: C_19  and  C_20
REMARK                            x       y       z     vdW  Elec       q    Type
REMARK                         _______ _______ _______ _____ _____    ______ ____
ROOT
ATOM      1  C   UNL     1       0.912   9.552  19.370  0.00  0.00    +0.000 A 
ATOM      2  C   UNL     1       1.251   8.516  20.248  0.00  0.00    +0.000 A 
ATOM      3  C   UNL     1       2.148   7.510  19.874  0.00  0.00    +0.000 A 
ATOM      4  C   UNL     1       2.719   7.527  18.602  0.00  0.00    +0.000 A 
ATOM      5  C   UNL     1       2.346   8.530  17.699  0.00  0.00    +0.000 A 
ATOM      6  C   UNL     1       1.456   9.541  18.084  0.00  0.00    +0.000 A 
ENDROOT
BRANCH   1  10
ATOM      7  O   UNL     1       1.372  11.797  21.168  0.00  0.00    +0.000 OA
ATOM      8  C   UNL     1       0.294  11.632  20.605  0.00  0.00    +0.000 C 
ATOM      9  N   UNL     1      -0.820  12.423  20.819  0.00  0.00    +0.000 N 
ATOM     10  N   UNL     1       0.031  10.605  19.711  0.00  0.00    +0.000 N 
ATOM     11  H   UNL     1      -1.700  12.076  20.469  0.00  0.00    +0.000 HD
ATOM     12  H   UNL     1      -0.845  10.644  19.212  0.00  0.00    +0.000 HD
BRANCH   9  13
ATOM     13  C   UNL     1      -0.895  13.496  21.739  0.00  0.00    +0.000 A 
ATOM     14  C   UNL     1      -0.464  14.794  21.448  0.00  0.00    +0.000 A 
ATOM     15  C   UNL     1      -0.488  15.789  22.428  0.00  0.00    +0.000 A 
ATOM     16  C   UNL     1      -0.954  15.498  23.704  0.00  0.00    +0.000 A 
ATOM     17  C   UNL     1      -1.419  14.218  23.995  0.00  0.00    +0.000 A 
ATOM     18  C   UNL     1      -1.401  13.223  23.013  0.00  0.00    +0.000 A 
ENDBRANCH   9  13
ENDBRANCH   1  10
BRANCH   4  19
ATOM     19  C   UNL     1       3.698   6.495  18.169  0.00  0.00    +0.000 C 
ATOM     20  O   UNL     1       4.055   6.446  16.998  0.00  0.00    +0.000 OA
ATOM     21  N   UNL     1       4.196   5.659  19.152  0.00  0.00    +0.000 N 
ATOM     22  H   UNL     1       4.009   5.874  20.124  0.00  0.00    +0.000 HD
BRANCH  21  23
ATOM     23  C   UNL     1       5.235   4.694  18.828  0.00  0.00    +0.000 C 
BRANCH  23  24
ATOM     24  C   UNL     1       4.869   3.268  19.246  0.00  0.00    +0.000 C 
BRANCH  24  25
ATOM     25  C   UNL     1       3.385   3.087  19.461  0.00  0.00    +0.000 A 
ATOM     26  C   UNL     1       2.514   3.046  18.361  0.00  0.00    +0.000 A 
ATOM     27  C   UNL     1       1.143   2.844  18.538  0.00  0.00    +0.000 A 
ATOM     28  C   UNL     1       0.624   2.675  19.819  0.00  0.00    +0.000 A 
ATOM     29  C   UNL     1       1.481   2.726  20.913  0.00  0.00    +0.000 A 
ATOM     30  F   UNL     1       0.982   2.569  22.146  0.00  0.00    +0.000 F 
ATOM     31  C   UNL     1       2.849   2.930  20.748  0.00  0.00    +0.000 A 
ENDBRANCH  24  25
ENDBRANCH  23  24
ENDBRANCH  21  23
ENDBRANCH   4  19
TORSDOF 6
ENDMDL
MODEL 5
REMARK VINA RESULT:      -8.0      6.241      7.973
REMARK  Name = 
REMARK  6 active torsions:
REMARK  status: ('A' for Active; 'I' for Inactive)
REMARK    1  A    between atoms: N_3  and  C_4
REMARK    2  A    between atoms: N_10  and  C_11
REMARK    3  A    between atoms: C_14  and  C_15
REMARK    4  A    between atoms: N_17  and  C_18
REMARK    5  A    between atoms: C_18  and  C_19
REMARK    6  A    between atoms: C_19  and  C_20
REMARK                            x       y       z     vdW  Elec       q    Type
REMARK                         _______ _______ _______ _____ _____    ______ ____
ROOT
ATOM      1  C   UNL     1       1.011   9.483  19.425  0.00  0.00    +0.000 A 
ATOM      2  C   UNL     1       1.644   9.235  18.202  0.00  0.00    +0.000 A 
ATOM      3  C   UNL     1       2.382   8.066  17.990  0.00  0.00    +0.000 A 
ATOM      4  C   UNL     1       2.499   7.124  19.010  0.00  0.00    +0.000 A 
ATOM      5  C   UNL     1       1.912   7.387  20.253  0.00  0.00    +0.000 A 
ATOM      6  C   UNL     1       1.165   8.555  20.457  0.00  0.00    +0.000 A 
ENDROOT
BRANCH   1  10
ATOM      7  O   UNL     1       1.459  11.578  21.398  0.00  0.00    +0.000 OA
ATOM      8  C   UNL     1       0.478  11.585  20.662  0.00  0.00    +0.000 C 
ATOM      9  N   UNL     1      -0.542  12.516  20.741  0.00  0.00    +0.000 N 
ATOM     10  N   UNL     1       0.232  10.637  19.680  0.00  0.00    +0.000 N 
ATOM     11  H   UNL     1      -1.390  12.309  20.235  0.00  0.00    +0.000 HD
ATOM     12  H   UNL     1      -0.535  10.816  19.051  0.00  0.00    +0.000 HD
BRANCH   9  13
ATOM     13  C   UNL     1      -0.627  13.556  21.697  0.00  0.00    +0.000 A 
ATOM     14  C   UNL     1      -1.138  13.380  22.986  0.00  0.00    +0.000 A 
ATOM     15  C   UNL     1      -1.273  14.466  23.854  0.00  0.00    +0.000 A 
ATOM     16  C   UNL     1      -0.887  15.736  23.445  0.00  0.00    +0.000 A 
ATOM     17  C   UNL     1      -0.344  15.918  22.176  0.00  0.00    +0.000 A 
ATOM     18  C   UNL     1      -0.203  14.830  21.308  0.00  0.00    +0.000 A 
ENDBRANCH   9  13
ENDBRANCH   1  10
BRANCH   4  19
ATOM     19  C   UNL     1       3.250   5.854  18.822  0.00  0.00    +0.000 C 
ATOM     20  O   UNL     1       3.736   5.284  19.792  0.00  0.00    +0.000 OA
ATOM     21  N   UNL     1       3.316   5.356  17.533  0.00  0.00    +0.000 N 
ATOM     22  H   UNL     1       2.736   5.770  16.815  0.00  0.00    +0.000 HD
BRANCH  21  23
ATOM     23  C   UNL     1       3.942   4.067  17.284  0.00  0.00    +0.000 C 
BRANCH  23  24
ATOM     24  C   UNL     1       5.263   4.188  16.521  0.00  0.00    +0.000 C 
BRANCH  24  25
ATOM     25  C   UNL     1       6.221   5.161  17.167  0.00  0.00    +0.000 A 
ATOM     26  C   UNL     1       6.324   6.474  16.682  0.00  0.00    +0.000 A 
ATOM     27  C   UNL     1       7.180   7.398  17.288  0.00  0.00    +0.000 A 
ATOM     28  C   UNL     1       7.940   7.022  18.392  0.00  0.00    +0.000 A 
ATOM     29  C   UNL     1       7.849   5.720  18.871  0.00  0.00    +0.000 A 
ATOM     30  F   UNL     1       8.584   5.356  19.930  0.00  0.00    +0.000 F 
ATOM     31  C   UNL     1       7.003   4.790  18.271  0.00  0.00    +0.000 A 
ENDBRANCH  24  25
ENDBRANCH  23  24
ENDBRANCH  21  23
ENDBRANCH   4  19
TORSDOF 6
ENDMDL
MODEL 6
REMARK VINA RESULT:      -8.0      5.876      7.229
REMARK  Name = 
REMARK  6 active torsions:
REMARK  status: ('A' for Active; 'I' for Inactive)
REMARK    1  A    between atoms: N_3  and  C_4
REMARK    2  A    between atoms: N_10  and  C_11
REMARK    3  A    between atoms: C_14  and  C_15
REMARK    4  A    between atoms: N_17  and  C_18
REMARK    5  A    between atoms: C_18  and  C_19
REMARK    6  A    between atoms: C_19  and  C_20
REMARK                            x       y       z     vdW  Elec       q    Type
REMARK                         _______ _______ _______ _____ _____    ______ ____
ROOT
ATOM      1  C   UNL     1       1.175   9.217  19.185  0.00  0.00    +0.000 A 
ATOM      2  C   UNL     1       1.428   8.140  20.042  0.00  0.00    +0.000 A 
ATOM      3  C   UNL     1       2.329   7.129  19.691  0.00  0.00    +0.000 A 
ATOM      4  C   UNL     1       2.990   7.182  18.465  0.00  0.00    +0.000 A 
ATOM      5  C   UNL     1       2.704   8.227  17.580  0.00  0.00    +0.000 A 
ATOM      6  C   UNL     1       1.809   9.244  17.941  0.00  0.00    +0.000 A 
ENDROOT
BRANCH   1  10
ATOM      7  O   UNL     1       1.380  11.165  21.341  0.00  0.00    +0.000 OA
ATOM      8  C   UNL     1       0.425  11.154  20.570  0.00  0.00    +0.000 C 
ATOM      9  N   UNL     1      -0.672  11.988  20.686  0.00  0.00    +0.000 N 
ATOM     10  N   UNL     1       0.293  10.277  19.504  0.00  0.00    +0.000 N 
ATOM     11  H   UNL     1      -1.483  11.755  20.133  0.00  0.00    +0.000 HD
ATOM     12  H   UNL     1      -0.467  10.445  18.863  0.00  0.00    +0.000 HD
BRANCH   9  13
ATOM     13  C   UNL     1      -0.876  12.931  21.721  0.00  0.00    +0.000 A 
ATOM     14  C   UNL     1      -0.157  14.127  21.827  0.00  0.00    +0.000 A 
ATOM     15  C   UNL     1      -0.347  14.977  22.920  0.00  0.00    +0.000 A 
ATOM     16  C   UNL     1      -1.264  14.645  23.909  0.00  0.00    +0.000 A 
ATOM     17  C   UNL     1      -2.010  13.475  23.795  0.00  0.00    +0.000 A 
ATOM     18  C   UNL     1      -1.826  12.626  22.699  0.00  0.00    +0.000 A 
ENDBRANCH   9  13
ENDBRANCH   1  10
BRANCH   4  19
ATOM     19  C   UNL     1       3.976   6.144  18.062  0.00  0.00    +0.000 C 
ATOM     20  O   UNL     1       5.131   6.211  18.466  0.00  0.00    +0.000 OA
ATOM     21  N   UNL     1       3.505   5.113  17.270  0.00  0.00    +0.000 N 
ATOM     22  H   UNL     1       2.507   5.014  17.132  0.00  0.00    +0.000 HD
BRANCH  21  23
ATOM     23  C   UNL     1       4.381   4.005  16.922  0.00  0.00    +0.000 C 
BRANCH  23  24
ATOM     24  C   UNL     1       4.155   2.773  17.801  0.00  0.00    +0.000 C 
BRANCH  24  25
ATOM     25  C   UNL     1       3.004   2.948  18.764  0.00  0.00    +0.000 A 
ATOM     26  C   UNL     1       1.686   2.743  18.329  0.00  0.00    +0.000 A 
ATOM     27  C   UNL     1       0.611   2.866  19.213  0.00  0.00    +0.000 A 
ATOM     28  C   UNL     1       0.841   3.190  20.548  0.00  0.00    +0.000 A 
ATOM     29  C   UNL     1       2.145   3.404  20.982  0.00  0.00    +0.000 A 
ATOM     30  F   UNL     1       2.367   3.721  22.264  0.00  0.00    +0.000 F 
ATOM     31  C   UNL     1       3.223   3.288  20.107  0.00  0.00    +0.000 A 
ENDBRANCH  24  25
ENDBRANCH  23  24
ENDBRANCH  21  23
ENDBRANCH   4  19
TORSDOF 6
ENDMDL
MODEL 7
REMARK VINA RESULT:      -8.0      1.383      1.709
REMARK  Name = 
REMARK  6 active torsions:
REMARK  status: ('A' for Active; 'I' for Inactive)
REMARK    1  A    between atoms: N_3  and  C_4
REMARK    2  A    between atoms: N_10  and  C_11
REMARK    3  A    between atoms: C_14  and  C_15
REMARK    4  A    between atoms: N_17  and  C_18
REMARK    5  A    between atoms: C_18  and  C_19
REMARK    6  A    between atoms: C_19  and  C_20
REMARK                            x       y       z     vdW  Elec       q    Type
REMARK                         _______ _______ _______ _____ _____    ______ ____
ROOT
ATOM      1  C   UNL     1       8.121   7.613  18.455  0.00  0.00    +0.000 A 
ATOM      2  C   UNL     1       7.381   7.855  17.292  0.00  0.00    +0.000 A 
ATOM      3  C   UNL     1       6.571   6.865  16.727  0.00  0.00    +0.000 A 
ATOM      4  C   UNL     1       6.493   5.608  17.323  0.00  0.00    +0.000 A 
ATOM      5  C   UNL     1       7.269   5.340  18.456  0.00  0.00    +0.000 A 
ATOM      6  C   UNL     1       8.071   6.339  19.025  0.00  0.00    +0.000 A 
ENDROOT
BRANCH   1  10
ATOM      7  O   UNL     1       8.284  10.468  17.902  0.00  0.00    +0.000 OA
ATOM      8  C   UNL     1       8.995   9.933  18.747  0.00  0.00    +0.000 C 
ATOM      9  N   UNL     1       9.986  10.591  19.452  0.00  0.00    +0.000 N 
ATOM     10  N   UNL     1       8.935   8.588  19.079  0.00  0.00    +0.000 N 
ATOM     11  H   UNL     1      10.641  10.017  19.961  0.00  0.00    +0.000 HD
ATOM     12  H   UNL     1       9.475   8.288  19.876  0.00  0.00    +0.000 HD
BRANCH   9  13
ATOM     13  C   UNL     1      10.353  11.946  19.276  0.00  0.00    +0.000 A 
ATOM     14  C   UNL     1      10.645  12.512  18.030  0.00  0.00    +0.000 A 
ATOM     15  C   UNL     1      11.082  13.834  17.933  0.00  0.00    +0.000 A 
ATOM     16  C   UNL     1      11.220  14.608  19.078  0.00  0.00    +0.000 A 
ATOM     17  C   UNL     1      10.899  14.066  20.321  0.00  0.00    +0.000 A 
ATOM     18  C   UNL     1      10.455  12.744  20.419  0.00  0.00    +0.000 A 
ENDBRANCH   9  13
ENDBRANCH   1  10
BRANCH   4  19
ATOM     19  C   UNL     1       5.623   4.533  16.774  0.00  0.00    +0.000 C 
ATOM     20  O   UNL     1       6.100   3.686  16.027  0.00  0.00    +0.000 OA
ATOM     21  N   UNL     1       4.304   4.528  17.188  0.00  0.00    +0.000 N 
ATOM     22  H   UNL     1       4.024   5.134  17.949  0.00  0.00    +0.000 HD
BRANCH  21  23
ATOM     23  C   UNL     1       3.418   3.449  16.779  0.00  0.00    +0.000 C 
BRANCH  23  24
ATOM     24  C   UNL     1       3.399   2.290  17.778  0.00  0.00    +0.000 C 
BRANCH  24  25
ATOM     25  C   UNL     1       2.807   2.680  19.112  0.00  0.00    +0.000 A 
ATOM     26  C   UNL     1       3.385   2.210  20.302  0.00  0.00    +0.000 A 
ATOM     27  C   UNL     1       2.874   2.588  21.546  0.00  0.00    +0.000 A 
ATOM     28  C   UNL     1       1.780   3.447  21.618  0.00  0.00    +0.000 A 
ATOM     29  C   UNL     1       1.198   3.907  20.442  0.00  0.00    +0.000 A 
ATOM     30  F   UNL     1       0.142   4.729  20.509  0.00  0.00    +0.000 F 
ATOM     31  C   UNL     1       1.697   3.533  19.196  0.00  0.00    +0.000 A 
ENDBRANCH  24  25
ENDBRANCH  23  24
ENDBRANCH  21  23
ENDBRANCH   4  19
TORSDOF 6
ENDMDL
MODEL 8
REMARK VINA RESULT:      -8.0      6.084      8.672
REMARK  Name = 
REMARK  6 active torsions:
REMARK  status: ('A' for Active; 'I' for Inactive)
REMARK    1  A    between atoms: N_3  and  C_4
REMARK    2  A    between atoms: N_10  and  C_11
REMARK    3  A    between atoms: C_14  and  C_15
REMARK    4  A    between atoms: N_17  and  C_18
REMARK    5  A    between atoms: C_18  and  C_19
REMARK    6  A    between atoms: C_19  and  C_20
REMARK                            x       y       z     vdW  Elec       q    Type
REMARK                         _______ _______ _______ _____ _____    ______ ____
ROOT
ATOM      1  C   UNL     1       1.004   9.447  19.123  0.00  0.00    +0.000 A 
ATOM      2  C   UNL     1       1.274   8.455  20.071  0.00  0.00    +0.000 A 
ATOM      3  C   UNL     1       2.198   7.437  19.815  0.00  0.00    +0.000 A 
ATOM      4  C   UNL     1       2.867   7.398  18.593  0.00  0.00    +0.000 A 
ATOM      5  C   UNL     1       2.567   8.357  17.619  0.00  0.00    +0.000 A 
ATOM      6  C   UNL     1       1.647   9.381  17.885  0.00  0.00    +0.000 A 
ENDROOT
BRANCH   1  10
ATOM      7  O   UNL     1      -1.879   9.495  18.711  0.00  0.00    +0.000 OA
ATOM      8  C   UNL     1      -1.266  10.486  19.095  0.00  0.00    +0.000 C 
ATOM      9  N   UNL     1      -1.845  11.727  19.288  0.00  0.00    +0.000 N 
ATOM     10  N   UNL     1       0.098  10.512  19.345  0.00  0.00    +0.000 N 
ATOM     11  H   UNL     1      -1.220  12.510  19.400  0.00  0.00    +0.000 HD
ATOM     12  H   UNL     1       0.469  11.342  19.779  0.00  0.00    +0.000 HD
BRANCH   9  13
ATOM     13  C   UNL     1      -3.200  12.044  19.033  0.00  0.00    +0.000 A 
ATOM     14  C   UNL     1      -4.044  12.641  19.976  0.00  0.00    +0.000 A 
ATOM     15  C   UNL     1      -5.395  12.852  19.690  0.00  0.00    +0.000 A 
ATOM     16  C   UNL     1      -5.912  12.479  18.456  0.00  0.00    +0.000 A 
ATOM     17  C   UNL     1      -5.073  11.916  17.497  0.00  0.00    +0.000 A 
ATOM     18  C   UNL     1      -3.720  11.710  17.779  0.00  0.00    +0.000 A 
ENDBRANCH   9  13
ENDBRANCH   1  10
BRANCH   4  19
ATOM     19  C   UNL     1       3.879   6.351  18.286  0.00  0.00    +0.000 C 
ATOM     20  O   UNL     1       4.303   6.230  17.143  0.00  0.00    +0.000 OA
ATOM     21  N   UNL     1       4.326   5.588  19.349  0.00  0.00    +0.000 N 
ATOM     22  H   UNL     1       4.081   5.864  20.292  0.00  0.00    +0.000 HD
BRANCH  21  23
ATOM     23  C   UNL     1       5.390   4.616  19.150  0.00  0.00    +0.000 C 
BRANCH  23  24
ATOM     24  C   UNL     1       4.868   3.183  19.035  0.00  0.00    +0.000 C 
BRANCH  24  25
ATOM     25  C   UNL     1       3.388   3.077  19.324  0.00  0.00    +0.000 A 
ATOM     26  C   UNL     1       2.460   3.137  18.273  0.00  0.00    +0.000 A 
ATOM     27  C   UNL     1       1.090   3.006  18.517  0.00  0.00    +0.000 A 
ATOM     28  C   UNL     1       0.631   2.806  19.816  0.00  0.00    +0.000 A 
ATOM     29  C   UNL     1       1.546   2.756  20.862  0.00  0.00    +0.000 A 
ATOM     30  F   UNL     1       1.104   2.570  22.113  0.00  0.00    +0.000 F 
ATOM     31  C   UNL     1       2.913   2.890  20.630  0.00  0.00    +0.000 A 
ENDBRANCH  24  25
ENDBRANCH  23  24
ENDBRANCH  21  23
ENDBRANCH   4  19
TORSDOF 6
ENDMDL
MODEL 9
REMARK VINA RESULT:      -8.0      6.463      8.263
REMARK  Name = 
REMARK  6 active torsions:
REMARK  status: ('A' for Active; 'I' for Inactive)
REMARK    1  A    between atoms: N_3  and  C_4
REMARK    2  A    between atoms: N_10  and  C_11
REMARK    3  A    between atoms: C_14  and  C_15
REMARK    4  A    between atoms: N_17  and  C_18
REMARK    5  A    between atoms: C_18  and  C_19
REMARK    6  A    between atoms: C_19  and  C_20
REMARK                            x       y       z     vdW  Elec       q    Type
REMARK                         _______ _______ _______ _____ _____    ______ ____
ROOT
ATOM      1  C   UNL     1       0.347   9.720  19.680  0.00  0.00    +0.000 A 
ATOM      2  C   UNL     1       0.890   8.756  20.537  0.00  0.00    +0.000 A 
ATOM      3  C   UNL     1       1.877   7.868  20.099  0.00  0.00    +0.000 A 
ATOM      4  C   UNL     1       2.335   7.932  18.784  0.00  0.00    +0.000 A 
ATOM      5  C   UNL     1       1.762   8.858  17.905  0.00  0.00    +0.000 A 
ATOM      6  C   UNL     1       0.780   9.753  18.352  0.00  0.00    +0.000 A 
ENDROOT
BRANCH   1  10
ATOM      7  O   UNL     1       0.364  11.491  21.993  0.00  0.00    +0.000 OA
ATOM      8  C   UNL     1      -0.587  11.451  21.218  0.00  0.00    +0.000 C 
ATOM      9  N   UNL     1      -1.761  12.159  21.397  0.00  0.00    +0.000 N 
ATOM     10  N   UNL     1      -0.635  10.657  20.082  0.00  0.00    +0.000 N 
ATOM     11  H   UNL     1      -2.546  11.895  20.822  0.00  0.00    +0.000 HD
ATOM     12  H   UNL     1      -1.409  10.803  19.453  0.00  0.00    +0.000 HD
BRANCH   9  13
ATOM     13  C   UNL     1      -2.054  12.988  22.506  0.00  0.00    +0.000 A 
ATOM     14  C   UNL     1      -1.218  14.023  22.939  0.00  0.00    +0.000 A 
ATOM     15  C   UNL     1      -1.523  14.750  24.092  0.00  0.00    +0.000 A 
ATOM     16  C   UNL     1      -2.672  14.458  24.816  0.00  0.00    +0.000 A 
ATOM     17  C   UNL     1      -3.530  13.453  24.375  0.00  0.00    +0.000 A 
ATOM     18  C   UNL     1      -3.229  12.728  23.218  0.00  0.00    +0.000 A 
ENDBRANCH   9  13
ENDBRANCH   1  10
BRANCH   4  19
ATOM     19  C   UNL     1       3.403   7.027  18.281  0.00  0.00    +0.000 C 
ATOM     20  O   UNL     1       3.858   7.187  17.155  0.00  0.00    +0.000 OA
ATOM     21  N   UNL     1       3.863   6.061  19.158  0.00  0.00    +0.000 N 
ATOM     22  H   UNL     1       3.584   6.104  20.130  0.00  0.00    +0.000 HD
BRANCH  21  23
ATOM     23  C   UNL     1       4.978   5.207  18.778  0.00  0.00    +0.000 C 
BRANCH  23  24
ATOM     24  C   UNL     1       4.810   3.765  19.263  0.00  0.00    +0.000 C 
BRANCH  24  25
ATOM     25  C   UNL     1       3.360   3.369  19.421  0.00  0.00    +0.000 A 
ATOM     26  C   UNL     1       2.553   3.190  18.287  0.00  0.00    +0.000 A 
ATOM     27  C   UNL     1       1.220   2.789  18.411  0.00  0.00    +0.000 A 
ATOM     28  C   UNL     1       0.677   2.557  19.672  0.00  0.00    +0.000 A 
ATOM     29  C   UNL     1       1.470   2.742  20.799  0.00  0.00    +0.000 A 
ATOM     30  F   UNL     1       0.948   2.524  22.014  0.00  0.00    +0.000 F 
ATOM     31  C   UNL     1       2.799   3.145  20.687  0.00  0.00    +0.000 A 
ENDBRANCH  24  25
ENDBRANCH  23  24
ENDBRANCH  21  23
ENDBRANCH   4  19
TORSDOF 6
ENDMDL
