MODEL 1
REMARK VINA RESULT:      -8.4      0.000      0.000
REMARK  Name = 
REMARK  8 active torsions:
REMARK  status: ('A' for Active; 'I' for Inactive)
REMARK    1  A    between atoms: C_1  and  C_2
REMARK    2  A    between atoms: C_6  and  C_7
REMARK    3  A    between atoms: C_10  and  C_11
REMARK    4  A    between atoms: C_11  and  C_12
REMARK    5  A    between atoms: C_11  and  S_13
REMARK    6  A    between atoms: S_13  and  C_14
REMARK    7  A    between atoms: C_17  and  C_18
REMARK    8  A    between atoms: N_25  and  C_26
REMARK                            x       y       z     vdW  Elec       q    Type
REMARK                         _______ _______ _______ _____ _____    ______ ____
ROOT
ATOM      1  S   UNL     1       2.570   6.198  19.555  0.00  0.00    +0.000 S 
ENDROOT
BRANCH   1   2
ATOM      2  C   UNL     1       2.202   7.730  18.851  0.00  0.00    +0.000 A 
ATOM      3  N   UNL     1       2.604   8.079  17.650  0.00  0.00    +0.000 NA
ATOM      4  N   UNL     1       2.205   9.368  17.429  0.00  0.00    +0.000 NA
ATOM      5  C   UNL     1       1.538   9.798  18.488  0.00  0.00    +0.000 A 
ATOM      6  N   UNL     1       1.597   8.807  19.464  0.00  0.00    +0.000 N 
BRANCH   5   7
ATOM      7  C   UNL     1       0.860  11.100  18.540  0.00  0.00    +0.000 A 
ATOM      8  C   UNL     1       1.637  12.271  18.591  0.00  0.00    +0.000 A 
ATOM      9  C   UNL     1       1.039  13.537  18.594  0.00  0.00    +0.000 A 
ATOM     10  C   UNL     1      -0.350  13.655  18.550  0.00  0.00    +0.000 A 
ATOM     11  C   UNL     1      -1.133  12.511  18.476  0.00  0.00    +0.000 A 
ATOM     12  C   UNL     1      -0.528  11.255  18.447  0.00  0.00    +0.000 A 
ATOM     13  F   UNL     1      -1.328  10.195  18.279  0.00  0.00    +0.000 F 
ENDBRANCH   5   7
BRANCH   6  14
ATOM     14  C   UNL     1       1.210   9.012  20.854  0.00  0.00    +0.000 C 
ATOM     15  C   UNL     1       0.810   7.972  21.878  0.00  0.00    +0.000 C 
ATOM     16  C   UNL     1      -0.230   8.883  21.316  0.00  0.00    +0.000 C 
ENDBRANCH   6  14
ENDBRANCH   1   2
BRANCH   1  17
ATOM     17  C   UNL     1       2.571   5.047  18.132  0.00  0.00    +0.000 C 
ATOM     18  C   UNL     1       1.775   3.769  18.368  0.00  0.00    +0.000 C 
BRANCH  17  22
ATOM     19  C   UNL     1       5.464   4.586  16.107  0.00  0.00    +0.000 A 
ATOM     20  N   UNL     1       6.055   4.555  17.284  0.00  0.00    +0.000 NA
ATOM     21  N   UNL     1       5.069   4.714  18.228  0.00  0.00    +0.000 NA
ATOM     22  C   UNL     1       3.935   4.832  17.569  0.00  0.00    +0.000 A 
ATOM     23  O   UNL     1       4.106   4.769  16.205  0.00  0.00    +0.000 OA
BRANCH  19  29
ATOM     24  C   UNL     1       5.287   2.595  11.549  0.00  0.00    +0.000 C 
ATOM     25  C   UNL     1       5.977   3.490  12.537  0.00  0.00    +0.000 A 
ATOM     26  C   UNL     1       7.142   4.181  12.197  0.00  0.00    +0.000 A 
ATOM     27  C   UNL     1       7.763   5.015  13.134  0.00  0.00    +0.000 A 
ATOM     28  C   UNL     1       7.225   5.160  14.414  0.00  0.00    +0.000 A 
ATOM     29  C   UNL     1       6.061   4.477  14.779  0.00  0.00    +0.000 A 
ATOM     30  C   UNL     1       5.447   3.646  13.826  0.00  0.00    +0.000 A 
ENDBRANCH  19  29
ENDBRANCH  17  22
ENDBRANCH   1  17
TORSDOF 6
ENDMDL
MODEL 2
REMARK VINA RESULT:      -8.4      3.146      8.661
REMARK  Name = 
REMARK  8 active torsions:
REMARK  status: ('A' for Active; 'I' for Inactive)
REMARK    1  A    between atoms: C_1  and  C_2
REMARK    2  A    between atoms: C_6  and  C_7
REMARK    3  A    between atoms: C_10  and  C_11
REMARK    4  A    between atoms: C_11  and  C_12
REMARK    5  A    between atoms: C_11  and  S_13
REMARK    6  A    between atoms: S_13  and  C_14
REMARK    7  A    between atoms: C_17  and  C_18
REMARK    8  A    between atoms: N_25  and  C_26
REMARK                            x       y       z     vdW  Elec       q    Type
REMARK                         _______ _______ _______ _____ _____    ______ ____
ROOT
ATOM      1  S   UNL     1       1.013   7.373  20.818  0.00  0.00    +0.000 S 
ENDROOT
BRANCH   1   2
ATOM      2  C   UNL     1       2.204   7.199  19.581  0.00  0.00    +0.000 A 
ATOM      3  N   UNL     1       2.290   8.012  18.552  0.00  0.00    +0.000 NA
ATOM      4  N   UNL     1       3.286   7.556  17.735  0.00  0.00    +0.000 NA
ATOM      5  C   UNL     1       3.827   6.477  18.278  0.00  0.00    +0.000 A 
ATOM      6  N   UNL     1       3.094   6.158  19.419  0.00  0.00    +0.000 N 
BRANCH   5   7
ATOM      7  C   UNL     1       5.008   5.801  17.726  0.00  0.00    +0.000 A 
ATOM      8  C   UNL     1       6.277   6.123  18.237  0.00  0.00    +0.000 A 
ATOM      9  C   UNL     1       7.429   5.473  17.776  0.00  0.00    +0.000 A 
ATOM     10  C   UNL     1       7.331   4.490  16.792  0.00  0.00    +0.000 A 
ATOM     11  C   UNL     1       6.083   4.142  16.292  0.00  0.00    +0.000 A 
ATOM     12  C   UNL     1       4.940   4.777  16.775  0.00  0.00    +0.000 A 
ATOM     13  F   UNL     1       3.759   4.334  16.325  0.00  0.00    +0.000 F 
ENDBRANCH   5   7
BRANCH   6  14
ATOM     14  C   UNL     1       3.216   4.896  20.136  0.00  0.00    +0.000 C 
ATOM     15  C   UNL     1       3.266   3.494  19.566  0.00  0.00    +0.000 C 
ATOM     16  C   UNL     1       2.045   3.944  20.297  0.00  0.00    +0.000 C 
ENDBRANCH   6  14
ENDBRANCH   1   2
BRANCH   1  17
ATOM     17  C   UNL     1       1.137   9.132  21.306  0.00  0.00    +0.000 C 
ATOM     18  C   UNL     1       0.662   9.416  22.726  0.00  0.00    +0.000 C 
BRANCH  17  22
ATOM     19  C   UNL     1      -0.792  10.864  18.864  0.00  0.00    +0.000 A 
ATOM     20  N   UNL     1       0.245  11.676  18.890  0.00  0.00    +0.000 NA
ATOM     21  N   UNL     1       1.134  11.155  19.800  0.00  0.00    +0.000 NA
ATOM     22  C   UNL     1       0.585  10.055  20.273  0.00  0.00    +0.000 A 
ATOM     23  O   UNL     1      -0.654   9.806  19.730  0.00  0.00    +0.000 OA
BRANCH  19  29
ATOM     24  C   UNL     1      -3.126  10.025  14.550  0.00  0.00    +0.000 C 
ATOM     25  C   UNL     1      -3.164  10.562  15.950  0.00  0.00    +0.000 A 
ATOM     26  C   UNL     1      -4.323  11.141  16.472  0.00  0.00    +0.000 A 
ATOM     27  C   UNL     1      -4.335  11.629  17.784  0.00  0.00    +0.000 A 
ATOM     28  C   UNL     1      -3.191  11.542  18.579  0.00  0.00    +0.000 A 
ATOM     29  C   UNL     1      -2.018  10.969  18.078  0.00  0.00    +0.000 A 
ATOM     30  C   UNL     1      -2.022  10.481  16.761  0.00  0.00    +0.000 A 
ENDBRANCH  19  29
ENDBRANCH  17  22
ENDBRANCH   1  17
TORSDOF 6
ENDMDL
MODEL 3
REMARK VINA RESULT:      -8.3      1.512      2.080
REMARK  Name = 
REMARK  8 active torsions:
REMARK  status: ('A' for Active; 'I' for Inactive)
REMARK    1  A    between atoms: C_1  and  C_2
REMARK    2  A    between atoms: C_6  and  C_7
REMARK    3  A    between atoms: C_10  and  C_11
REMARK    4  A    between atoms: C_11  and  C_12
REMARK    5  A    between atoms: C_11  and  S_13
REMARK    6  A    between atoms: S_13  and  C_14
REMARK    7  A    between atoms: C_17  and  C_18
REMARK    8  A    between atoms: N_25  and  C_26
REMARK                            x       y       z     vdW  Elec       q    Type
REMARK                         _______ _______ _______ _____ _____    ______ ____
ROOT
ATOM      1  S   UNL     1       2.192   5.884  20.840  0.00  0.00    +0.000 S 
ENDROOT
BRANCH   1   2
ATOM      2  C   UNL     1       1.923   7.288  19.872  0.00  0.00    +0.000 A 
ATOM      3  N   UNL     1       2.549   7.504  18.737  0.00  0.00    +0.000 NA
ATOM      4  N   UNL     1       2.160   8.727  18.266  0.00  0.00    +0.000 NA
ATOM      5  C   UNL     1       1.277   9.248  19.103  0.00  0.00    +0.000 A 
ATOM      6  N   UNL     1       1.170   8.396  20.199  0.00  0.00    +0.000 N 
BRANCH   5   7
ATOM      7  C   UNL     1       0.559  10.502  18.840  0.00  0.00    +0.000 A 
ATOM      8  C   UNL     1       1.268  11.716  18.889  0.00  0.00    +0.000 A 
ATOM      9  C   UNL     1       0.639  12.933  18.600  0.00  0.00    +0.000 A 
ATOM     10  C   UNL     1      -0.713  12.959  18.259  0.00  0.00    +0.000 A 
ATOM     11  C   UNL     1      -1.424  11.768  18.183  0.00  0.00    +0.000 A 
ATOM     12  C   UNL     1      -0.783  10.559  18.448  0.00  0.00    +0.000 A 
ATOM     13  F   UNL     1      -1.494   9.439  18.265  0.00  0.00    +0.000 F 
ENDBRANCH   5   7
BRANCH   6  14
ATOM     14  C   UNL     1       0.501   8.754  21.443  0.00  0.00    +0.000 C 
ATOM     15  C   UNL     1       0.248  10.135  22.008  0.00  0.00    +0.000 C 
ATOM     16  C   UNL     1       1.267   9.257  22.653  0.00  0.00    +0.000 C 
ENDBRANCH   6  14
ENDBRANCH   1   2
BRANCH   1  17
ATOM     17  C   UNL     1       1.315   4.554  19.939  0.00  0.00    +0.000 C 
ATOM     18  C   UNL     1       0.944   3.358  20.808  0.00  0.00    +0.000 C 
BRANCH  17  22
ATOM     19  C   UNL     1       3.512   4.047  17.183  0.00  0.00    +0.000 A 
ATOM     20  N   UNL     1       2.456   3.431  16.693  0.00  0.00    +0.000 NA
ATOM     21  N   UNL     1       1.465   3.529  17.640  0.00  0.00    +0.000 NA
ATOM     22  C   UNL     1       1.977   4.200  18.650  0.00  0.00    +0.000 A 
ATOM     23  O   UNL     1       3.288   4.560  18.438  0.00  0.00    +0.000 OA
BRANCH  19  29
ATOM     24  C   UNL     1       6.347   3.896  13.095  0.00  0.00    +0.000 C 
ATOM     25  C   UNL     1       6.229   4.137  14.571  0.00  0.00    +0.000 A 
ATOM     26  C   UNL     1       7.340   4.502  15.335  0.00  0.00    +0.000 A 
ATOM     27  C   UNL     1       7.203   4.727  16.710  0.00  0.00    +0.000 A 
ATOM     28  C   UNL     1       5.959   4.586  17.327  0.00  0.00    +0.000 A 
ATOM     29  C   UNL     1       4.833   4.218  16.584  0.00  0.00    +0.000 A 
ATOM     30  C   UNL     1       4.985   3.999  15.204  0.00  0.00    +0.000 A 
ENDBRANCH  19  29
ENDBRANCH  17  22
ENDBRANCH   1  17
TORSDOF 6
ENDMDL
MODEL 4
REMARK VINA RESULT:      -8.3      1.962      3.339
REMARK  Name = 
REMARK  8 active torsions:
REMARK  status: ('A' for Active; 'I' for Inactive)
REMARK    1  A    between atoms: C_1  and  C_2
REMARK    2  A    between atoms: C_6  and  C_7
REMARK    3  A    between atoms: C_10  and  C_11
REMARK    4  A    between atoms: C_11  and  C_12
REMARK    5  A    between atoms: C_11  and  S_13
REMARK    6  A    between atoms: S_13  and  C_14
REMARK    7  A    between atoms: C_17  and  C_18
REMARK    8  A    between atoms: N_25  and  C_26
REMARK                            x       y       z     vdW  Elec       q    Type
REMARK                         _______ _______ _______ _____ _____    ______ ____
ROOT
ATOM      1  S   UNL     1       4.539   4.223  17.983  0.00  0.00    +0.000 S 
ENDROOT
BRANCH   1   2
ATOM      2  C   UNL     1       3.774   5.761  18.154  0.00  0.00    +0.000 A 
ATOM      3  N   UNL     1       4.060   6.790  17.389  0.00  0.00    +0.000 NA
ATOM      4  N   UNL     1       3.334   7.860  17.832  0.00  0.00    +0.000 NA
ATOM      5  C   UNL     1       2.585   7.478  18.854  0.00  0.00    +0.000 A 
ATOM      6  N   UNL     1       2.912   6.158  19.155  0.00  0.00    +0.000 N 
BRANCH   5   7
ATOM      7  C   UNL     1       1.589   8.346  19.494  0.00  0.00    +0.000 A 
ATOM      8  C   UNL     1       1.396   8.253  20.883  0.00  0.00    +0.000 A 
ATOM      9  C   UNL     1       0.491   9.092  21.546  0.00  0.00    +0.000 A 
ATOM     10  C   UNL     1      -0.240  10.039  20.829  0.00  0.00    +0.000 A 
ATOM     11  C   UNL     1      -0.046  10.161  19.460  0.00  0.00    +0.000 A 
ATOM     12  C   UNL     1       0.875   9.339  18.812  0.00  0.00    +0.000 A 
ATOM     13  F   UNL     1       1.089   9.568  17.510  0.00  0.00    +0.000 F 
ENDBRANCH   5   7
BRANCH   6  14
ATOM     14  C   UNL     1       2.495   5.475  20.372  0.00  0.00    +0.000 C 
ATOM     15  C   UNL     1       2.542   3.994  20.680  0.00  0.00    +0.000 C 
ATOM     16  C   UNL     1       1.223   4.650  20.438  0.00  0.00    +0.000 C 
ENDBRANCH   6  14
ENDBRANCH   1   2
BRANCH   1  17
ATOM     17  C   UNL     1       6.291   4.636  17.652  0.00  0.00    +0.000 C 
ATOM     18  C   UNL     1       6.817   5.805  18.475  0.00  0.00    +0.000 C 
BRANCH  17  22
ATOM     19  C   UNL     1       6.542   4.228  14.123  0.00  0.00    +0.000 A 
ATOM     20  N   UNL     1       7.306   5.295  14.241  0.00  0.00    +0.000 NA
ATOM     21  N   UNL     1       7.340   5.613  15.577  0.00  0.00    +0.000 NA
ATOM     22  C   UNL     1       6.596   4.719  16.194  0.00  0.00    +0.000 A 
ATOM     23  O   UNL     1       6.042   3.803  15.330  0.00  0.00    +0.000 OA
BRANCH  19  29
ATOM     24  C   UNL     1       3.094   3.269  10.665  0.00  0.00    +0.000 C 
ATOM     25  C   UNL     1       4.467   3.020  11.216  0.00  0.00    +0.000 A 
ATOM     26  C   UNL     1       5.343   2.123  10.601  0.00  0.00    +0.000 A 
ATOM     27  C   UNL     1       6.621   1.914  11.132  0.00  0.00    +0.000 A 
ATOM     28  C   UNL     1       7.029   2.597  12.279  0.00  0.00    +0.000 A 
ATOM     29  C   UNL     1       6.169   3.497  12.915  0.00  0.00    +0.000 A 
ATOM     30  C   UNL     1       4.890   3.700  12.369  0.00  0.00    +0.000 A 
ENDBRANCH  19  29
ENDBRANCH  17  22
ENDBRANCH   1  17
TORSDOF 6
ENDMDL
MODEL 5
REMARK VINA RESULT:      -8.3      3.105      8.839
REMARK  Name = 
REMARK  8 active torsions:
REMARK  status: ('A' for Active; 'I' for Inactive)
REMARK    1  A    between atoms: C_1  and  C_2
REMARK    2  A    between atoms: C_6  and  C_7
REMARK    3  A    between atoms: C_10  and  C_11
REMARK    4  A    between atoms: C_11  and  C_12
REMARK    5  A    between atoms: C_11  and  S_13
REMARK    6  A    between atoms: S_13  and  C_14
REMARK    7  A    between atoms: C_17  and  C_18
REMARK    8  A    between atoms: N_25  and  C_26
REMARK                            x       y       z     vdW  Elec       q    Type
REMARK                         _______ _______ _______ _____ _____    ______ ____
ROOT
ATOM      1  S   UNL     1       1.011   7.517  20.586  0.00  0.00    +0.000 S 
ENDROOT
BRANCH   1   2
ATOM      2  C   UNL     1       2.236   7.308  19.388  0.00  0.00    +0.000 A 
ATOM      3  N   UNL     1       2.451   8.177  18.426  0.00  0.00    +0.000 NA
ATOM      4  N   UNL     1       3.434   7.678  17.618  0.00  0.00    +0.000 NA
ATOM      5  C   UNL     1       3.837   6.514  18.101  0.00  0.00    +0.000 A 
ATOM      6  N   UNL     1       3.023   6.193  19.185  0.00  0.00    +0.000 N 
BRANCH   5   7
ATOM      7  C   UNL     1       4.969   5.759  17.547  0.00  0.00    +0.000 A 
ATOM      8  C   UNL     1       4.959   5.420  16.183  0.00  0.00    +0.000 A 
ATOM      9  C   UNL     1       6.036   4.743  15.598  0.00  0.00    +0.000 A 
ATOM     10  C   UNL     1       7.143   4.389  16.369  0.00  0.00    +0.000 A 
ATOM     11  C   UNL     1       7.181   4.736  17.713  0.00  0.00    +0.000 A 
ATOM     12  C   UNL     1       6.115   5.432  18.281  0.00  0.00    +0.000 A 
ATOM     13  F   UNL     1       6.250   5.823  19.555  0.00  0.00    +0.000 F 
ENDBRANCH   5   7
BRANCH   6  14
ATOM     14  C   UNL     1       2.984   4.879  19.810  0.00  0.00    +0.000 C 
ATOM     15  C   UNL     1       3.135   3.523  19.154  0.00  0.00    +0.000 C 
ATOM     16  C   UNL     1       1.795   3.948  19.655  0.00  0.00    +0.000 C 
ENDBRANCH   6  14
ENDBRANCH   1   2
BRANCH   1  17
ATOM     17  C   UNL     1       1.327   9.192  21.251  0.00  0.00    +0.000 C 
ATOM     18  C   UNL     1       1.351   9.261  22.773  0.00  0.00    +0.000 C 
BRANCH  17  22
ATOM     19  C   UNL     1      -1.046  11.080  19.383  0.00  0.00    +0.000 A 
ATOM     20  N   UNL     1      -0.435  12.086  19.975  0.00  0.00    +0.000 NA
ATOM     21  N   UNL     1       0.554  11.542  20.760  0.00  0.00    +0.000 NA
ATOM     22  C   UNL     1       0.486  10.237  20.598  0.00  0.00    +0.000 A 
ATOM     23  O   UNL     1      -0.520   9.861  19.738  0.00  0.00    +0.000 OA
BRANCH  19  29
ATOM     24  C   UNL     1      -2.880   9.875  14.916  0.00  0.00    +0.000 C 
ATOM     25  C   UNL     1      -3.075  10.523  16.254  0.00  0.00    +0.000 A 
ATOM     26  C   UNL     1      -4.284  11.134  16.593  0.00  0.00    +0.000 A 
ATOM     27  C   UNL     1      -4.444  11.726  17.851  0.00  0.00    +0.000 A 
ATOM     28  C   UNL     1      -3.397  11.713  18.774  0.00  0.00    +0.000 A 
ATOM     29  C   UNL     1      -2.176  11.111  18.457  0.00  0.00    +0.000 A 
ATOM     30  C   UNL     1      -2.031  10.518  17.192  0.00  0.00    +0.000 A 
ENDBRANCH  19  29
ENDBRANCH  17  22
ENDBRANCH   1  17
TORSDOF 6
ENDMDL
MODEL 6
REMARK VINA RESULT:      -8.3      1.079      1.439
REMARK  Name = 
REMARK  8 active torsions:
REMARK  status: ('A' for Active; 'I' for Inactive)
REMARK    1  A    between atoms: C_1  and  C_2
REMARK    2  A    between atoms: C_6  and  C_7
REMARK    3  A    between atoms: C_10  and  C_11
REMARK    4  A    between atoms: C_11  and  C_12
REMARK    5  A    between atoms: C_11  and  S_13
REMARK    6  A    between atoms: S_13  and  C_14
REMARK    7  A    between atoms: C_17  and  C_18
REMARK    8  A    between atoms: N_25  and  C_26
REMARK                            x       y       z     vdW  Elec       q    Type
REMARK                         _______ _______ _______ _____ _____    ______ ____
ROOT
ATOM      1  S   UNL     1       1.931   6.049  20.716  0.00  0.00    +0.000 S 
ENDROOT
BRANCH   1   2
ATOM      2  C   UNL     1       1.773   7.498  19.792  0.00  0.00    +0.000 A 
ATOM      3  N   UNL     1       2.484   7.739  18.714  0.00  0.00    +0.000 NA
ATOM      4  N   UNL     1       2.166   8.991  18.269  0.00  0.00    +0.000 NA
ATOM      5  C   UNL     1       1.241   9.507  19.063  0.00  0.00    +0.000 A 
ATOM      6  N   UNL     1       1.031   8.616  20.112  0.00  0.00    +0.000 N 
BRANCH   5   7
ATOM      7  C   UNL     1       0.580  10.793  18.803  0.00  0.00    +0.000 A 
ATOM      8  C   UNL     1       1.344  11.972  18.848  0.00  0.00    +0.000 A 
ATOM      9  C   UNL     1       0.771  13.217  18.562  0.00  0.00    +0.000 A 
ATOM     10  C   UNL     1      -0.580  13.305  18.228  0.00  0.00    +0.000 A 
ATOM     11  C   UNL     1      -1.345  12.149  18.156  0.00  0.00    +0.000 A 
ATOM     12  C   UNL     1      -0.760  10.911  18.418  0.00  0.00    +0.000 A 
ATOM     13  F   UNL     1      -1.522   9.825  18.239  0.00  0.00    +0.000 F 
ENDBRANCH   5   7
BRANCH   6  14
ATOM     14  C   UNL     1       0.286   8.945  21.320  0.00  0.00    +0.000 C 
ATOM     15  C   UNL     1       0.113  10.298  21.976  0.00  0.00    +0.000 C 
ATOM     16  C   UNL     1       0.979   9.273  22.630  0.00  0.00    +0.000 C 
ENDBRANCH   6  14
ENDBRANCH   1   2
BRANCH   1  17
ATOM     17  C   UNL     1       1.856   4.717  19.464  0.00  0.00    +0.000 C 
ATOM     18  C   UNL     1       0.960   3.548  19.855  0.00  0.00    +0.000 C 
BRANCH  17  22
ATOM     19  C   UNL     1       4.875   4.189  17.651  0.00  0.00    +0.000 A 
ATOM     20  N   UNL     1       5.202   3.538  18.748  0.00  0.00    +0.000 NA
ATOM     21  N   UNL     1       4.125   3.624  19.596  0.00  0.00    +0.000 NA
ATOM     22  C   UNL     1       3.205   4.322  18.964  0.00  0.00    +0.000 A 
ATOM     23  O   UNL     1       3.613   4.729  17.715  0.00  0.00    +0.000 OA
BRANCH  19  29
ATOM     24  C   UNL     1       5.399   3.490  12.751  0.00  0.00    +0.000 C 
ATOM     25  C   UNL     1       5.930   4.060  14.033  0.00  0.00    +0.000 A 
ATOM     26  C   UNL     1       7.136   4.764  14.069  0.00  0.00    +0.000 A 
ATOM     27  C   UNL     1       7.607   5.291  15.277  0.00  0.00    +0.000 A 
ATOM     28  C   UNL     1       6.878   5.115  16.454  0.00  0.00    +0.000 A 
ATOM     29  C   UNL     1       5.670   4.410  16.445  0.00  0.00    +0.000 A 
ATOM     30  C   UNL     1       5.208   3.890  15.225  0.00  0.00    +0.000 A 
ENDBRANCH  19  29
ENDBRANCH  17  22
ENDBRANCH   1  17
TORSDOF 6
ENDMDL
MODEL 7
REMARK VINA RESULT:      -8.2      3.148      8.896
REMARK  Name = 
REMARK  8 active torsions:
REMARK  status: ('A' for Active; 'I' for Inactive)
REMARK    1  A    between atoms: C_1  and  C_2
REMARK    2  A    between atoms: C_6  and  C_7
REMARK    3  A    between atoms: C_10  and  C_11
REMARK    4  A    between atoms: C_11  and  C_12
REMARK    5  A    between atoms: C_11  and  S_13
REMARK    6  A    between atoms: S_13  and  C_14
REMARK    7  A    between atoms: C_17  and  C_18
REMARK    8  A    between atoms: N_25  and  C_26
REMARK                            x       y       z     vdW  Elec       q    Type
REMARK                         _______ _______ _______ _____ _____    ______ ____
ROOT
ATOM      1  S   UNL     1       1.047   7.414  20.626  0.00  0.00    +0.000 S 
ENDROOT
BRANCH   1   2
ATOM      2  C   UNL     1       2.259   7.247  19.408  0.00  0.00    +0.000 A 
ATOM      3  N   UNL     1       2.475   8.158  18.486  0.00  0.00    +0.000 NA
ATOM      4  N   UNL     1       3.446   7.687  17.646  0.00  0.00    +0.000 NA
ATOM      5  C   UNL     1       3.840   6.497  18.070  0.00  0.00    +0.000 A 
ATOM      6  N   UNL     1       3.032   6.135  19.146  0.00  0.00    +0.000 N 
BRANCH   5   7
ATOM      7  C   UNL     1       4.959   5.758  17.472  0.00  0.00    +0.000 A 
ATOM      8  C   UNL     1       4.936   5.487  16.092  0.00  0.00    +0.000 A 
ATOM      9  C   UNL     1       6.000   4.827  15.467  0.00  0.00    +0.000 A 
ATOM     10  C   UNL     1       7.107   4.421  16.212  0.00  0.00    +0.000 A 
ATOM     11  C   UNL     1       7.158   4.699  17.571  0.00  0.00    +0.000 A 
ATOM     12  C   UNL     1       6.105   5.380  18.180  0.00  0.00    +0.000 A 
ATOM     13  F   UNL     1       6.253   5.704  19.471  0.00  0.00    +0.000 F 
ENDBRANCH   5   7
BRANCH   6  14
ATOM     14  C   UNL     1       2.984   4.793  19.710  0.00  0.00    +0.000 C 
ATOM     15  C   UNL     1       1.788   3.875  19.844  0.00  0.00    +0.000 C 
ATOM     16  C   UNL     1       2.363   4.512  21.066  0.00  0.00    +0.000 C 
ENDBRANCH   6  14
ENDBRANCH   1   2
BRANCH   1  17
ATOM     17  C   UNL     1       1.207   9.153  21.172  0.00  0.00    +0.000 C 
ATOM     18  C   UNL     1       1.425   9.314  22.672  0.00  0.00    +0.000 C 
BRANCH  17  22
ATOM     19  C   UNL     1      -1.354  10.720  19.258  0.00  0.00    +0.000 A 
ATOM     20  N   UNL     1      -1.315  11.581  20.254  0.00  0.00    +0.000 NA
ATOM     21  N   UNL     1      -0.348  11.138  21.124  0.00  0.00    +0.000 NA
ATOM     22  C   UNL     1       0.146  10.033  20.604  0.00  0.00    +0.000 A 
ATOM     23  O   UNL     1      -0.453   9.694  19.413  0.00  0.00    +0.000 OA
BRANCH  19  29
ATOM     24  C   UNL     1      -5.568  12.270  17.111  0.00  0.00    +0.000 C 
ATOM     25  C   UNL     1      -4.296  11.479  17.026  0.00  0.00    +0.000 A 
ATOM     26  C   UNL     1      -3.960  10.770  15.871  0.00  0.00    +0.000 A 
ATOM     27  C   UNL     1      -2.765  10.044  15.814  0.00  0.00    +0.000 A 
ATOM     28  C   UNL     1      -1.902  10.022  16.911  0.00  0.00    +0.000 A 
ATOM     29  C   UNL     1      -2.217  10.721  18.079  0.00  0.00    +0.000 A 
ATOM     30  C   UNL     1      -3.419  11.447  18.120  0.00  0.00    +0.000 A 
ENDBRANCH  19  29
ENDBRANCH  17  22
ENDBRANCH   1  17
TORSDOF 6
ENDMDL
MODEL 8
REMARK VINA RESULT:      -8.1      3.086      8.759
REMARK  Name = 
REMARK  8 active torsions:
REMARK  status: ('A' for Active; 'I' for Inactive)
REMARK    1  A    between atoms: C_1  and  C_2
REMARK    2  A    between atoms: C_6  and  C_7
REMARK    3  A    between atoms: C_10  and  C_11
REMARK    4  A    between atoms: C_11  and  C_12
REMARK    5  A    between atoms: C_11  and  S_13
REMARK    6  A    between atoms: S_13  and  C_14
REMARK    7  A    between atoms: C_17  and  C_18
REMARK    8  A    between atoms: N_25  and  C_26
REMARK                            x       y       z     vdW  Elec       q    Type
REMARK                         _______ _______ _______ _____ _____    ______ ____
ROOT
ATOM      1  S   UNL     1       1.057   7.393  20.955  0.00  0.00    +0.000 S 
ENDROOT
BRANCH   1   2
ATOM      2  C   UNL     1       2.162   7.273  19.634  0.00  0.00    +0.000 A 
ATOM      3  N   UNL     1       2.218   8.160  18.667  0.00  0.00    +0.000 NA
ATOM      4  N   UNL     1       3.142   7.733  17.755  0.00  0.00    +0.000 NA
ATOM      5  C   UNL     1       3.669   6.595  18.179  0.00  0.00    +0.000 A 
ATOM      6  N   UNL     1       2.996   6.215  19.337  0.00  0.00    +0.000 N 
BRANCH   5   7
ATOM      7  C   UNL     1       4.785   5.922  17.502  0.00  0.00    +0.000 A 
ATOM      8  C   UNL     1       6.080   6.452  17.631  0.00  0.00    +0.000 A 
ATOM      9  C   UNL     1       7.183   5.820  17.044  0.00  0.00    +0.000 A 
ATOM     10  C   UNL     1       7.009   4.645  16.312  0.00  0.00    +0.000 A 
ATOM     11  C   UNL     1       5.741   4.094  16.193  0.00  0.00    +0.000 A 
ATOM     12  C   UNL     1       4.652   4.717  16.802  0.00  0.00    +0.000 A 
ATOM     13  F   UNL     1       3.472   4.088  16.733  0.00  0.00    +0.000 F 
ENDBRANCH   5   7
BRANCH   6  14
ATOM     14  C   UNL     1       3.109   4.897  19.947  0.00  0.00    +0.000 C 
ATOM     15  C   UNL     1       2.189   3.707  19.783  0.00  0.00    +0.000 C 
ATOM     16  C   UNL     1       2.198   4.452  21.076  0.00  0.00    +0.000 C 
ENDBRANCH   6  14
ENDBRANCH   1   2
BRANCH   1  17
ATOM     17  C   UNL     1       1.138   9.157  21.438  0.00  0.00    +0.000 C 
ATOM     18  C   UNL     1       0.667   9.432  22.861  0.00  0.00    +0.000 C 
BRANCH  17  22
ATOM     19  C   UNL     1      -0.799  10.767  18.920  0.00  0.00    +0.000 A 
ATOM     20  N   UNL     1       0.108  11.708  19.085  0.00  0.00    +0.000 NA
ATOM     21  N   UNL     1       0.980  11.253  20.045  0.00  0.00    +0.000 NA
ATOM     22  C   UNL     1       0.552  10.062  20.407  0.00  0.00    +0.000 A 
ATOM     23  O   UNL     1      -0.589   9.683  19.738  0.00  0.00    +0.000 OA
BRANCH  19  29
ATOM     24  C   UNL     1      -5.441  12.313  18.008  0.00  0.00    +0.000 C 
ATOM     25  C   UNL     1      -4.245  11.512  17.585  0.00  0.00    +0.000 A 
ATOM     26  C   UNL     1      -4.246  10.785  16.393  0.00  0.00    +0.000 A 
ATOM     27  C   UNL     1      -3.115  10.051  16.017  0.00  0.00    +0.000 A 
ATOM     28  C   UNL     1      -1.981  10.038  16.830  0.00  0.00    +0.000 A 
ATOM     29  C   UNL     1      -1.957  10.756  18.029  0.00  0.00    +0.000 A 
ATOM     30  C   UNL     1      -3.098  11.491  18.392  0.00  0.00    +0.000 A 
ENDBRANCH  19  29
ENDBRANCH  17  22
ENDBRANCH   1  17
TORSDOF 6
ENDMDL
MODEL 9
REMARK VINA RESULT:      -8.1      1.676      2.582
REMARK  Name = 
REMARK  8 active torsions:
REMARK  status: ('A' for Active; 'I' for Inactive)
REMARK    1  A    between atoms: C_1  and  C_2
REMARK    2  A    between atoms: C_6  and  C_7
REMARK    3  A    between atoms: C_10  and  C_11
REMARK    4  A    between atoms: C_11  and  C_12
REMARK    5  A    between atoms: C_11  and  S_13
REMARK    6  A    between atoms: S_13  and  C_14
REMARK    7  A    between atoms: C_17  and  C_18
REMARK    8  A    between atoms: N_25  and  C_26
REMARK                            x       y       z     vdW  Elec       q    Type
REMARK                         _______ _______ _______ _____ _____    ______ ____
ROOT
ATOM      1  S   UNL     1       2.060   5.932  20.809  0.00  0.00    +0.000 S 
ENDROOT
BRANCH   1   2
ATOM      2  C   UNL     1       1.831   7.353  19.856  0.00  0.00    +0.000 A 
ATOM      3  N   UNL     1       2.487   7.579  18.740  0.00  0.00    +0.000 NA
ATOM      4  N   UNL     1       2.123   8.813  18.279  0.00  0.00    +0.000 NA
ATOM      5  C   UNL     1       1.225   9.332  19.101  0.00  0.00    +0.000 A 
ATOM      6  N   UNL     1       1.081   8.465  20.182  0.00  0.00    +0.000 N 
BRANCH   5   7
ATOM      7  C   UNL     1       0.528  10.598  18.840  0.00  0.00    +0.000 A 
ATOM      8  C   UNL     1       1.253  11.800  18.900  0.00  0.00    +0.000 A 
ATOM      9  C   UNL     1       0.645  13.028  18.613  0.00  0.00    +0.000 A 
ATOM     10  C   UNL     1      -0.704  13.075  18.263  0.00  0.00    +0.000 A 
ATOM     11  C   UNL     1      -1.432  11.896  18.176  0.00  0.00    +0.000 A 
ATOM     12  C   UNL     1      -0.811  10.676  18.439  0.00  0.00    +0.000 A 
ATOM     13  F   UNL     1      -1.537   9.567  18.246  0.00  0.00    +0.000 F 
ENDBRANCH   5   7
BRANCH   6  14
ATOM     14  C   UNL     1       0.386   8.811  21.414  0.00  0.00    +0.000 C 
ATOM     15  C   UNL     1       0.177  10.183  22.019  0.00  0.00    +0.000 C 
ATOM     16  C   UNL     1       1.130   9.234  22.667  0.00  0.00    +0.000 C 
ENDBRANCH   6  14
ENDBRANCH   1   2
BRANCH   1  17
ATOM     17  C   UNL     1       1.231   4.617  19.843  0.00  0.00    +0.000 C 
ATOM     18  C   UNL     1       0.775   3.428  20.681  0.00  0.00    +0.000 C 
BRANCH  17  22
ATOM     19  C   UNL     1       3.570   4.207  17.188  0.00  0.00    +0.000 A 
ATOM     20  N   UNL     1       2.643   3.381  16.747  0.00  0.00    +0.000 NA
ATOM     21  N   UNL     1       1.619   3.409  17.664  0.00  0.00    +0.000 NA
ATOM     22  C   UNL     1       1.983   4.251  18.608  0.00  0.00    +0.000 A 
ATOM     23  O   UNL     1       3.225   4.797  18.381  0.00  0.00    +0.000 OA
BRANCH  19  29
ATOM     24  C   UNL     1       7.670   7.026  17.286  0.00  0.00    +0.000 C 
ATOM     25  C   UNL     1       6.880   5.926  16.641  0.00  0.00    +0.000 A 
ATOM     26  C   UNL     1       7.364   5.249  15.519  0.00  0.00    +0.000 A 
ATOM     27  C   UNL     1       6.611   4.221  14.940  0.00  0.00    +0.000 A 
ATOM     28  C   UNL     1       5.372   3.867  15.476  0.00  0.00    +0.000 A 
ATOM     29  C   UNL     1       4.865   4.532  16.596  0.00  0.00    +0.000 A 
ATOM     30  C   UNL     1       5.633   5.559  17.169  0.00  0.00    +0.000 A 
ENDBRANCH  19  29
ENDBRANCH  17  22
ENDBRANCH   1  17
TORSDOF 6
ENDMDL
