MODEL 1
REMARK VINA RESULT:      -9.3      0.000      0.000
REMARK  Name = 
REMARK  3 active torsions:
REMARK  status: ('A' for Active; 'I' for Inactive)
REMARK    1  A    between atoms: C_1  and  C_2
REMARK    2  A    between atoms: C_2  and  C_3
REMARK    3  A    between atoms: C_8  and  C_9
REMARK                            x       y       z     vdW  Elec       q    Type
REMARK                         _______ _______ _______ _____ _____    ______ ____
ROOT
ATOM      1  C   UNL     1       8.943   9.905  18.528  0.00  0.00    +0.000 C 
ATOM      2  O   UNL     1       8.583   9.976  17.354  0.00  0.00    +0.000 OA
ATOM      3  N   UNL     1       8.907   8.751  19.290  0.00  0.00    +0.000 N 
ATOM      4  C   UNL     1       8.380   7.583  18.774  0.00  0.00    +0.000 A 
ATOM      5  N   UNL     1       7.866   7.366  17.587  0.00  0.00    +0.000 NA
ATOM      6  C   UNL     1       7.457   6.045  17.603  0.00  0.00    +0.000 A 
ATOM      7  N   UNL     1       7.719   5.435  18.775  0.00  0.00    +0.000 NA
ATOM      8  N   UNL     1       8.294   6.418  19.485  0.00  0.00    +0.000 N 
ATOM      9  H   UNL     1       9.291   8.767  20.230  0.00  0.00    +0.000 HD
ATOM     10  H   UNL     1       8.583   6.230  20.435  0.00  0.00    +0.000 HD
ENDROOT
BRANCH   6  11
ATOM     11  C   UNL     1       6.781   5.429  16.447  0.00  0.00    +0.000 A 
ATOM     12  C   UNL     1       5.504   4.893  16.594  0.00  0.00    +0.000 A 
ATOM     13  C   UNL     1       4.906   4.270  15.501  0.00  0.00    +0.000 A 
ATOM     14  C   UNL     1       5.592   4.192  14.284  0.00  0.00    +0.000 A 
ATOM     15  C   UNL     1       5.038   3.550  13.160  0.00  0.00    +0.000 A 
ATOM     16  C   UNL     1       5.749   3.483  11.965  0.00  0.00    +0.000 A 
ATOM     17  C   UNL     1       7.014   4.059  11.886  0.00  0.00    +0.000 A 
ATOM     18  C   UNL     1       7.558   4.698  13.006  0.00  0.00    +0.000 A 
ATOM     19  C   UNL     1       6.875   4.773  14.214  0.00  0.00    +0.000 A 
ATOM     20  N   UNL     1       7.455   5.379  15.266  0.00  0.00    +0.000 NA
ENDBRANCH   6  11
BRANCH   1  22
ATOM     21  C   UNL     1       9.178  11.030  20.738  0.00  0.00    +0.000 C 
ATOM     22  C   UNL     1       9.494  11.164  19.241  0.00  0.00    +0.000 C 
ATOM     23  C   UNL     1      11.009  11.390  19.019  0.00  0.00    +0.000 C 
ATOM     24  C   UNL     1      11.030  12.775  18.369  0.00  0.00    +0.000 C 
ATOM     25  C   UNL     1      10.621  13.866  19.365  0.00  0.00    +0.000 C 
ATOM     26  C   UNL     1       9.103  13.696  19.426  0.00  0.00    +0.000 C 
ATOM     27  C   UNL     1       8.895  12.432  18.592  0.00  0.00    +0.000 C 
ATOM     28  O   UNL     1       9.860  12.675  17.523  0.00  0.00    +0.000 OA
ENDBRANCH   1  22
TORSDOF 2
ENDMDL
MODEL 2
REMARK VINA RESULT:      -8.8      5.882      7.009
REMARK  Name = 
REMARK  3 active torsions:
REMARK  status: ('A' for Active; 'I' for Inactive)
REMARK    1  A    between atoms: C_1  and  C_2
REMARK    2  A    between atoms: C_2  and  C_3
REMARK    3  A    between atoms: C_8  and  C_9
REMARK                            x       y       z     vdW  Elec       q    Type
REMARK                         _______ _______ _______ _____ _____    ______ ____
ROOT
ATOM      1  C   UNL     1       1.381   8.626  19.910  0.00  0.00    +0.000 C 
ATOM      2  O   UNL     1       1.941   9.092  18.919  0.00  0.00    +0.000 OA
ATOM      3  N   UNL     1       1.689   7.404  20.482  0.00  0.00    +0.000 N 
ATOM      4  C   UNL     1       2.636   6.578  19.909  0.00  0.00    +0.000 A 
ATOM      5  N   UNL     1       3.350   6.770  18.827  0.00  0.00    +0.000 NA
ATOM      6  C   UNL     1       4.110   5.624  18.683  0.00  0.00    +0.000 A 
ATOM      7  N   UNL     1       3.889   4.728  19.665  0.00  0.00    +0.000 NA
ATOM      8  N   UNL     1       2.967   5.351  20.414  0.00  0.00    +0.000 N 
ATOM      9  H   UNL     1       1.224   7.130  21.342  0.00  0.00    +0.000 HD
ATOM     10  H   UNL     1       2.602   4.879  21.231  0.00  0.00    +0.000 HD
ENDROOT
BRANCH   6  11
ATOM     11  C   UNL     1       5.024   5.438  17.541  0.00  0.00    +0.000 A 
ATOM     12  C   UNL     1       6.291   6.015  17.564  0.00  0.00    +0.000 A 
ATOM     13  C   UNL     1       7.117   5.868  16.452  0.00  0.00    +0.000 A 
ATOM     14  C   UNL     1       6.665   5.150  15.340  0.00  0.00    +0.000 A 
ATOM     15  C   UNL     1       7.455   4.997  14.184  0.00  0.00    +0.000 A 
ATOM     16  C   UNL     1       6.972   4.282  13.090  0.00  0.00    +0.000 A 
ATOM     17  C   UNL     1       5.703   3.716  13.147  0.00  0.00    +0.000 A 
ATOM     18  C   UNL     1       4.924   3.869  14.300  0.00  0.00    +0.000 A 
ATOM     19  C   UNL     1       5.375   4.583  15.403  0.00  0.00    +0.000 A 
ATOM     20  N   UNL     1       4.574   4.720  16.476  0.00  0.00    +0.000 NA
ENDBRANCH   6  11
BRANCH   1  22
ATOM     21  C   UNL     1      -0.697   9.942  19.515  0.00  0.00    +0.000 C 
ATOM     22  C   UNL     1       0.256   9.429  20.605  0.00  0.00    +0.000 C 
ATOM     23  C   UNL     1      -0.520   8.616  21.670  0.00  0.00    +0.000 C 
ATOM     24  C   UNL     1      -0.292   9.450  22.933  0.00  0.00    +0.000 C 
ATOM     25  C   UNL     1      -1.033  10.790  22.859  0.00  0.00    +0.000 C 
ATOM     26  C   UNL     1      -0.142  11.601  21.918  0.00  0.00    +0.000 C 
ATOM     27  C   UNL     1       0.875  10.553  21.467  0.00  0.00    +0.000 C 
ATOM     28  O   UNL     1       1.085   9.847  22.728  0.00  0.00    +0.000 OA
ENDBRANCH   1  22
TORSDOF 2
ENDMDL
MODEL 3
REMARK VINA RESULT:      -8.8      8.642     11.514
REMARK  Name = 
REMARK  3 active torsions:
REMARK  status: ('A' for Active; 'I' for Inactive)
REMARK    1  A    between atoms: C_1  and  C_2
REMARK    2  A    between atoms: C_2  and  C_3
REMARK    3  A    between atoms: C_8  and  C_9
REMARK                            x       y       z     vdW  Elec       q    Type
REMARK                         _______ _______ _______ _____ _____    ______ ____
ROOT
ATOM      1  C   UNL     1       2.482   7.005  19.091  0.00  0.00    +0.000 C 
ATOM      2  O   UNL     1       2.029   6.890  20.228  0.00  0.00    +0.000 OA
ATOM      3  N   UNL     1       2.325   8.125  18.294  0.00  0.00    +0.000 N 
ATOM      4  C   UNL     1       1.561   9.192  18.723  0.00  0.00    +0.000 A 
ATOM      5  N   UNL     1       0.906   9.336  19.850  0.00  0.00    +0.000 NA
ATOM      6  C   UNL     1       0.283  10.566  19.756  0.00  0.00    +0.000 A 
ATOM      7  N   UNL     1       0.549  11.195  18.595  0.00  0.00    +0.000 NA
ATOM      8  N   UNL     1       1.348  10.315  17.972  0.00  0.00    +0.000 N 
ATOM      9  H   UNL     1       2.794   8.161  17.394  0.00  0.00    +0.000 HD
ATOM     10  H   UNL     1       1.691  10.536  17.047  0.00  0.00    +0.000 HD
ENDROOT
BRANCH   6  11
ATOM     11  C   UNL     1      -0.596  11.075  20.825  0.00  0.00    +0.000 A 
ATOM     12  C   UNL     1      -0.431  10.625  22.132  0.00  0.00    +0.000 A 
ATOM     13  C   UNL     1      -1.306  11.081  23.115  0.00  0.00    +0.000 A 
ATOM     14  C   UNL     1      -2.328  11.974  22.777  0.00  0.00    +0.000 A 
ATOM     15  C   UNL     1      -3.251  12.442  23.733  0.00  0.00    +0.000 A 
ATOM     16  C   UNL     1      -4.262  13.325  23.362  0.00  0.00    +0.000 A 
ATOM     17  C   UNL     1      -4.353  13.747  22.039  0.00  0.00    +0.000 A 
ATOM     18  C   UNL     1      -3.431  13.281  21.095  0.00  0.00    +0.000 A 
ATOM     19  C   UNL     1      -2.417  12.393  21.434  0.00  0.00    +0.000 A 
ATOM     20  N   UNL     1      -1.572  11.958  20.481  0.00  0.00    +0.000 NA
ENDBRANCH   6  11
BRANCH   1  22
ATOM     21  C   UNL     1       4.158   6.436  17.337  0.00  0.00    +0.000 C 
ATOM     22  C   UNL     1       3.303   5.849  18.471  0.00  0.00    +0.000 C 
ATOM     23  C   UNL     1       4.192   5.100  19.494  0.00  0.00    +0.000 C 
ATOM     24  C   UNL     1       3.664   3.668  19.383  0.00  0.00    +0.000 C 
ATOM     25  C   UNL     1       4.026   3.042  18.031  0.00  0.00    +0.000 C 
ATOM     26  C   UNL     1       3.018   3.702  17.090  0.00  0.00    +0.000 C 
ATOM     27  C   UNL     1       2.350   4.723  18.010  0.00  0.00    +0.000 C 
ATOM     28  O   UNL     1       2.249   3.932  19.232  0.00  0.00    +0.000 OA
ENDBRANCH   1  22
TORSDOF 2
ENDMDL
MODEL 4
REMARK VINA RESULT:      -8.7      7.323     10.987
REMARK  Name = 
REMARK  3 active torsions:
REMARK  status: ('A' for Active; 'I' for Inactive)
REMARK    1  A    between atoms: C_1  and  C_2
REMARK    2  A    between atoms: C_2  and  C_3
REMARK    3  A    between atoms: C_8  and  C_9
REMARK                            x       y       z     vdW  Elec       q    Type
REMARK                         _______ _______ _______ _____ _____    ______ ____
ROOT
ATOM      1  C   UNL     1       2.124   5.359  19.773  0.00  0.00    +0.000 C 
ATOM      2  O   UNL     1       1.567   5.848  20.754  0.00  0.00    +0.000 OA
ATOM      3  N   UNL     1       2.537   6.080  18.666  0.00  0.00    +0.000 N 
ATOM      4  C   UNL     1       2.274   7.432  18.569  0.00  0.00    +0.000 A 
ATOM      5  N   UNL     1       1.649   8.212  19.418  0.00  0.00    +0.000 NA
ATOM      6  C   UNL     1       1.630   9.459  18.821  0.00  0.00    +0.000 A 
ATOM      7  N   UNL     1       2.243   9.469  17.621  0.00  0.00    +0.000 NA
ATOM      8  N   UNL     1       2.635   8.192  17.492  0.00  0.00    +0.000 N 
ATOM      9  H   UNL     1       3.053   5.605  17.931  0.00  0.00    +0.000 HD
ATOM     10  H   UNL     1       3.119   7.914  16.649  0.00  0.00    +0.000 HD
ENDROOT
BRANCH   6  11
ATOM     11  C   UNL     1       0.967  10.613  19.455  0.00  0.00    +0.000 A 
ATOM     12  C   UNL     1       1.034  11.868  18.857  0.00  0.00    +0.000 A 
ATOM     13  C   UNL     1       0.443  12.952  19.501  0.00  0.00    +0.000 A 
ATOM     14  C   UNL     1      -0.201  12.766  20.729  0.00  0.00    +0.000 A 
ATOM     15  C   UNL     1      -0.789  13.837  21.428  0.00  0.00    +0.000 A 
ATOM     16  C   UNL     1      -1.417  13.619  22.653  0.00  0.00    +0.000 A 
ATOM     17  C   UNL     1      -1.462  12.332  23.180  0.00  0.00    +0.000 A 
ATOM     18  C   UNL     1      -0.878  11.271  22.479  0.00  0.00    +0.000 A 
ATOM     19  C   UNL     1      -0.238  11.460  21.260  0.00  0.00    +0.000 A 
ATOM     20  N   UNL     1       0.329  10.409  20.640  0.00  0.00    +0.000 NA
ENDBRANCH   6  11
BRANCH   1  22
ATOM     21  C   UNL     1       2.006   3.247  21.088  0.00  0.00    +0.000 C 
ATOM     22  C   UNL     1       2.416   3.839  19.732  0.00  0.00    +0.000 C 
ATOM     23  C   UNL     1       1.702   3.101  18.574  0.00  0.00    +0.000 C 
ATOM     24  C   UNL     1       2.881   2.498  17.808  0.00  0.00    +0.000 C 
ATOM     25  C   UNL     1       3.559   1.383  18.613  0.00  0.00    +0.000 C 
ATOM     26  C   UNL     1       4.369   2.173  19.641  0.00  0.00    +0.000 C 
ATOM     27  C   UNL     1       3.902   3.604  19.377  0.00  0.00    +0.000 C 
ATOM     28  O   UNL     1       3.835   3.582  17.918  0.00  0.00    +0.000 OA
ENDBRANCH   1  22
TORSDOF 2
ENDMDL
MODEL 5
REMARK VINA RESULT:      -8.6      7.720      8.665
REMARK  Name = 
REMARK  3 active torsions:
REMARK  status: ('A' for Active; 'I' for Inactive)
REMARK    1  A    between atoms: C_1  and  C_2
REMARK    2  A    between atoms: C_2  and  C_3
REMARK    3  A    between atoms: C_8  and  C_9
REMARK                            x       y       z     vdW  Elec       q    Type
REMARK                         _______ _______ _______ _____ _____    ______ ____
ROOT
ATOM      1  C   UNL     1      -0.198  10.555  20.914  0.00  0.00    +0.000 C 
ATOM      2  O   UNL     1      -0.200   9.391  21.309  0.00  0.00    +0.000 OA
ATOM      3  N   UNL     1       0.416  10.987  19.752  0.00  0.00    +0.000 N 
ATOM      4  C   UNL     1       1.148  10.110  18.975  0.00  0.00    +0.000 A 
ATOM      5  N   UNL     1       1.378   8.834  19.169  0.00  0.00    +0.000 NA
ATOM      6  C   UNL     1       2.192   8.447  18.120  0.00  0.00    +0.000 A 
ATOM      7  N   UNL     1       2.462   9.459  17.272  0.00  0.00    +0.000 NA
ATOM      8  N   UNL     1       1.797  10.482  17.831  0.00  0.00    +0.000 N 
ATOM      9  H   UNL     1       0.307  11.955  19.466  0.00  0.00    +0.000 HD
ATOM     10  H   UNL     1       1.845  11.392  17.393  0.00  0.00    +0.000 HD
ENDROOT
BRANCH   6  11
ATOM     11  C   UNL     1       2.711   7.072  18.007  0.00  0.00    +0.000 A 
ATOM     12  C   UNL     1       4.013   6.854  17.566  0.00  0.00    +0.000 A 
ATOM     13  C   UNL     1       4.463   5.544  17.419  0.00  0.00    +0.000 A 
ATOM     14  C   UNL     1       3.607   4.478  17.711  0.00  0.00    +0.000 A 
ATOM     15  C   UNL     1       4.011   3.138  17.552  0.00  0.00    +0.000 A 
ATOM     16  C   UNL     1       3.131   2.098  17.846  0.00  0.00    +0.000 A 
ATOM     17  C   UNL     1       1.850   2.391  18.301  0.00  0.00    +0.000 A 
ATOM     18  C   UNL     1       1.456   3.725  18.460  0.00  0.00    +0.000 A 
ATOM     19  C   UNL     1       2.308   4.783  18.167  0.00  0.00    +0.000 A 
ATOM     20  N   UNL     1       1.869   6.046  18.314  0.00  0.00    +0.000 NA
ENDBRANCH   6  11
BRANCH   1  22
ATOM     21  C   UNL     1      -1.284  11.046  23.102  0.00  0.00    +0.000 C 
ATOM     22  C   UNL     1      -0.930  11.645  21.733  0.00  0.00    +0.000 C 
ATOM     23  C   UNL     1      -0.112  12.949  21.901  0.00  0.00    +0.000 C 
ATOM     24  C   UNL     1      -1.039  13.988  21.266  0.00  0.00    +0.000 C 
ATOM     25  C   UNL     1      -2.294  14.211  22.116  0.00  0.00    +0.000 C 
ATOM     26  C   UNL     1      -3.129  12.973  21.791  0.00  0.00    +0.000 C 
ATOM     27  C   UNL     1      -2.158  12.153  20.943  0.00  0.00    +0.000 C 
ATOM     28  O   UNL     1      -1.553  13.220  20.151  0.00  0.00    +0.000 OA
ENDBRANCH   1  22
TORSDOF 2
ENDMDL
MODEL 6
REMARK VINA RESULT:      -8.6      8.463     11.528
REMARK  Name = 
REMARK  3 active torsions:
REMARK  status: ('A' for Active; 'I' for Inactive)
REMARK    1  A    between atoms: C_1  and  C_2
REMARK    2  A    between atoms: C_2  and  C_3
REMARK    3  A    between atoms: C_8  and  C_9
REMARK                            x       y       z     vdW  Elec       q    Type
REMARK                         _______ _______ _______ _____ _____    ______ ____
ROOT
ATOM      1  C   UNL     1       2.388   6.187  19.664  0.00  0.00    +0.000 C 
ATOM      2  O   UNL     1       1.814   6.188  20.752  0.00  0.00    +0.000 OA
ATOM      3  N   UNL     1       2.454   7.275  18.812  0.00  0.00    +0.000 N 
ATOM      4  C   UNL     1       1.796   8.450  19.118  0.00  0.00    +0.000 A 
ATOM      5  N   UNL     1       1.059   8.731  20.165  0.00  0.00    +0.000 NA
ATOM      6  C   UNL     1       0.612  10.023  19.959  0.00  0.00    +0.000 A 
ATOM      7  N   UNL     1       1.068  10.553  18.808  0.00  0.00    +0.000 NA
ATOM      8  N   UNL     1       1.804   9.549  18.306  0.00  0.00    +0.000 N 
ATOM      9  H   UNL     1       3.010   7.205  17.965  0.00  0.00    +0.000 HD
ATOM     10  H   UNL     1       2.261   9.678  17.413  0.00  0.00    +0.000 HD
ENDROOT
BRANCH   6  11
ATOM     11  C   UNL     1      -0.294  10.692  20.911  0.00  0.00    +0.000 A 
ATOM     12  C   UNL     1      -0.313  10.297  22.246  0.00  0.00    +0.000 A 
ATOM     13  C   UNL     1      -1.213  10.909  23.115  0.00  0.00    +0.000 A 
ATOM     14  C   UNL     1      -2.078  11.899  22.638  0.00  0.00    +0.000 A 
ATOM     15  C   UNL     1      -3.022  12.526  23.474  0.00  0.00    +0.000 A 
ATOM     16  C   UNL     1      -3.874  13.504  22.966  0.00  0.00    +0.000 A 
ATOM     17  C   UNL     1      -3.785  13.861  21.624  0.00  0.00    +0.000 A 
ATOM     18  C   UNL     1      -2.842  13.236  20.799  0.00  0.00    +0.000 A 
ATOM     19  C   UNL     1      -1.986  12.252  21.276  0.00  0.00    +0.000 A 
ATOM     20  N   UNL     1      -1.115  11.667  20.433  0.00  0.00    +0.000 NA
ENDBRANCH   6  11
BRANCH   1  22
ATOM     21  C   UNL     1       4.622   5.155  19.276  0.00  0.00    +0.000 C 
ATOM     22  C   UNL     1       3.109   4.907  19.178  0.00  0.00    +0.000 C 
ATOM     23  C   UNL     1       2.712   3.633  19.963  0.00  0.00    +0.000 C 
ATOM     24  C   UNL     1       2.161   2.736  18.854  0.00  0.00    +0.000 C 
ATOM     25  C   UNL     1       3.273   2.270  17.907  0.00  0.00    +0.000 C 
ATOM     26  C   UNL     1       3.516   3.517  17.056  0.00  0.00    +0.000 C 
ATOM     27  C   UNL     1       2.631   4.550  17.752  0.00  0.00    +0.000 C 
ATOM     28  O   UNL     1       1.467   3.722  18.053  0.00  0.00    +0.000 OA
ENDBRANCH   1  22
TORSDOF 2
ENDMDL
MODEL 7
REMARK VINA RESULT:      -8.6      8.003     11.292
REMARK  Name = 
REMARK  3 active torsions:
REMARK  status: ('A' for Active; 'I' for Inactive)
REMARK    1  A    between atoms: C_1  and  C_2
REMARK    2  A    between atoms: C_2  and  C_3
REMARK    3  A    between atoms: C_8  and  C_9
REMARK                            x       y       z     vdW  Elec       q    Type
REMARK                         _______ _______ _______ _____ _____    ______ ____
ROOT
ATOM      1  C   UNL     1       2.641   5.692  19.114  0.00  0.00    +0.000 C 
ATOM      2  O   UNL     1       2.124   5.670  20.229  0.00  0.00    +0.000 OA
ATOM      3  N   UNL     1       2.712   6.812  18.304  0.00  0.00    +0.000 N 
ATOM      4  C   UNL     1       2.120   7.998  18.692  0.00  0.00    +0.000 A 
ATOM      5  N   UNL     1       1.449   8.265  19.786  0.00  0.00    +0.000 NA
ATOM      6  C   UNL     1       1.049   9.582  19.656  0.00  0.00    +0.000 A 
ATOM      7  N   UNL     1       1.469  10.141  18.505  0.00  0.00    +0.000 NA
ATOM      8  N   UNL     1       2.135   9.130  17.925  0.00  0.00    +0.000 N 
ATOM      9  H   UNL     1       3.220   6.756  17.427  0.00  0.00    +0.000 HD
ATOM     10  H   UNL     1       2.551   9.279  17.016  0.00  0.00    +0.000 HD
ENDROOT
BRANCH   6  11
ATOM     11  C   UNL     1       0.221  10.245  20.680  0.00  0.00    +0.000 A 
ATOM     12  C   UNL     1       0.220   9.769  21.988  0.00  0.00    +0.000 A 
ATOM     13  C   UNL     1      -0.608  10.381  22.926  0.00  0.00    +0.000 A 
ATOM     14  C   UNL     1      -1.420  11.453  22.543  0.00  0.00    +0.000 A 
ATOM     15  C   UNL     1      -2.292  12.085  23.450  0.00  0.00    +0.000 A 
ATOM     16  C   UNL     1      -3.094  13.146  23.034  0.00  0.00    +0.000 A 
ATOM     17  C   UNL     1      -3.025  13.581  21.714  0.00  0.00    +0.000 A 
ATOM     18  C   UNL     1      -2.154  12.950  20.818  0.00  0.00    +0.000 A 
ATOM     19  C   UNL     1      -1.350  11.885  21.202  0.00  0.00    +0.000 A 
ATOM     20  N   UNL     1      -0.548  11.299  20.293  0.00  0.00    +0.000 NA
ENDBRANCH   6  11
BRANCH   1  22
ATOM     21  C   UNL     1       4.036   4.790  17.257  0.00  0.00    +0.000 C 
ATOM     22  C   UNL     1       3.282   4.406  18.539  0.00  0.00    +0.000 C 
ATOM     23  C   UNL     1       4.225   3.684  19.533  0.00  0.00    +0.000 C 
ATOM     24  C   UNL     1       3.571   2.305  19.644  0.00  0.00    +0.000 C 
ATOM     25  C   UNL     1       3.712   1.513  18.340  0.00  0.00    +0.000 C 
ATOM     26  C   UNL     1       2.653   2.165  17.450  0.00  0.00    +0.000 C 
ATOM     27  C   UNL     1       2.190   3.334  18.319  0.00  0.00    +0.000 C 
ATOM     28  O   UNL     1       2.175   2.685  19.626  0.00  0.00    +0.000 OA
ENDBRANCH   1  22
TORSDOF 2
ENDMDL
MODEL 8
REMARK VINA RESULT:      -8.6      8.367     11.114
REMARK  Name = 
REMARK  3 active torsions:
REMARK  status: ('A' for Active; 'I' for Inactive)
REMARK    1  A    between atoms: C_1  and  C_2
REMARK    2  A    between atoms: C_2  and  C_3
REMARK    3  A    between atoms: C_8  and  C_9
REMARK                            x       y       z     vdW  Elec       q    Type
REMARK                         _______ _______ _______ _____ _____    ______ ____
ROOT
ATOM      1  C   UNL     1       2.495   6.871  18.993  0.00  0.00    +0.000 C 
ATOM      2  O   UNL     1       2.013   6.741  20.116  0.00  0.00    +0.000 OA
ATOM      3  N   UNL     1       2.401   8.019  18.227  0.00  0.00    +0.000 N 
ATOM      4  C   UNL     1       1.672   9.105  18.674  0.00  0.00    +0.000 A 
ATOM      5  N   UNL     1       1.001   9.241  19.791  0.00  0.00    +0.000 NA
ATOM      6  C   UNL     1       0.431  10.500  19.723  0.00  0.00    +0.000 A 
ATOM      7  N   UNL     1       0.748  11.151  18.587  0.00  0.00    +0.000 NA
ATOM      8  N   UNL     1       1.523  10.257  17.953  0.00  0.00    +0.000 N 
ATOM      9  H   UNL     1       2.890   8.062  17.339  0.00  0.00    +0.000 HD
ATOM     10  H   UNL     1       1.893  10.491  17.042  0.00  0.00    +0.000 HD
ENDROOT
BRANCH   6  11
ATOM     11  C   UNL     1      -0.448  11.012  20.789  0.00  0.00    +0.000 A 
ATOM     12  C   UNL     1      -0.338  10.509  22.082  0.00  0.00    +0.000 A 
ATOM     13  C   UNL     1      -1.214  10.972  23.061  0.00  0.00    +0.000 A 
ATOM     14  C   UNL     1      -2.183  11.926  22.733  0.00  0.00    +0.000 A 
ATOM     15  C   UNL     1      -3.106  12.404  23.683  0.00  0.00    +0.000 A 
ATOM     16  C   UNL     1      -4.063  13.349  23.322  0.00  0.00    +0.000 A 
ATOM     17  C   UNL     1      -4.101  13.822  22.013  0.00  0.00    +0.000 A 
ATOM     18  C   UNL     1      -3.179  13.345  21.074  0.00  0.00    +0.000 A 
ATOM     19  C   UNL     1      -2.218  12.396  21.404  0.00  0.00    +0.000 A 
ATOM     20  N   UNL     1      -1.372  11.955  20.455  0.00  0.00    +0.000 NA
ENDBRANCH   6  11
BRANCH   1  22
ATOM     21  C   UNL     1       2.259   4.726  17.747  0.00  0.00    +0.000 C 
ATOM     22  C   UNL     1       3.280   5.700  18.354  0.00  0.00    +0.000 C 
ATOM     23  C   UNL     1       4.307   6.150  17.286  0.00  0.00    +0.000 C 
ATOM     24  C   UNL     1       5.619   5.613  17.862  0.00  0.00    +0.000 C 
ATOM     25  C   UNL     1       5.664   4.081  17.815  0.00  0.00    +0.000 C 
ATOM     26  C   UNL     1       4.757   3.694  18.983  0.00  0.00    +0.000 C 
ATOM     27  C   UNL     1       4.201   5.052  19.412  0.00  0.00    +0.000 C 
ATOM     28  O   UNL     1       5.401   5.871  19.270  0.00  0.00    +0.000 OA
ENDBRANCH   1  22
TORSDOF 2
ENDMDL
MODEL 9
REMARK VINA RESULT:      -8.5      7.958      9.153
REMARK  Name = 
REMARK  3 active torsions:
REMARK  status: ('A' for Active; 'I' for Inactive)
REMARK    1  A    between atoms: C_1  and  C_2
REMARK    2  A    between atoms: C_2  and  C_3
REMARK    3  A    between atoms: C_8  and  C_9
REMARK                            x       y       z     vdW  Elec       q    Type
REMARK                         _______ _______ _______ _____ _____    ______ ____
ROOT
ATOM      1  C   UNL     1      -0.565  11.060  20.654  0.00  0.00    +0.000 C 
ATOM      2  O   UNL     1      -0.554  10.028  21.322  0.00  0.00    +0.000 OA
ATOM      3  N   UNL     1       0.093  11.220  19.447  0.00  0.00    +0.000 N 
ATOM      4  C   UNL     1       0.885  10.209  18.939  0.00  0.00    +0.000 A 
ATOM      5  N   UNL     1       1.141   9.029  19.448  0.00  0.00    +0.000 NA
ATOM      6  C   UNL     1       2.015   8.430  18.559  0.00  0.00    +0.000 A 
ATOM      7  N   UNL     1       2.297   9.214  17.501  0.00  0.00    +0.000 NA
ATOM      8  N   UNL     1       1.578  10.316  17.765  0.00  0.00    +0.000 N 
ATOM      9  H   UNL     1      -0.030  12.084  18.928  0.00  0.00    +0.000 HD
ATOM     10  H   UNL     1       1.622  11.093  17.119  0.00  0.00    +0.000 HD
ENDROOT
BRANCH   6  11
ATOM     11  C   UNL     1       2.576   7.089  18.808  0.00  0.00    +0.000 A 
ATOM     12  C   UNL     1       3.540   6.569  17.948  0.00  0.00    +0.000 A 
ATOM     13  C   UNL     1       4.017   5.281  18.174  0.00  0.00    +0.000 A 
ATOM     14  C   UNL     1       3.525   4.535  19.250  0.00  0.00    +0.000 A 
ATOM     15  C   UNL     1       3.959   3.219  19.501  0.00  0.00    +0.000 A 
ATOM     16  C   UNL     1       3.443   2.500  20.577  0.00  0.00    +0.000 A 
ATOM     17  C   UNL     1       2.496   3.092  21.406  0.00  0.00    +0.000 A 
ATOM     18  C   UNL     1       2.070   4.401  21.153  0.00  0.00    +0.000 A 
ATOM     19  C   UNL     1       2.560   5.139  20.082  0.00  0.00    +0.000 A 
ATOM     20  N   UNL     1       2.098   6.385  19.871  0.00  0.00    +0.000 NA
ENDBRANCH   6  11
BRANCH   1  22
ATOM     21  C   UNL     1      -2.354  12.682  20.042  0.00  0.00    +0.000 C 
ATOM     22  C   UNL     1      -1.366  12.288  21.150  0.00  0.00    +0.000 C 
ATOM     23  C   UNL     1      -2.109  12.046  22.486  0.00  0.00    +0.000 C 
ATOM     24  C   UNL     1      -1.506  13.128  23.384  0.00  0.00    +0.000 C 
ATOM     25  C   UNL     1      -1.950  14.529  22.948  0.00  0.00    +0.000 C 
ATOM     26  C   UNL     1      -1.075  14.777  21.719  0.00  0.00    +0.000 C 
ATOM     27  C   UNL     1      -0.390  13.421  21.542  0.00  0.00    +0.000 C 
ATOM     28  O   UNL     1      -0.129  13.088  22.939  0.00  0.00    +0.000 OA
ENDBRANCH   1  22
TORSDOF 2
ENDMDL
