MODEL 1
REMARK VINA RESULT:      -9.7      0.000      0.000
REMARK  Name = 
REMARK  7 active torsions:
REMARK  status: ('A' for Active; 'I' for Inactive)
REMARK    1  A    between atoms: C_1  and  C_2
REMARK    2  A    between atoms: C_2  and  C_3
REMARK    3  A    between atoms: C_10  and  S_11
REMARK    4  A    between atoms: S_11  and  N_14
REMARK    5  A    between atoms: N_14  and  C_15
REMARK    6  A    between atoms: N_17  and  C_18
REMARK    7  A    between atoms: C_18  and  C_19
REMARK                            x       y       z     vdW  Elec       q    Type
REMARK                         _______ _______ _______ _____ _____    ______ ____
ROOT
ATOM      1  S   UNL     1       7.154   5.601  18.659  0.00  0.00    +0.000 S 
ATOM      2  O   UNL     1       7.411   6.945  18.195  0.00  0.00    +0.000 OA
ATOM      3  O   UNL     1       7.536   5.152  19.980  0.00  0.00    +0.000 OA
ENDROOT
BRANCH   1  13
ATOM      4  C   UNL     1       2.833   2.549  20.906  0.00  0.00    +0.000 C 
ATOM      5  C   UNL     1       2.694   2.766  19.401  0.00  0.00    +0.000 C 
ATOM      6  C   UNL     1       3.080   1.529  18.594  0.00  0.00    +0.000 C 
ATOM      7  C   UNL     1       1.262   3.226  19.039  0.00  0.00    +0.000 C 
ATOM      8  O   UNL     1       0.225   2.616  19.220  0.00  0.00    +0.000 OA
ATOM      9  N   UNL     1       1.361   4.482  18.437  0.00  0.00    +0.000 N 
ATOM     10  C   UNL     1       2.677   4.910  18.381  0.00  0.00    +0.000 A 
ATOM     11  C   UNL     1       3.164   6.097  17.860  0.00  0.00    +0.000 A 
ATOM     12  C   UNL     1       4.554   6.308  17.928  0.00  0.00    +0.000 A 
ATOM     13  C   UNL     1       5.391   5.337  18.515  0.00  0.00    +0.000 A 
ATOM     14  C   UNL     1       4.870   4.142  19.031  0.00  0.00    +0.000 A 
ATOM     15  C   UNL     1       3.513   3.955  18.946  0.00  0.00    +0.000 A 
ATOM     16  H   UNL     1       0.554   4.989  18.110  0.00  0.00    +0.000 HD
ENDBRANCH   1  13
BRANCH   1  17
ATOM     17  N   UNL     1       7.752   4.489  17.511  0.00  0.00    +0.000 N 
ATOM     18  H   UNL     1       7.630   3.540  17.862  0.00  0.00    +0.000 HD
BRANCH  17  19
ATOM     19  C   UNL     1       7.246   4.616  16.220  0.00  0.00    +0.000 A 
ATOM     20  C   UNL     1       6.286   3.858  15.595  0.00  0.00    +0.000 A 
ATOM     21  N   UNL     1       6.126   4.466  14.382  0.00  0.00    +0.000 N 
ATOM     22  N   UNL     1       6.925   5.545  14.270  0.00  0.00    +0.000 NA
ATOM     23  N   UNL     1       7.596   5.659  15.410  0.00  0.00    +0.000 NA
BRANCH  21  24
ATOM     24  C   UNL     1       5.176   4.141  13.329  0.00  0.00    +0.000 C 
BRANCH  24  25
ATOM     25  C   UNL     1       5.815   3.241  12.304  0.00  0.00    +0.000 A 
ATOM     26  C   UNL     1       5.096   2.168  11.758  0.00  0.00    +0.000 A 
ATOM     27  C   UNL     1       5.744   1.214  10.974  0.00  0.00    +0.000 A 
ATOM     28  C   UNL     1       7.105   1.339  10.705  0.00  0.00    +0.000 A 
ATOM     29  C   UNL     1       7.811   2.442  11.181  0.00  0.00    +0.000 A 
ATOM     30  C   UNL     1       7.171   3.393  11.975  0.00  0.00    +0.000 A 
ENDBRANCH  24  25
ENDBRANCH  21  24
ENDBRANCH  17  19
ENDBRANCH   1  17
TORSDOF 5
ENDMDL
MODEL 2
REMARK VINA RESULT:      -8.6      4.638      6.819
REMARK  Name = 
REMARK  7 active torsions:
REMARK  status: ('A' for Active; 'I' for Inactive)
REMARK    1  A    between atoms: C_1  and  C_2
REMARK    2  A    between atoms: C_2  and  C_3
REMARK    3  A    between atoms: C_10  and  S_11
REMARK    4  A    between atoms: S_11  and  N_14
REMARK    5  A    between atoms: N_14  and  C_15
REMARK    6  A    between atoms: N_17  and  C_18
REMARK    7  A    between atoms: C_18  and  C_19
REMARK                            x       y       z     vdW  Elec       q    Type
REMARK                         _______ _______ _______ _____ _____    ______ ____
ROOT
ATOM      1  S   UNL     1       7.447   5.114  18.268  0.00  0.00    +0.000 S 
ATOM      2  O   UNL     1       7.509   5.653  19.607  0.00  0.00    +0.000 OA
ATOM      3  O   UNL     1       8.363   4.098  17.799  0.00  0.00    +0.000 OA
ENDROOT
BRANCH   1  13
ATOM      4  C   UNL     1       2.258   5.017  20.737  0.00  0.00    +0.000 C 
ATOM      5  C   UNL     1       2.624   3.698  20.060  0.00  0.00    +0.000 C 
ATOM      6  C   UNL     1       3.063   2.631  21.059  0.00  0.00    +0.000 C 
ATOM      7  C   UNL     1       1.455   3.180  19.190  0.00  0.00    +0.000 C 
ATOM      8  O   UNL     1       0.337   2.875  19.563  0.00  0.00    +0.000 OA
ATOM      9  N   UNL     1       1.912   3.099  17.873  0.00  0.00    +0.000 N 
ATOM     10  C   UNL     1       3.227   3.521  17.770  0.00  0.00    +0.000 A 
ATOM     11  C   UNL     1       4.013   3.585  16.633  0.00  0.00    +0.000 A 
ATOM     12  C   UNL     1       5.328   4.061  16.785  0.00  0.00    +0.000 A 
ATOM     13  C   UNL     1       5.797   4.459  18.054  0.00  0.00    +0.000 A 
ATOM     14  C   UNL     1       4.979   4.379  19.190  0.00  0.00    +0.000 A 
ATOM     15  C   UNL     1       3.703   3.904  19.019  0.00  0.00    +0.000 A 
ATOM     16  H   UNL     1       1.325   2.783  17.116  0.00  0.00    +0.000 HD
ENDBRANCH   1  13
BRANCH   1  17
ATOM     17  N   UNL     1       7.442   6.401  17.147  0.00  0.00    +0.000 N 
ATOM     18  H   UNL     1       6.555   6.413  16.646  0.00  0.00    +0.000 HD
BRANCH  17  19
ATOM     19  C   UNL     1       7.743   7.659  17.663  0.00  0.00    +0.000 A 
ATOM     20  C   UNL     1       8.660   7.995  18.629  0.00  0.00    +0.000 A 
ATOM     21  N   UNL     1       8.593   9.358  18.686  0.00  0.00    +0.000 N 
ATOM     22  N   UNL     1       7.700   9.838  17.797  0.00  0.00    +0.000 NA
ATOM     23  N   UNL     1       7.195   8.799  17.145  0.00  0.00    +0.000 NA
BRANCH  21  24
ATOM     24  C   UNL     1       9.403  10.269  19.481  0.00  0.00    +0.000 C 
BRANCH  24  25
ATOM     25  C   UNL     1       9.754  11.496  18.681  0.00  0.00    +0.000 A 
ATOM     26  C   UNL     1      10.865  11.488  17.826  0.00  0.00    +0.000 A 
ATOM     27  C   UNL     1      11.315  12.675  17.247  0.00  0.00    +0.000 A 
ATOM     28  C   UNL     1      10.644  13.870  17.495  0.00  0.00    +0.000 A 
ATOM     29  C   UNL     1       9.495  13.875  18.283  0.00  0.00    +0.000 A 
ATOM     30  C   UNL     1       9.047  12.692  18.872  0.00  0.00    +0.000 A 
ENDBRANCH  24  25
ENDBRANCH  21  24
ENDBRANCH  17  19
ENDBRANCH   1  17
TORSDOF 5
ENDMDL
MODEL 3
REMARK VINA RESULT:      -8.3      4.817      6.944
REMARK  Name = 
REMARK  7 active torsions:
REMARK  status: ('A' for Active; 'I' for Inactive)
REMARK    1  A    between atoms: C_1  and  C_2
REMARK    2  A    between atoms: C_2  and  C_3
REMARK    3  A    between atoms: C_10  and  S_11
REMARK    4  A    between atoms: S_11  and  N_14
REMARK    5  A    between atoms: N_14  and  C_15
REMARK    6  A    between atoms: N_17  and  C_18
REMARK    7  A    between atoms: C_18  and  C_19
REMARK                            x       y       z     vdW  Elec       q    Type
REMARK                         _______ _______ _______ _____ _____    ______ ____
ROOT
ATOM      1  S   UNL     1       7.439   5.521  18.057  0.00  0.00    +0.000 S 
ATOM      2  O   UNL     1       7.768   5.932  19.402  0.00  0.00    +0.000 OA
ATOM      3  O   UNL     1       8.046   4.368  17.429  0.00  0.00    +0.000 OA
ENDROOT
BRANCH   1  13
ATOM      4  C   UNL     1       3.247   2.562  20.646  0.00  0.00    +0.000 C 
ATOM      5  C   UNL     1       3.026   2.725  19.144  0.00  0.00    +0.000 C 
ATOM      6  C   UNL     1       3.365   1.460  18.362  0.00  0.00    +0.000 C 
ATOM      7  C   UNL     1       1.576   3.175  18.845  0.00  0.00    +0.000 C 
ATOM      8  O   UNL     1       0.550   2.575  19.104  0.00  0.00    +0.000 OA
ATOM      9  N   UNL     1       1.642   4.408  18.193  0.00  0.00    +0.000 N 
ATOM     10  C   UNL     1       2.953   4.832  18.050  0.00  0.00    +0.000 A 
ATOM     11  C   UNL     1       3.411   5.997  17.461  0.00  0.00    +0.000 A 
ATOM     12  C   UNL     1       4.803   6.207  17.444  0.00  0.00    +0.000 A 
ATOM     13  C   UNL     1       5.671   5.256  18.019  0.00  0.00    +0.000 A 
ATOM     14  C   UNL     1       5.178   4.082  18.606  0.00  0.00    +0.000 A 
ATOM     15  C   UNL     1       3.819   3.895  18.603  0.00  0.00    +0.000 A 
ATOM     16  H   UNL     1       0.818   4.906  17.893  0.00  0.00    +0.000 HD
ENDBRANCH   1  13
BRANCH   1  17
ATOM     17  N   UNL     1       7.598   6.858  17.009  0.00  0.00    +0.000 N 
ATOM     18  H   UNL     1       6.773   6.925  16.415  0.00  0.00    +0.000 HD
BRANCH  17  19
ATOM     19  C   UNL     1       7.876   8.079  17.618  0.00  0.00    +0.000 A 
ATOM     20  C   UNL     1       8.832   8.371  18.560  0.00  0.00    +0.000 A 
ATOM     21  N   UNL     1       8.713   9.721  18.742  0.00  0.00    +0.000 N 
ATOM     22  N   UNL     1       7.753  10.234  17.948  0.00  0.00    +0.000 NA
ATOM     23  N   UNL     1       7.255   9.233  17.233  0.00  0.00    +0.000 NA
BRANCH  21  24
ATOM     24  C   UNL     1       9.529  10.595  19.571  0.00  0.00    +0.000 C 
BRANCH  24  25
ATOM     25  C   UNL     1       9.969  11.803  18.787  0.00  0.00    +0.000 A 
ATOM     26  C   UNL     1      11.003  11.697  17.845  0.00  0.00    +0.000 A 
ATOM     27  C   UNL     1      11.552  12.844  17.273  0.00  0.00    +0.000 A 
ATOM     28  C   UNL     1      11.057  14.100  17.614  0.00  0.00    +0.000 A 
ATOM     29  C   UNL     1       9.981  14.211  18.492  0.00  0.00    +0.000 A 
ATOM     30  C   UNL     1       9.434  13.067  19.075  0.00  0.00    +0.000 A 
ENDBRANCH  24  25
ENDBRANCH  21  24
ENDBRANCH  17  19
ENDBRANCH   1  17
TORSDOF 5
ENDMDL
MODEL 4
REMARK VINA RESULT:      -8.2      3.584      4.643
REMARK  Name = 
REMARK  7 active torsions:
REMARK  status: ('A' for Active; 'I' for Inactive)
REMARK    1  A    between atoms: C_1  and  C_2
REMARK    2  A    between atoms: C_2  and  C_3
REMARK    3  A    between atoms: C_10  and  S_11
REMARK    4  A    between atoms: S_11  and  N_14
REMARK    5  A    between atoms: N_14  and  C_15
REMARK    6  A    between atoms: N_17  and  C_18
REMARK    7  A    between atoms: C_18  and  C_19
REMARK                            x       y       z     vdW  Elec       q    Type
REMARK                         _______ _______ _______ _____ _____    ______ ____
ROOT
ATOM      1  S   UNL     1       3.460   5.066  19.123  0.00  0.00    +0.000 S 
ATOM      2  O   UNL     1       3.004   4.426  20.336  0.00  0.00    +0.000 OA
ATOM      3  O   UNL     1       3.280   4.469  17.818  0.00  0.00    +0.000 OA
ENDROOT
BRANCH   1  13
ATOM      4  C   UNL     1       1.631   9.336  22.507  0.00  0.00    +0.000 C 
ATOM      5  C   UNL     1       0.733   9.107  21.293  0.00  0.00    +0.000 C 
ATOM      6  C   UNL     1      -0.544   8.351  21.645  0.00  0.00    +0.000 C 
ATOM      7  C   UNL     1       0.397  10.447  20.596  0.00  0.00    +0.000 C 
ATOM      8  O   UNL     1      -0.198  11.396  21.070  0.00  0.00    +0.000 OA
ATOM      9  N   UNL     1       0.884  10.376  19.289  0.00  0.00    +0.000 N 
ATOM     10  C   UNL     1       1.517   9.167  19.052  0.00  0.00    +0.000 A 
ATOM     11  C   UNL     1       2.122   8.737  17.884  0.00  0.00    +0.000 A 
ATOM     12  C   UNL     1       2.710   7.459  17.895  0.00  0.00    +0.000 A 
ATOM     13  C   UNL     1       2.677   6.673  19.066  0.00  0.00    +0.000 A 
ATOM     14  C   UNL     1       2.053   7.132  20.234  0.00  0.00    +0.000 A 
ATOM     15  C   UNL     1       1.479   8.379  20.197  0.00  0.00    +0.000 A 
ATOM     16  H   UNL     1       0.782  11.135  18.633  0.00  0.00    +0.000 HD
ENDBRANCH   1  13
BRANCH   1  17
ATOM     17  N   UNL     1       5.100   5.500  19.302  0.00  0.00    +0.000 N 
ATOM     18  H   UNL     1       5.484   5.045  20.128  0.00  0.00    +0.000 HD
BRANCH  17  19
ATOM     19  C   UNL     1       5.911   5.288  18.190  0.00  0.00    +0.000 A 
ATOM     20  C   UNL     1       5.842   5.877  16.951  0.00  0.00    +0.000 A 
ATOM     21  N   UNL     1       6.916   5.361  16.282  0.00  0.00    +0.000 N 
ATOM     22  N   UNL     1       7.617   4.518  17.065  0.00  0.00    +0.000 NA
ATOM     23  N   UNL     1       7.019   4.491  18.250  0.00  0.00    +0.000 NA
BRANCH  21  24
ATOM     24  C   UNL     1       7.390   5.691  14.946  0.00  0.00    +0.000 C 
BRANCH  24  25
ATOM     25  C   UNL     1       6.832   4.723  13.937  0.00  0.00    +0.000 A 
ATOM     26  C   UNL     1       7.542   4.441  12.760  0.00  0.00    +0.000 A 
ATOM     27  C   UNL     1       6.940   3.714  11.734  0.00  0.00    +0.000 A 
ATOM     28  C   UNL     1       5.638   3.240  11.884  0.00  0.00    +0.000 A 
ATOM     29  C   UNL     1       4.953   3.452  13.078  0.00  0.00    +0.000 A 
ATOM     30  C   UNL     1       5.546   4.187  14.104  0.00  0.00    +0.000 A 
ENDBRANCH  24  25
ENDBRANCH  21  24
ENDBRANCH  17  19
ENDBRANCH   1  17
TORSDOF 5
ENDMDL
MODEL 5
REMARK VINA RESULT:      -8.2      4.385      8.463
REMARK  Name = 
REMARK  7 active torsions:
REMARK  status: ('A' for Active; 'I' for Inactive)
REMARK    1  A    between atoms: C_1  and  C_2
REMARK    2  A    between atoms: C_2  and  C_3
REMARK    3  A    between atoms: C_10  and  S_11
REMARK    4  A    between atoms: S_11  and  N_14
REMARK    5  A    between atoms: N_14  and  C_15
REMARK    6  A    between atoms: N_17  and  C_18
REMARK    7  A    between atoms: C_18  and  C_19
REMARK                            x       y       z     vdW  Elec       q    Type
REMARK                         _______ _______ _______ _____ _____    ______ ____
ROOT
ATOM      1  S   UNL     1       1.903   5.174  20.546  0.00  0.00    +0.000 S 
ATOM      2  O   UNL     1       0.582   5.284  19.970  0.00  0.00    +0.000 OA
ATOM      3  O   UNL     1       2.183   4.322  21.681  0.00  0.00    +0.000 OA
ENDROOT
BRANCH   1  13
ATOM      4  C   UNL     1       7.384   5.450  18.840  0.00  0.00    +0.000 C 
ATOM      5  C   UNL     1       6.392   5.518  17.682  0.00  0.00    +0.000 C 
ATOM      6  C   UNL     1       6.209   6.937  17.151  0.00  0.00    +0.000 C 
ATOM      7  C   UNL     1       6.809   4.560  16.540  0.00  0.00    +0.000 C 
ATOM      8  O   UNL     1       7.835   4.595  15.888  0.00  0.00    +0.000 OA
ATOM      9  N   UNL     1       5.776   3.637  16.365  0.00  0.00    +0.000 N 
ATOM     10  C   UNL     1       4.746   3.857  17.265  0.00  0.00    +0.000 A 
ATOM     11  C   UNL     1       3.565   3.148  17.395  0.00  0.00    +0.000 A 
ATOM     12  C   UNL     1       2.671   3.564  18.399  0.00  0.00    +0.000 A 
ATOM     13  C   UNL     1       2.996   4.656  19.230  0.00  0.00    +0.000 A 
ATOM     14  C   UNL     1       4.199   5.358  19.073  0.00  0.00    +0.000 A 
ATOM     15  C   UNL     1       5.051   4.940  18.081  0.00  0.00    +0.000 A 
ATOM     16  H   UNL     1       5.817   2.907  15.671  0.00  0.00    +0.000 HD
ENDBRANCH   1  13
BRANCH   1  17
ATOM     17  N   UNL     1       2.499   6.738  20.879  0.00  0.00    +0.000 N 
ATOM     18  H   UNL     1       3.509   6.752  20.747  0.00  0.00    +0.000 HD
BRANCH  17  19
ATOM     19  C   UNL     1       1.889   7.782  20.188  0.00  0.00    +0.000 A 
ATOM     20  C   UNL     1       1.083   8.780  20.677  0.00  0.00    +0.000 A 
ATOM     21  N   UNL     1       0.834   9.565  19.586  0.00  0.00    +0.000 N 
ATOM     22  N   UNL     1       1.462   9.090  18.493  0.00  0.00    +0.000 NA
ATOM     23  N   UNL     1       2.136   8.009  18.864  0.00  0.00    +0.000 NA
BRANCH  21  24
ATOM     24  C   UNL     1       0.096  10.818  19.526  0.00  0.00    +0.000 C 
BRANCH  24  25
ATOM     25  C   UNL     1      -1.164  10.649  18.719  0.00  0.00    +0.000 A 
ATOM     26  C   UNL     1      -1.174   9.815  17.591  0.00  0.00    +0.000 A 
ATOM     27  C   UNL     1      -2.268   9.818  16.726  0.00  0.00    +0.000 A 
ATOM     28  C   UNL     1      -3.368  10.630  16.993  0.00  0.00    +0.000 A 
ATOM     29  C   UNL     1      -3.397  11.405  18.150  0.00  0.00    +0.000 A 
ATOM     30  C   UNL     1      -2.302  11.414  19.013  0.00  0.00    +0.000 A 
ENDBRANCH  24  25
ENDBRANCH  21  24
ENDBRANCH  17  19
ENDBRANCH   1  17
TORSDOF 5
ENDMDL
MODEL 6
REMARK VINA RESULT:      -8.0      4.424      6.570
REMARK  Name = 
REMARK  7 active torsions:
REMARK  status: ('A' for Active; 'I' for Inactive)
REMARK    1  A    between atoms: C_1  and  C_2
REMARK    2  A    between atoms: C_2  and  C_3
REMARK    3  A    between atoms: C_10  and  S_11
REMARK    4  A    between atoms: S_11  and  N_14
REMARK    5  A    between atoms: N_14  and  C_15
REMARK    6  A    between atoms: N_17  and  C_18
REMARK    7  A    between atoms: C_18  and  C_19
REMARK                            x       y       z     vdW  Elec       q    Type
REMARK                         _______ _______ _______ _____ _____    ______ ____
ROOT
ATOM      1  S   UNL     1       6.040   5.530  16.402  0.00  0.00    +0.000 S 
ATOM      2  O   UNL     1       6.125   4.231  15.775  0.00  0.00    +0.000 OA
ATOM      3  O   UNL     1       5.820   6.742  15.644  0.00  0.00    +0.000 OA
ENDROOT
BRANCH   1  13
ATOM      4  C   UNL     1       4.054   2.245  20.679  0.00  0.00    +0.000 C 
ATOM      5  C   UNL     1       2.943   2.893  19.856  0.00  0.00    +0.000 C 
ATOM      6  C   UNL     1       2.296   1.918  18.876  0.00  0.00    +0.000 C 
ATOM      7  C   UNL     1       1.873   3.528  20.776  0.00  0.00    +0.000 C 
ATOM      8  O   UNL     1       1.172   2.960  21.591  0.00  0.00    +0.000 OA
ATOM      9  N   UNL     1       1.831   4.895  20.494  0.00  0.00    +0.000 N 
ATOM     10  C   UNL     1       2.756   5.236  19.521  0.00  0.00    +0.000 A 
ATOM     11  C   UNL     1       3.007   6.488  18.987  0.00  0.00    +0.000 A 
ATOM     12  C   UNL     1       4.011   6.582  18.006  0.00  0.00    +0.000 A 
ATOM     13  C   UNL     1       4.724   5.432  17.609  0.00  0.00    +0.000 A 
ATOM     14  C   UNL     1       4.447   4.175  18.165  0.00  0.00    +0.000 A 
ATOM     15  C   UNL     1       3.456   4.107  19.113  0.00  0.00    +0.000 A 
ATOM     16  H   UNL     1       1.204   5.525  20.969  0.00  0.00    +0.000 HD
ENDBRANCH   1  13
BRANCH   1  17
ATOM     17  N   UNL     1       7.399   5.756  17.408  0.00  0.00    +0.000 N 
ATOM     18  H   UNL     1       8.211   5.303  16.991  0.00  0.00    +0.000 HD
BRANCH  17  19
ATOM     19  C   UNL     1       7.685   7.073  17.759  0.00  0.00    +0.000 A 
ATOM     20  C   UNL     1       8.408   7.540  18.830  0.00  0.00    +0.000 A 
ATOM     21  N   UNL     1       8.436   8.893  18.642  0.00  0.00    +0.000 N 
ATOM     22  N   UNL     1       7.786   9.240  17.514  0.00  0.00    +0.000 NA
ATOM     23  N   UNL     1       7.347   8.122  16.952  0.00  0.00    +0.000 NA
BRANCH  21  24
ATOM     24  C   UNL     1       9.134   9.898  19.429  0.00  0.00    +0.000 C 
BRANCH  24  25
ATOM     25  C   UNL     1       9.583  11.036  18.550  0.00  0.00    +0.000 A 
ATOM     26  C   UNL     1      10.876  11.044  18.009  0.00  0.00    +0.000 A 
ATOM     27  C   UNL     1      11.364  12.186  17.373  0.00  0.00    +0.000 A 
ATOM     28  C   UNL     1      10.558  13.314  17.249  0.00  0.00    +0.000 A 
ATOM     29  C   UNL     1       9.246  13.290  17.718  0.00  0.00    +0.000 A 
ATOM     30  C   UNL     1       8.756  12.155  18.364  0.00  0.00    +0.000 A 
ENDBRANCH  24  25
ENDBRANCH  21  24
ENDBRANCH  17  19
ENDBRANCH   1  17
TORSDOF 5
ENDMDL
MODEL 7
REMARK VINA RESULT:      -8.0      7.656      9.975
REMARK  Name = 
REMARK  7 active torsions:
REMARK  status: ('A' for Active; 'I' for Inactive)
REMARK    1  A    between atoms: C_1  and  C_2
REMARK    2  A    between atoms: C_2  and  C_3
REMARK    3  A    between atoms: C_10  and  S_11
REMARK    4  A    between atoms: S_11  and  N_14
REMARK    5  A    between atoms: N_14  and  C_15
REMARK    6  A    between atoms: N_17  and  C_18
REMARK    7  A    between atoms: C_18  and  C_19
REMARK                            x       y       z     vdW  Elec       q    Type
REMARK                         _______ _______ _______ _____ _____    ______ ____
ROOT
ATOM      1  S   UNL     1       0.168  11.737  19.397  0.00  0.00    +0.000 S 
ATOM      2  O   UNL     1      -0.364  12.667  18.427  0.00  0.00    +0.000 OA
ATOM      3  O   UNL     1       1.532  11.814  19.875  0.00  0.00    +0.000 OA
ENDROOT
BRANCH   1  13
ATOM      4  C   UNL     1      -5.278  12.701  20.958  0.00  0.00    +0.000 C 
ATOM      5  C   UNL     1      -4.262  13.269  21.946  0.00  0.00    +0.000 C 
ATOM      6  C   UNL     1      -4.090  14.778  21.805  0.00  0.00    +0.000 C 
ATOM      7  C   UNL     1      -4.641  12.899  23.400  0.00  0.00    +0.000 C 
ATOM      8  O   UNL     1      -5.653  13.209  24.000  0.00  0.00    +0.000 OA
ATOM      9  N   UNL     1      -3.590  12.148  23.931  0.00  0.00    +0.000 N 
ATOM     10  C   UNL     1      -2.583  11.961  22.999  0.00  0.00    +0.000 A 
ATOM     11  C   UNL     1      -1.394  11.271  23.157  0.00  0.00    +0.000 A 
ATOM     12  C   UNL     1      -0.529  11.214  22.049  0.00  0.00    +0.000 A 
ATOM     13  C   UNL     1      -0.889  11.836  20.836  0.00  0.00    +0.000 A 
ATOM     14  C   UNL     1      -2.098  12.532  20.705  0.00  0.00    +0.000 A 
ATOM     15  C   UNL     1      -2.922  12.581  21.802  0.00  0.00    +0.000 A 
ATOM     16  H   UNL     1      -3.604  11.791  24.874  0.00  0.00    +0.000 HD
ENDBRANCH   1  13
BRANCH   1  17
ATOM     17  N   UNL     1      -0.135  10.143  18.869  0.00  0.00    +0.000 N 
ATOM     18  H   UNL     1      -0.747  10.165  18.056  0.00  0.00    +0.000 HD
BRANCH  17  19
ATOM     19  C   UNL     1       0.990   9.357  18.630  0.00  0.00    +0.000 A 
ATOM     20  C   UNL     1       1.515   8.351  19.403  0.00  0.00    +0.000 A 
ATOM     21  N   UNL     1       2.559   7.877  18.660  0.00  0.00    +0.000 N 
ATOM     22  N   UNL     1       2.662   8.538  17.491  0.00  0.00    +0.000 NA
ATOM     23  N   UNL     1       1.681   9.431  17.454  0.00  0.00    +0.000 NA
BRANCH  21  24
ATOM     24  C   UNL     1       3.433   6.750  18.949  0.00  0.00    +0.000 C 
BRANCH  24  25
ATOM     25  C   UNL     1       2.623   5.499  19.169  0.00  0.00    +0.000 A 
ATOM     26  C   UNL     1       2.170   4.749  18.075  0.00  0.00    +0.000 A 
ATOM     27  C   UNL     1       1.251   3.717  18.263  0.00  0.00    +0.000 A 
ATOM     28  C   UNL     1       0.799   3.409  19.545  0.00  0.00    +0.000 A 
ATOM     29  C   UNL     1       1.300   4.100  20.645  0.00  0.00    +0.000 A 
ATOM     30  C   UNL     1       2.212   5.140  20.462  0.00  0.00    +0.000 A 
ENDBRANCH  24  25
ENDBRANCH  21  24
ENDBRANCH  17  19
ENDBRANCH   1  17
TORSDOF 5
ENDMDL
MODEL 8
REMARK VINA RESULT:      -8.0      4.502      8.808
REMARK  Name = 
REMARK  7 active torsions:
REMARK  status: ('A' for Active; 'I' for Inactive)
REMARK    1  A    between atoms: C_1  and  C_2
REMARK    2  A    between atoms: C_2  and  C_3
REMARK    3  A    between atoms: C_10  and  S_11
REMARK    4  A    between atoms: S_11  and  N_14
REMARK    5  A    between atoms: N_14  and  C_15
REMARK    6  A    between atoms: N_17  and  C_18
REMARK    7  A    between atoms: C_18  and  C_19
REMARK                            x       y       z     vdW  Elec       q    Type
REMARK                         _______ _______ _______ _____ _____    ______ ____
ROOT
ATOM      1  S   UNL     1       1.983   5.009  20.596  0.00  0.00    +0.000 S 
ATOM      2  O   UNL     1       0.646   5.099  20.053  0.00  0.00    +0.000 OA
ATOM      3  O   UNL     1       2.310   4.145  21.709  0.00  0.00    +0.000 OA
ENDROOT
BRANCH   1  13
ATOM      4  C   UNL     1       7.410   5.445  18.757  0.00  0.00    +0.000 C 
ATOM      5  C   UNL     1       6.388   5.506  17.625  0.00  0.00    +0.000 C 
ATOM      6  C   UNL     1       6.158   6.928  17.122  0.00  0.00    +0.000 C 
ATOM      7  C   UNL     1       6.799   4.577  16.459  0.00  0.00    +0.000 C 
ATOM      8  O   UNL     1       7.807   4.646  15.781  0.00  0.00    +0.000 OA
ATOM      9  N   UNL     1       5.785   3.631  16.294  0.00  0.00    +0.000 N 
ATOM     10  C   UNL     1       4.773   3.812  17.223  0.00  0.00    +0.000 A 
ATOM     11  C   UNL     1       3.612   3.073  17.372  0.00  0.00    +0.000 A 
ATOM     12  C   UNL     1       2.735   3.451  18.405  0.00  0.00    +0.000 A 
ATOM     13  C   UNL     1       3.055   4.538  19.245  0.00  0.00    +0.000 A 
ATOM     14  C   UNL     1       4.236   5.272  19.068  0.00  0.00    +0.000 A 
ATOM     15  C   UNL     1       5.072   4.889  18.049  0.00  0.00    +0.000 A 
ATOM     16  H   UNL     1       5.825   2.913  15.588  0.00  0.00    +0.000 HD
ENDBRANCH   1  13
BRANCH   1  17
ATOM     17  N   UNL     1       2.552   6.580  20.941  0.00  0.00    +0.000 N 
ATOM     18  H   UNL     1       3.518   6.669  20.628  0.00  0.00    +0.000 HD
BRANCH  17  19
ATOM     19  C   UNL     1       1.772   7.630  20.461  0.00  0.00    +0.000 A 
ATOM     20  C   UNL     1       0.817   8.362  21.123  0.00  0.00    +0.000 A 
ATOM     21  N   UNL     1       0.432   9.302  20.209  0.00  0.00    +0.000 N 
ATOM     22  N   UNL     1       1.119   9.169  19.058  0.00  0.00    +0.000 NA
ATOM     23  N   UNL     1       1.966   8.160  19.217  0.00  0.00    +0.000 NA
BRANCH  21  24
ATOM     24  C   UNL     1      -0.502  10.403  20.387  0.00  0.00    +0.000 C 
BRANCH  24  25
ATOM     25  C   UNL     1       0.152  11.711  20.026  0.00  0.00    +0.000 A 
ATOM     26  C   UNL     1      -0.237  12.400  18.868  0.00  0.00    +0.000 A 
ATOM     27  C   UNL     1       0.504  13.494  18.420  0.00  0.00    +0.000 A 
ATOM     28  C   UNL     1       1.618  13.924  19.138  0.00  0.00    +0.000 A 
ATOM     29  C   UNL     1       1.967  13.292  20.329  0.00  0.00    +0.000 A 
ATOM     30  C   UNL     1       1.236  12.190  20.776  0.00  0.00    +0.000 A 
ENDBRANCH  24  25
ENDBRANCH  21  24
ENDBRANCH  17  19
ENDBRANCH   1  17
TORSDOF 5
ENDMDL
MODEL 9
REMARK VINA RESULT:      -7.9      8.169     10.401
REMARK  Name = 
REMARK  7 active torsions:
REMARK  status: ('A' for Active; 'I' for Inactive)
REMARK    1  A    between atoms: C_1  and  C_2
REMARK    2  A    between atoms: C_2  and  C_3
REMARK    3  A    between atoms: C_10  and  S_11
REMARK    4  A    between atoms: S_11  and  N_14
REMARK    5  A    between atoms: N_14  and  C_15
REMARK    6  A    between atoms: N_17  and  C_18
REMARK    7  A    between atoms: C_18  and  C_19
REMARK                            x       y       z     vdW  Elec       q    Type
REMARK                         _______ _______ _______ _____ _____    ______ ____
ROOT
ATOM      1  S   UNL     1      -0.087  10.764  21.364  0.00  0.00    +0.000 S 
ATOM      2  O   UNL     1       1.045  11.629  21.608  0.00  0.00    +0.000 OA
ATOM      3  O   UNL     1      -0.360   9.598  22.175  0.00  0.00    +0.000 OA
ENDROOT
BRANCH   1  13
ATOM      4  C   UNL     1      -2.852  14.459  24.789  0.00  0.00    +0.000 C 
ATOM      5  C   UNL     1      -3.795  13.576  23.976  0.00  0.00    +0.000 C 
ATOM      6  C   UNL     1      -4.393  12.441  24.803  0.00  0.00    +0.000 C 
ATOM      7  C   UNL     1      -4.915  14.419  23.322  0.00  0.00    +0.000 C 
ATOM      8  O   UNL     1      -5.757  15.091  23.887  0.00  0.00    +0.000 OA
ATOM      9  N   UNL     1      -4.809  14.261  21.939  0.00  0.00    +0.000 N 
ATOM     10  C   UNL     1      -3.746  13.438  21.606  0.00  0.00    +0.000 A 
ATOM     11  C   UNL     1      -3.329  13.055  20.343  0.00  0.00    +0.000 A 
ATOM     12  C   UNL     1      -2.206  12.211  20.263  0.00  0.00    +0.000 A 
ATOM     13  C   UNL     1      -1.546  11.796  21.438  0.00  0.00    +0.000 A 
ATOM     14  C   UNL     1      -1.993  12.196  22.705  0.00  0.00    +0.000 A 
ATOM     15  C   UNL     1      -3.095  13.013  22.758  0.00  0.00    +0.000 A 
ATOM     16  H   UNL     1      -5.436  14.716  21.293  0.00  0.00    +0.000 HD
ENDBRANCH   1  13
BRANCH   1  17
ATOM     17  N   UNL     1      -0.091  10.299  19.722  0.00  0.00    +0.000 N 
ATOM     18  H   UNL     1      -0.085  11.129  19.133  0.00  0.00    +0.000 HD
BRANCH  17  19
ATOM     19  C   UNL     1       0.906   9.405  19.341  0.00  0.00    +0.000 A 
ATOM     20  C   UNL     1       1.420   8.341  20.040  0.00  0.00    +0.000 A 
ATOM     21  N   UNL     1       2.307   7.772  19.169  0.00  0.00    +0.000 N 
ATOM     22  N   UNL     1       2.327   8.435  17.996  0.00  0.00    +0.000 NA
ATOM     23  N   UNL     1       1.446   9.423  18.086  0.00  0.00    +0.000 NA
BRANCH  21  24
ATOM     24  C   UNL     1       3.090   6.558  19.343  0.00  0.00    +0.000 C 
BRANCH  24  25
ATOM     25  C   UNL     1       2.196   5.346  19.305  0.00  0.00    +0.000 A 
ATOM     26  C   UNL     1       1.624   4.852  20.486  0.00  0.00    +0.000 A 
ATOM     27  C   UNL     1       0.972   3.619  20.489  0.00  0.00    +0.000 A 
ATOM     28  C   UNL     1       0.863   2.885  19.310  0.00  0.00    +0.000 A 
ATOM     29  C   UNL     1       1.363   3.402  18.117  0.00  0.00    +0.000 A 
ATOM     30  C   UNL     1       2.025   4.630  18.111  0.00  0.00    +0.000 A 
ENDBRANCH  24  25
ENDBRANCH  21  24
ENDBRANCH  17  19
ENDBRANCH   1  17
TORSDOF 5
ENDMDL
