MODEL 1
REMARK VINA RESULT:      -9.6      0.000      0.000
REMARK  Name = 
REMARK  4 active torsions:
REMARK  status: ('A' for Active; 'I' for Inactive)
REMARK    1  A    between atoms: C_2  and  C_19
REMARK    2  A    between atoms: N_12  and  C_13
REMARK    3  A    between atoms: N_24  and  C_25
REMARK    4  A    between atoms: C_25  and  C_26
REMARK                            x       y       z     vdW  Elec       q    Type
REMARK                         _______ _______ _______ _____ _____    ______ ____
ROOT
ATOM      1  O   UNL     1       2.425   7.290  20.958  0.00  0.00    +0.000 OA
ATOM      2  C   UNL     1       1.827   7.989  20.146  0.00  0.00    +0.000 C 
ATOM      3  N   UNL     1       1.938   7.944  18.768  0.00  0.00    +0.000 N 
ATOM      4  C   UNL     1       2.884   7.144  18.171  0.00  0.00    +0.000 A 
ATOM      5  N   UNL     1       3.753   7.602  17.296  0.00  0.00    +0.000 NA
ATOM      6  C   UNL     1       4.542   6.532  16.953  0.00  0.00    +0.000 A 
ATOM      7  C   UNL     1       5.688   6.482  16.140  0.00  0.00    +0.000 A 
ATOM      8  C   UNL     1       6.310   5.247  15.906  0.00  0.00    +0.000 A 
ATOM      9  C   UNL     1       5.780   4.073  16.442  0.00  0.00    +0.000 A 
ATOM     10  C   UNL     1       4.641   4.107  17.245  0.00  0.00    +0.000 A 
ATOM     11  C   UNL     1       4.061   5.355  17.520  0.00  0.00    +0.000 A 
ATOM     12  N   UNL     1       2.993   5.768  18.302  0.00  0.00    +0.000 N 
ATOM     13  H   UNL     1       1.746   8.825  18.303  0.00  0.00    +0.000 HD
ENDROOT
BRANCH   2  14
ATOM     14  C   UNL     1       0.855   9.065  20.656  0.00  0.00    +0.000 A 
ATOM     15  C   UNL     1       0.402   8.943  22.056  0.00  0.00    +0.000 A 
ATOM     16  C   UNL     1      -0.423   9.885  22.517  0.00  0.00    +0.000 A 
ATOM     17  C   UNL     1      -0.868  10.988  21.657  0.00  0.00    +0.000 A 
ATOM     18  O   UNL     1      -1.607  11.855  22.117  0.00  0.00    +0.000 OA
ATOM     19  N   UNL     1      -0.417  10.958  20.337  0.00  0.00    +0.000 N 
ATOM     20  N   UNL     1       0.473  10.000  19.839  0.00  0.00    +0.000 NA
BRANCH  19  21
ATOM     21  C   UNL     1      -0.889  11.962  19.379  0.00  0.00    +0.000 C 
BRANCH  21  22
ATOM     22  C   UNL     1      -2.073  11.466  18.579  0.00  0.00    +0.000 A 
ATOM     23  C   UNL     1      -1.883  10.590  17.501  0.00  0.00    +0.000 A 
ATOM     24  C   UNL     1      -2.957  10.206  16.697  0.00  0.00    +0.000 A 
ATOM     25  C   UNL     1      -4.237  10.685  16.969  0.00  0.00    +0.000 A 
ATOM     26  C   UNL     1      -4.446  11.531  18.057  0.00  0.00    +0.000 A 
ATOM     27  C   UNL     1      -3.370  11.922  18.858  0.00  0.00    +0.000 A 
ENDBRANCH  21  22
ENDBRANCH  19  21
ENDBRANCH   2  14
BRANCH  12  28
ATOM     28  C   UNL     1       2.075   4.875  19.006  0.00  0.00    +0.000 C 
ATOM     29  C   UNL     1       2.718   4.252  20.259  0.00  0.00    +0.000 C 
ATOM     30  C   UNL     1       1.798   3.251  20.946  0.00  0.00    +0.000 C 
ATOM     31  C   UNL     1       1.295   2.195  19.969  0.00  0.00    +0.000 C 
ATOM     32  C   UNL     1       0.567   2.836  18.792  0.00  0.00    +0.000 C 
ATOM     33  C   UNL     1       1.463   3.828  18.055  0.00  0.00    +0.000 C 
ENDBRANCH  12  28
TORSDOF 4
ENDMDL
MODEL 2
REMARK VINA RESULT:      -8.9      1.701      2.887
REMARK  Name = 
REMARK  4 active torsions:
REMARK  status: ('A' for Active; 'I' for Inactive)
REMARK    1  A    between atoms: C_2  and  C_19
REMARK    2  A    between atoms: N_12  and  C_13
REMARK    3  A    between atoms: N_24  and  C_25
REMARK    4  A    between atoms: C_25  and  C_26
REMARK                            x       y       z     vdW  Elec       q    Type
REMARK                         _______ _______ _______ _____ _____    ______ ____
ROOT
ATOM      1  O   UNL     1       1.851   8.184  20.033  0.00  0.00    +0.000 OA
ATOM      2  C   UNL     1       1.592   8.573  18.899  0.00  0.00    +0.000 C 
ATOM      3  N   UNL     1       2.224   8.201  17.727  0.00  0.00    +0.000 N 
ATOM      4  C   UNL     1       3.348   7.409  17.762  0.00  0.00    +0.000 A 
ATOM      5  N   UNL     1       4.474   7.744  17.170  0.00  0.00    +0.000 NA
ATOM      6  C   UNL     1       5.362   6.736  17.451  0.00  0.00    +0.000 A 
ATOM      7  C   UNL     1       6.733   6.635  17.156  0.00  0.00    +0.000 A 
ATOM      8  C   UNL     1       7.431   5.474  17.521  0.00  0.00    +0.000 A 
ATOM      9  C   UNL     1       6.767   4.413  18.135  0.00  0.00    +0.000 A 
ATOM     10  C   UNL     1       5.406   4.495  18.428  0.00  0.00    +0.000 A 
ATOM     11  C   UNL     1       4.732   5.685  18.112  0.00  0.00    +0.000 A 
ATOM     12  N   UNL     1       3.435   6.136  18.305  0.00  0.00    +0.000 N 
ATOM     13  H   UNL     1       2.202   8.905  16.996  0.00  0.00    +0.000 HD
ENDROOT
BRANCH   2  14
ATOM     14  C   UNL     1       0.470   9.605  18.699  0.00  0.00    +0.000 A 
ATOM     15  C   UNL     1      -0.499   9.333  17.618  0.00  0.00    +0.000 A 
ATOM     16  C   UNL     1      -1.491  10.208  17.451  0.00  0.00    +0.000 A 
ATOM     17  C   UNL     1      -1.603  11.399  18.302  0.00  0.00    +0.000 A 
ATOM     18  O   UNL     1      -2.542  12.174  18.141  0.00  0.00    +0.000 OA
ATOM     19  N   UNL     1      -0.592  11.573  19.248  0.00  0.00    +0.000 N 
ATOM     20  N   UNL     1       0.441  10.654  19.465  0.00  0.00    +0.000 NA
BRANCH  19  21
ATOM     21  C   UNL     1      -0.564  12.783  20.075  0.00  0.00    +0.000 C 
BRANCH  21  22
ATOM     22  C   UNL     1      -1.462  12.661  21.286  0.00  0.00    +0.000 A 
ATOM     23  C   UNL     1      -1.118  11.799  22.338  0.00  0.00    +0.000 A 
ATOM     24  C   UNL     1      -1.987  11.606  23.412  0.00  0.00    +0.000 A 
ATOM     25  C   UNL     1      -3.205  12.280  23.453  0.00  0.00    +0.000 A 
ATOM     26  C   UNL     1      -3.546  13.164  22.430  0.00  0.00    +0.000 A 
ATOM     27  C   UNL     1      -2.680  13.353  21.350  0.00  0.00    +0.000 A 
ENDBRANCH  21  22
ENDBRANCH  19  21
ENDBRANCH   2  14
BRANCH  12  28
ATOM     28  C   UNL     1       2.342   5.334  18.850  0.00  0.00    +0.000 C 
ATOM     29  C   UNL     1       2.586   4.940  20.318  0.00  0.00    +0.000 C 
ATOM     30  C   UNL     1       1.494   4.030  20.864  0.00  0.00    +0.000 C 
ATOM     31  C   UNL     1       1.283   2.815  19.968  0.00  0.00    +0.000 C 
ATOM     32  C   UNL     1       0.934   3.236  18.544  0.00  0.00    +0.000 C 
ATOM     33  C   UNL     1       2.018   4.129  17.946  0.00  0.00    +0.000 C 
ENDBRANCH  12  28
TORSDOF 4
ENDMDL
MODEL 3
REMARK VINA RESULT:      -8.9      1.401      2.390
REMARK  Name = 
REMARK  4 active torsions:
REMARK  status: ('A' for Active; 'I' for Inactive)
REMARK    1  A    between atoms: C_2  and  C_19
REMARK    2  A    between atoms: N_12  and  C_13
REMARK    3  A    between atoms: N_24  and  C_25
REMARK    4  A    between atoms: C_25  and  C_26
REMARK                            x       y       z     vdW  Elec       q    Type
REMARK                         _______ _______ _______ _____ _____    ______ ____
ROOT
ATOM      1  O   UNL     1       2.342   7.459  20.973  0.00  0.00    +0.000 OA
ATOM      2  C   UNL     1       1.747   8.123  20.130  0.00  0.00    +0.000 C 
ATOM      3  N   UNL     1       1.865   8.023  18.756  0.00  0.00    +0.000 N 
ATOM      4  C   UNL     1       2.815   7.202  18.196  0.00  0.00    +0.000 A 
ATOM      5  N   UNL     1       3.689   7.626  17.308  0.00  0.00    +0.000 NA
ATOM      6  C   UNL     1       4.481   6.545  17.013  0.00  0.00    +0.000 A 
ATOM      7  C   UNL     1       5.631   6.464  16.208  0.00  0.00    +0.000 A 
ATOM      8  C   UNL     1       6.258   5.223  16.028  0.00  0.00    +0.000 A 
ATOM      9  C   UNL     1       5.728   4.071  16.608  0.00  0.00    +0.000 A 
ATOM     10  C   UNL     1       4.584   4.134  17.404  0.00  0.00    +0.000 A 
ATOM     11  C   UNL     1       4.000   5.391  17.625  0.00  0.00    +0.000 A 
ATOM     12  N   UNL     1       2.927   5.833  18.384  0.00  0.00    +0.000 N 
ATOM     13  H   UNL     1       1.673   8.884  18.255  0.00  0.00    +0.000 HD
ENDROOT
BRANCH   2  14
ATOM     14  C   UNL     1       0.769   9.217  20.591  0.00  0.00    +0.000 A 
ATOM     15  C   UNL     1       0.347   9.180  22.006  0.00  0.00    +0.000 A 
ATOM     16  C   UNL     1      -0.481  10.138  22.423  0.00  0.00    +0.000 A 
ATOM     17  C   UNL     1      -0.961  11.177  21.504  0.00  0.00    +0.000 A 
ATOM     18  O   UNL     1      -1.703  12.062  21.924  0.00  0.00    +0.000 OA
ATOM     19  N   UNL     1      -0.537  11.068  20.179  0.00  0.00    +0.000 N 
ATOM     20  N   UNL     1       0.357  10.092  19.724  0.00  0.00    +0.000 NA
BRANCH  19  21
ATOM     21  C   UNL     1      -1.045  12.001  19.169  0.00  0.00    +0.000 C 
BRANCH  21  22
ATOM     22  C   UNL     1      -0.128  13.190  18.987  0.00  0.00    +0.000 A 
ATOM     23  C   UNL     1       1.187  13.008  18.533  0.00  0.00    +0.000 A 
ATOM     24  C   UNL     1       2.069  14.087  18.456  0.00  0.00    +0.000 A 
ATOM     25  C   UNL     1       1.644  15.362  18.822  0.00  0.00    +0.000 A 
ATOM     26  C   UNL     1       0.330  15.563  19.244  0.00  0.00    +0.000 A 
ATOM     27  C   UNL     1      -0.552  14.483  19.329  0.00  0.00    +0.000 A 
ENDBRANCH  21  22
ENDBRANCH  19  21
ENDBRANCH   2  14
BRANCH  12  28
ATOM     28  C   UNL     1       2.008   4.966  19.119  0.00  0.00    +0.000 C 
ATOM     29  C   UNL     1       2.627   4.439  20.426  0.00  0.00    +0.000 C 
ATOM     30  C   UNL     1       1.708   3.464  21.151  0.00  0.00    +0.000 C 
ATOM     31  C   UNL     1       1.254   2.337  20.231  0.00  0.00    +0.000 C 
ATOM     32  C   UNL     1       0.547   2.886  18.996  0.00  0.00    +0.000 C 
ATOM     33  C   UNL     1       1.444   3.847  18.221  0.00  0.00    +0.000 C 
ENDBRANCH  12  28
TORSDOF 4
ENDMDL
MODEL 4
REMARK VINA RESULT:      -8.8      1.830      3.312
REMARK  Name = 
REMARK  4 active torsions:
REMARK  status: ('A' for Active; 'I' for Inactive)
REMARK    1  A    between atoms: C_2  and  C_19
REMARK    2  A    between atoms: N_12  and  C_13
REMARK    3  A    between atoms: N_24  and  C_25
REMARK    4  A    between atoms: C_25  and  C_26
REMARK                            x       y       z     vdW  Elec       q    Type
REMARK                         _______ _______ _______ _____ _____    ______ ____
ROOT
ATOM      1  O   UNL     1       2.011   7.972  20.510  0.00  0.00    +0.000 OA
ATOM      2  C   UNL     1       1.604   8.468  19.465  0.00  0.00    +0.000 C 
ATOM      3  N   UNL     1       2.049   8.194  18.185  0.00  0.00    +0.000 N 
ATOM      4  C   UNL     1       3.140   7.381  17.985  0.00  0.00    +0.000 A 
ATOM      5  N   UNL     1       4.179   7.749  17.266  0.00  0.00    +0.000 NA
ATOM      6  C   UNL     1       5.066   6.703  17.324  0.00  0.00    +0.000 A 
ATOM      7  C   UNL     1       6.376   6.604  16.824  0.00  0.00    +0.000 A 
ATOM      8  C   UNL     1       7.082   5.402  16.979  0.00  0.00    +0.000 A 
ATOM      9  C   UNL     1       6.480   4.301  17.587  0.00  0.00    +0.000 A 
ATOM     10  C   UNL     1       5.179   4.381  18.082  0.00  0.00    +0.000 A 
ATOM     11  C   UNL     1       4.505   5.607  17.975  0.00  0.00    +0.000 A 
ATOM     12  N   UNL     1       3.264   6.063  18.395  0.00  0.00    +0.000 N 
ATOM     13  H   UNL     1       1.943   8.962  17.530  0.00  0.00    +0.000 HD
ENDROOT
BRANCH   2  14
ATOM     14  C   UNL     1       0.498   9.535  19.522  0.00  0.00    +0.000 A 
ATOM     15  C   UNL     1      -0.078   9.967  18.233  0.00  0.00    +0.000 A 
ATOM     16  C   UNL     1      -1.056  10.873  18.273  0.00  0.00    +0.000 A 
ATOM     17  C   UNL     1      -1.527  11.424  19.549  0.00  0.00    +0.000 A 
ATOM     18  O   UNL     1      -2.447  12.239  19.555  0.00  0.00    +0.000 OA
ATOM     19  N   UNL     1      -0.862  10.979  20.692  0.00  0.00    +0.000 N 
ATOM     20  N   UNL     1       0.144  10.006  20.680  0.00  0.00    +0.000 NA
BRANCH  19  21
ATOM     21  C   UNL     1      -1.196  11.548  22.001  0.00  0.00    +0.000 C 
BRANCH  21  22
ATOM     22  C   UNL     1      -0.576  12.913  22.198  0.00  0.00    +0.000 A 
ATOM     23  C   UNL     1      -1.162  13.836  23.077  0.00  0.00    +0.000 A 
ATOM     24  C   UNL     1      -0.655  15.131  23.191  0.00  0.00    +0.000 A 
ATOM     25  C   UNL     1       0.452  15.515  22.437  0.00  0.00    +0.000 A 
ATOM     26  C   UNL     1       1.064  14.598  21.583  0.00  0.00    +0.000 A 
ATOM     27  C   UNL     1       0.553  13.303  21.463  0.00  0.00    +0.000 A 
ENDBRANCH  21  22
ENDBRANCH  19  21
ENDBRANCH   2  14
BRANCH  12  28
ATOM     28  C   UNL     1       2.236   5.234  19.020  0.00  0.00    +0.000 C 
ATOM     29  C   UNL     1       2.643   4.768  20.430  0.00  0.00    +0.000 C 
ATOM     30  C   UNL     1       1.616   3.831  21.051  0.00  0.00    +0.000 C 
ATOM     31  C   UNL     1       1.297   2.662  20.126  0.00  0.00    +0.000 C 
ATOM     32  C   UNL     1       0.791   3.153  18.774  0.00  0.00    +0.000 C 
ATOM     33  C   UNL     1       1.804   4.075  18.101  0.00  0.00    +0.000 C 
ENDBRANCH  12  28
TORSDOF 4
ENDMDL
MODEL 5
REMARK VINA RESULT:      -8.7      2.060      3.179
REMARK  Name = 
REMARK  4 active torsions:
REMARK  status: ('A' for Active; 'I' for Inactive)
REMARK    1  A    between atoms: C_2  and  C_19
REMARK    2  A    between atoms: N_12  and  C_13
REMARK    3  A    between atoms: N_24  and  C_25
REMARK    4  A    between atoms: C_25  and  C_26
REMARK                            x       y       z     vdW  Elec       q    Type
REMARK                         _______ _______ _______ _____ _____    ______ ____
ROOT
ATOM      1  O   UNL     1       1.907   8.192  20.144  0.00  0.00    +0.000 OA
ATOM      2  C   UNL     1       1.609   8.622  19.035  0.00  0.00    +0.000 C 
ATOM      3  N   UNL     1       2.180   8.272  17.825  0.00  0.00    +0.000 N 
ATOM      4  C   UNL     1       3.284   7.452  17.787  0.00  0.00    +0.000 A 
ATOM      5  N   UNL     1       4.392   7.779  17.156  0.00  0.00    +0.000 NA
ATOM      6  C   UNL     1       5.266   6.742  17.367  0.00  0.00    +0.000 A 
ATOM      7  C   UNL     1       6.620   6.618  17.009  0.00  0.00    +0.000 A 
ATOM      8  C   UNL     1       7.303   5.430  17.307  0.00  0.00    +0.000 A 
ATOM      9  C   UNL     1       6.640   4.366  17.918  0.00  0.00    +0.000 A 
ATOM     10  C   UNL     1       5.295   4.471  18.273  0.00  0.00    +0.000 A 
ATOM     11  C   UNL     1       4.639   5.687  18.023  0.00  0.00    +0.000 A 
ATOM     12  N   UNL     1       3.363   6.162  18.287  0.00  0.00    +0.000 N 
ATOM     13  H   UNL     1       2.144   8.999  17.118  0.00  0.00    +0.000 HD
ENDROOT
BRANCH   2  14
ATOM     14  C   UNL     1       0.505   9.686  18.915  0.00  0.00    +0.000 A 
ATOM     15  C   UNL     1      -0.519   9.468  17.873  0.00  0.00    +0.000 A 
ATOM     16  C   UNL     1      -1.495  10.372  17.777  0.00  0.00    +0.000 A 
ATOM     17  C   UNL     1      -1.537  11.540  18.665  0.00  0.00    +0.000 A 
ATOM     18  O   UNL     1      -2.463  12.341  18.570  0.00  0.00    +0.000 OA
ATOM     19  N   UNL     1      -0.479  11.662  19.567  0.00  0.00    +0.000 N 
ATOM     20  N   UNL     1       0.539  10.713  19.710  0.00  0.00    +0.000 NA
BRANCH  19  21
ATOM     21  C   UNL     1      -0.383  12.848  20.424  0.00  0.00    +0.000 C 
BRANCH  21  22
ATOM     22  C   UNL     1       0.319  13.993  19.729  0.00  0.00    +0.000 A 
ATOM     23  C   UNL     1       1.717  14.002  19.614  0.00  0.00    +0.000 A 
ATOM     24  C   UNL     1       2.378  15.100  19.062  0.00  0.00    +0.000 A 
ATOM     25  C   UNL     1       1.649  16.197  18.608  0.00  0.00    +0.000 A 
ATOM     26  C   UNL     1       0.257  16.187  18.686  0.00  0.00    +0.000 A 
ATOM     27  C   UNL     1      -0.406  15.092  19.245  0.00  0.00    +0.000 A 
ENDBRANCH  21  22
ENDBRANCH  19  21
ENDBRANCH   2  14
BRANCH  12  28
ATOM     28  C   UNL     1       2.275   5.369  18.854  0.00  0.00    +0.000 C 
ATOM     29  C   UNL     1       2.551   4.965  20.314  0.00  0.00    +0.000 C 
ATOM     30  C   UNL     1       1.463   4.064  20.882  0.00  0.00    +0.000 C 
ATOM     31  C   UNL     1       1.215   2.856  19.985  0.00  0.00    +0.000 C 
ATOM     32  C   UNL     1       0.836   3.288  18.573  0.00  0.00    +0.000 C 
ATOM     33  C   UNL     1       1.914   4.172  17.952  0.00  0.00    +0.000 C 
ENDBRANCH  12  28
TORSDOF 4
ENDMDL
MODEL 6
REMARK VINA RESULT:      -8.4      1.972      3.966
REMARK  Name = 
REMARK  4 active torsions:
REMARK  status: ('A' for Active; 'I' for Inactive)
REMARK    1  A    between atoms: C_2  and  C_19
REMARK    2  A    between atoms: N_12  and  C_13
REMARK    3  A    between atoms: N_24  and  C_25
REMARK    4  A    between atoms: C_25  and  C_26
REMARK                            x       y       z     vdW  Elec       q    Type
REMARK                         _______ _______ _______ _____ _____    ______ ____
ROOT
ATOM      1  O   UNL     1       1.777   7.799  17.452  0.00  0.00    +0.000 OA
ATOM      2  C   UNL     1       1.816   8.410  18.514  0.00  0.00    +0.000 C 
ATOM      3  N   UNL     1       2.160   7.902  19.754  0.00  0.00    +0.000 N 
ATOM      4  C   UNL     1       2.379   6.555  19.919  0.00  0.00    +0.000 A 
ATOM      5  N   UNL     1       1.758   5.840  20.833  0.00  0.00    +0.000 NA
ATOM      6  C   UNL     1       2.205   4.552  20.672  0.00  0.00    +0.000 A 
ATOM      7  C   UNL     1       1.793   3.369  21.310  0.00  0.00    +0.000 A 
ATOM      8  C   UNL     1       2.433   2.161  20.997  0.00  0.00    +0.000 A 
ATOM      9  C   UNL     1       3.493   2.135  20.091  0.00  0.00    +0.000 A 
ATOM     10  C   UNL     1       3.917   3.301  19.454  0.00  0.00    +0.000 A 
ATOM     11  C   UNL     1       3.229   4.493  19.731  0.00  0.00    +0.000 A 
ATOM     12  N   UNL     1       3.328   5.792  19.256  0.00  0.00    +0.000 N 
ATOM     13  H   UNL     1       1.728   8.380  20.538  0.00  0.00    +0.000 HD
ENDROOT
BRANCH   2  14
ATOM     14  C   UNL     1       1.427   9.897  18.539  0.00  0.00    +0.000 A 
ATOM     15  C   UNL     1       2.462  10.863  18.121  0.00  0.00    +0.000 A 
ATOM     16  C   UNL     1       2.127  12.154  18.115  0.00  0.00    +0.000 A 
ATOM     17  C   UNL     1       0.786  12.591  18.520  0.00  0.00    +0.000 A 
ATOM     18  O   UNL     1       0.500  13.786  18.479  0.00  0.00    +0.000 OA
ATOM     19  N   UNL     1      -0.081  11.588  18.950  0.00  0.00    +0.000 N 
ATOM     20  N   UNL     1       0.234  10.224  18.936  0.00  0.00    +0.000 NA
BRANCH  19  21
ATOM     21  C   UNL     1      -1.407  11.939  19.469  0.00  0.00    +0.000 C 
BRANCH  21  22
ATOM     22  C   UNL     1      -2.502  11.645  18.468  0.00  0.00    +0.000 A 
ATOM     23  C   UNL     1      -2.179  11.246  17.162  0.00  0.00    +0.000 A 
ATOM     24  C   UNL     1      -3.179  11.068  16.205  0.00  0.00    +0.000 A 
ATOM     25  C   UNL     1      -4.514  11.275  16.545  0.00  0.00    +0.000 A 
ATOM     26  C   UNL     1      -4.852  11.639  17.848  0.00  0.00    +0.000 A 
ATOM     27  C   UNL     1      -3.851  11.825  18.805  0.00  0.00    +0.000 A 
ENDBRANCH  21  22
ENDBRANCH  19  21
ENDBRANCH   2  14
BRANCH  12  28
ATOM     28  C   UNL     1       4.356   6.272  18.334  0.00  0.00    +0.000 C 
ATOM     29  C   UNL     1       4.155   5.728  16.908  0.00  0.00    +0.000 C 
ATOM     30  C   UNL     1       5.273   6.151  15.963  0.00  0.00    +0.000 C 
ATOM     31  C   UNL     1       6.643   5.797  16.529  0.00  0.00    +0.000 C 
ATOM     32  C   UNL     1       6.857   6.439  17.896  0.00  0.00    +0.000 C 
ATOM     33  C   UNL     1       5.773   6.019  18.885  0.00  0.00    +0.000 C 
ENDBRANCH  12  28
TORSDOF 4
ENDMDL
MODEL 7
REMARK VINA RESULT:      -8.4      2.150      8.711
REMARK  Name = 
REMARK  4 active torsions:
REMARK  status: ('A' for Active; 'I' for Inactive)
REMARK    1  A    between atoms: C_2  and  C_19
REMARK    2  A    between atoms: N_12  and  C_13
REMARK    3  A    between atoms: N_24  and  C_25
REMARK    4  A    between atoms: C_25  and  C_26
REMARK                            x       y       z     vdW  Elec       q    Type
REMARK                         _______ _______ _______ _____ _____    ______ ____
ROOT
ATOM      1  O   UNL     1       1.748   9.491  17.984  0.00  0.00    +0.000 OA
ATOM      2  C   UNL     1       1.588   8.936  19.066  0.00  0.00    +0.000 C 
ATOM      3  N   UNL     1       1.022   9.480  20.204  0.00  0.00    +0.000 N 
ATOM      4  C   UNL     1       0.688  10.813  20.248  0.00  0.00    +0.000 A 
ATOM      5  N   UNL     1       1.109  11.622  21.197  0.00  0.00    +0.000 NA
ATOM      6  C   UNL     1       0.605  12.860  20.888  0.00  0.00    +0.000 A 
ATOM      7  C   UNL     1       0.830  14.104  21.504  0.00  0.00    +0.000 A 
ATOM      8  C   UNL     1       0.164  15.240  21.022  0.00  0.00    +0.000 A 
ATOM      9  C   UNL     1      -0.742  15.135  19.967  0.00  0.00    +0.000 A 
ATOM     10  C   UNL     1      -0.981  13.908  19.350  0.00  0.00    +0.000 A 
ATOM     11  C   UNL     1      -0.264  12.789  19.803  0.00  0.00    +0.000 A 
ATOM     12  N   UNL     1      -0.198  11.463  19.402  0.00  0.00    +0.000 N 
ATOM     13  H   UNL     1       1.360   9.079  21.073  0.00  0.00    +0.000 HD
ENDROOT
BRANCH   2  14
ATOM     14  C   UNL     1       2.070   7.487  19.244  0.00  0.00    +0.000 A 
ATOM     15  C   UNL     1       1.550   6.751  20.414  0.00  0.00    +0.000 A 
ATOM     16  C   UNL     1       1.942   5.485  20.564  0.00  0.00    +0.000 A 
ATOM     17  C   UNL     1       2.864   4.859  19.609  0.00  0.00    +0.000 A 
ATOM     18  O   UNL     1       3.187   3.683  19.760  0.00  0.00    +0.000 OA
ATOM     19  N   UNL     1       3.330   5.678  18.580  0.00  0.00    +0.000 N 
ATOM     20  N   UNL     1       2.910   6.998  18.381  0.00  0.00    +0.000 NA
BRANCH  19  21
ATOM     21  C   UNL     1       4.331   5.169  17.637  0.00  0.00    +0.000 C 
BRANCH  21  22
ATOM     22  C   UNL     1       5.704   5.743  17.906  0.00  0.00    +0.000 A 
ATOM     23  C   UNL     1       6.471   5.269  18.981  0.00  0.00    +0.000 A 
ATOM     24  C   UNL     1       7.695   5.860  19.296  0.00  0.00    +0.000 A 
ATOM     25  C   UNL     1       8.173   6.923  18.533  0.00  0.00    +0.000 A 
ATOM     26  C   UNL     1       7.437   7.383  17.442  0.00  0.00    +0.000 A 
ATOM     27  C   UNL     1       6.207   6.798  17.130  0.00  0.00    +0.000 A 
ENDBRANCH  21  22
ENDBRANCH  19  21
ENDBRANCH   2  14
BRANCH  12  28
ATOM     28  C   UNL     1      -1.035  10.857  18.370  0.00  0.00    +0.000 C 
ATOM     29  C   UNL     1      -1.446  11.871  17.286  0.00  0.00    +0.000 C 
ATOM     30  C   UNL     1      -2.392  11.268  16.256  0.00  0.00    +0.000 C 
ATOM     31  C   UNL     1      -3.597  10.615  16.922  0.00  0.00    +0.000 C 
ATOM     32  C   UNL     1      -3.163   9.538  17.911  0.00  0.00    +0.000 C 
ATOM     33  C   UNL     1      -2.234  10.105  18.981  0.00  0.00    +0.000 C 
ENDBRANCH  12  28
TORSDOF 4
ENDMDL
MODEL 8
REMARK VINA RESULT:      -8.4      1.584      3.533
REMARK  Name = 
REMARK  4 active torsions:
REMARK  status: ('A' for Active; 'I' for Inactive)
REMARK    1  A    between atoms: C_2  and  C_19
REMARK    2  A    between atoms: N_12  and  C_13
REMARK    3  A    between atoms: N_24  and  C_25
REMARK    4  A    between atoms: C_25  and  C_26
REMARK                            x       y       z     vdW  Elec       q    Type
REMARK                         _______ _______ _______ _____ _____    ______ ____
ROOT
ATOM      1  O   UNL     1       2.029   7.684  18.269  0.00  0.00    +0.000 OA
ATOM      2  C   UNL     1       1.840   7.709  19.481  0.00  0.00    +0.000 C 
ATOM      3  N   UNL     1       2.011   6.665  20.371  0.00  0.00    +0.000 N 
ATOM      4  C   UNL     1       2.307   5.401  19.916  0.00  0.00    +0.000 A 
ATOM      5  N   UNL     1       1.601   4.341  20.248  0.00  0.00    +0.000 NA
ATOM      6  C   UNL     1       2.171   3.285  19.583  0.00  0.00    +0.000 A 
ATOM      7  C   UNL     1       1.754   1.945  19.495  0.00  0.00    +0.000 A 
ATOM      8  C   UNL     1       2.533   1.029  18.773  0.00  0.00    +0.000 A 
ATOM      9  C   UNL     1       3.729   1.431  18.177  0.00  0.00    +0.000 A 
ATOM     10  C   UNL     1       4.158   2.755  18.261  0.00  0.00    +0.000 A 
ATOM     11  C   UNL     1       3.340   3.675  18.936  0.00  0.00    +0.000 A 
ATOM     12  N   UNL     1       3.412   5.041  19.160  0.00  0.00    +0.000 N 
ATOM     13  H   UNL     1       1.416   6.712  21.192  0.00  0.00    +0.000 HD
ENDROOT
BRANCH   2  14
ATOM     14  C   UNL     1       1.334   9.005  20.134  0.00  0.00    +0.000 A 
ATOM     15  C   UNL     1       1.353   9.059  21.610  0.00  0.00    +0.000 A 
ATOM     16  C   UNL     1       0.940  10.188  22.186  0.00  0.00    +0.000 A 
ATOM     17  C   UNL     1       0.473  11.323  21.381  0.00  0.00    +0.000 A 
ATOM     18  O   UNL     1       0.123  12.360  21.941  0.00  0.00    +0.000 OA
ATOM     19  N   UNL     1       0.447  11.126  20.001  0.00  0.00    +0.000 N 
ATOM     20  N   UNL     1       0.905   9.964  19.369  0.00  0.00    +0.000 NA
BRANCH  19  21
ATOM     21  C   UNL     1      -0.098  12.166  19.123  0.00  0.00    +0.000 C 
BRANCH  21  22
ATOM     22  C   UNL     1      -1.536  11.892  18.746  0.00  0.00    +0.000 A 
ATOM     23  C   UNL     1      -1.844  11.295  17.515  0.00  0.00    +0.000 A 
ATOM     24  C   UNL     1      -3.171  11.128  17.117  0.00  0.00    +0.000 A 
ATOM     25  C   UNL     1      -4.206  11.546  17.950  0.00  0.00    +0.000 A 
ATOM     26  C   UNL     1      -3.915  12.112  19.191  0.00  0.00    +0.000 A 
ATOM     27  C   UNL     1      -2.587  12.286  19.587  0.00  0.00    +0.000 A 
ENDBRANCH  21  22
ENDBRANCH  19  21
ENDBRANCH   2  14
BRANCH  12  28
ATOM     28  C   UNL     1       4.538   5.894  18.785  0.00  0.00    +0.000 C 
ATOM     29  C   UNL     1       4.543   6.221  17.281  0.00  0.00    +0.000 C 
ATOM     30  C   UNL     1       5.762   7.034  16.867  0.00  0.00    +0.000 C 
ATOM     31  C   UNL     1       7.056   6.365  17.317  0.00  0.00    +0.000 C 
ATOM     32  C   UNL     1       7.070   6.153  18.827  0.00  0.00    +0.000 C 
ATOM     33  C   UNL     1       5.877   5.316  19.284  0.00  0.00    +0.000 C 
ENDBRANCH  12  28
TORSDOF 4
ENDMDL
MODEL 9
REMARK VINA RESULT:      -8.3      1.970      4.132
REMARK  Name = 
REMARK  4 active torsions:
REMARK  status: ('A' for Active; 'I' for Inactive)
REMARK    1  A    between atoms: C_2  and  C_19
REMARK    2  A    between atoms: N_12  and  C_13
REMARK    3  A    between atoms: N_24  and  C_25
REMARK    4  A    between atoms: C_25  and  C_26
REMARK                            x       y       z     vdW  Elec       q    Type
REMARK                         _______ _______ _______ _____ _____    ______ ____
ROOT
ATOM      1  O   UNL     1       2.121   8.063  17.388  0.00  0.00    +0.000 OA
ATOM      2  C   UNL     1       2.057   8.401  18.566  0.00  0.00    +0.000 C 
ATOM      3  N   UNL     1       2.193   7.585  19.674  0.00  0.00    +0.000 N 
ATOM      4  C   UNL     1       2.292   6.221  19.528  0.00  0.00    +0.000 A 
ATOM      5  N   UNL     1       1.504   5.378  20.160  0.00  0.00    +0.000 NA
ATOM      6  C   UNL     1       1.878   4.126  19.741  0.00  0.00    +0.000 A 
ATOM      7  C   UNL     1       1.301   2.874  20.018  0.00  0.00    +0.000 A 
ATOM      8  C   UNL     1       1.892   1.715  19.494  0.00  0.00    +0.000 A 
ATOM      9  C   UNL     1       3.061   1.795  18.738  0.00  0.00    +0.000 A 
ATOM     10  C   UNL     1       3.649   3.030  18.460  0.00  0.00    +0.000 A 
ATOM     11  C   UNL     1       3.015   4.186  18.940  0.00  0.00    +0.000 A 
ATOM     12  N   UNL     1       3.267   5.544  18.812  0.00  0.00    +0.000 N 
ATOM     13  H   UNL     1       1.692   7.907  20.496  0.00  0.00    +0.000 HD
ENDROOT
BRANCH   2  14
ATOM     14  C   UNL     1       1.773   9.872  18.909  0.00  0.00    +0.000 A 
ATOM     15  C   UNL     1       2.415  10.892  18.055  0.00  0.00    +0.000 A 
ATOM     16  C   UNL     1       2.155  12.171  18.329  0.00  0.00    +0.000 A 
ATOM     17  C   UNL     1       1.276  12.544  19.443  0.00  0.00    +0.000 A 
ATOM     18  O   UNL     1       1.036  13.731  19.654  0.00  0.00    +0.000 OA
ATOM     19  N   UNL     1       0.779  11.491  20.211  0.00  0.00    +0.000 N 
ATOM     20  N   UNL     1       1.010  10.141  19.926  0.00  0.00    +0.000 NA
BRANCH  19  21
ATOM     21  C   UNL     1      -0.025  11.772  21.404  0.00  0.00    +0.000 C 
BRANCH  21  22
ATOM     22  C   UNL     1      -1.475  12.028  21.060  0.00  0.00    +0.000 A 
ATOM     23  C   UNL     1      -1.931  11.864  19.743  0.00  0.00    +0.000 A 
ATOM     24  C   UNL     1      -3.242  12.193  19.398  0.00  0.00    +0.000 A 
ATOM     25  C   UNL     1      -4.117  12.679  20.366  0.00  0.00    +0.000 A 
ATOM     26  C   UNL     1      -3.688  12.817  21.686  0.00  0.00    +0.000 A 
ATOM     27  C   UNL     1      -2.373  12.495  22.032  0.00  0.00    +0.000 A 
ENDBRANCH  21  22
ENDBRANCH  19  21
ENDBRANCH   2  14
BRANCH  12  28
ATOM     28  C   UNL     1       4.442   6.120  18.161  0.00  0.00    +0.000 C 
ATOM     29  C   UNL     1       4.483   5.806  16.655  0.00  0.00    +0.000 C 
ATOM     30  C   UNL     1       5.750   6.327  15.988  0.00  0.00    +0.000 C 
ATOM     31  C   UNL     1       7.000   5.842  16.713  0.00  0.00    +0.000 C 
ATOM     32  C   UNL     1       6.984   6.262  18.179  0.00  0.00    +0.000 C 
ATOM     33  C   UNL     1       5.742   5.737  18.895  0.00  0.00    +0.000 C 
ENDBRANCH  12  28
TORSDOF 4
ENDMDL
