MODEL 1
REMARK VINA RESULT:      -8.1      0.000      0.000
REMARK  Name = 
REMARK  7 active torsions:
REMARK  status: ('A' for Active; 'I' for Inactive)
REMARK    1  A    between atoms: C_1  and  C_2
REMARK    2  A    between atoms: C_2  and  C_3
REMARK    3  A    between atoms: C_2  and  C_25
REMARK    4  A    between atoms: C_7  and  N_8
REMARK    5  A    between atoms: C_13  and  C_14
REMARK    6  A    between atoms: C_17  and  C_18
REMARK    7  A    between atoms: N_29  and  C_30
REMARK                            x       y       z     vdW  Elec       q    Type
REMARK                         _______ _______ _______ _____ _____    ______ ____
ROOT
ATOM      1  N   UNL     1       3.696   4.991  19.302  0.00  0.00    +0.000 N 
ATOM      2  C   UNL     1       5.065   5.563  19.393  0.00  0.00    +0.000 C 
ATOM      3  C   UNL     1       5.652   5.204  18.057  0.00  0.00    +0.000 A 
ATOM      4  C   UNL     1       4.983   4.064  17.599  0.00  0.00    +0.000 A 
ATOM      5  C   UNL     1       5.145   3.552  16.322  0.00  0.00    +0.000 A 
ATOM      6  C   UNL     1       6.026   4.229  15.480  0.00  0.00    +0.000 A 
ATOM      7  C   UNL     1       6.720   5.375  15.926  0.00  0.00    +0.000 A 
ATOM      8  C   UNL     1       6.542   5.886  17.230  0.00  0.00    +0.000 A 
ATOM      9  C   UNL     1       3.833   3.823  18.503  0.00  0.00    +0.000 C 
ATOM     10  O   UNL     1       3.059   2.891  18.368  0.00  0.00    +0.000 OA
ENDROOT
BRANCH   1  15
ATOM     11  C   UNL     1       1.925   8.142  19.523  0.00  0.00    +0.000 A 
ATOM     12  C   UNL     1       2.570   8.713  18.415  0.00  0.00    +0.000 A 
ATOM     13  C   UNL     1       3.047   7.908  17.389  0.00  0.00    +0.000 A 
ATOM     14  C   UNL     1       3.011   6.528  17.522  0.00  0.00    +0.000 A 
ATOM     15  C   UNL     1       2.753   5.986  18.787  0.00  0.00    +0.000 A 
ATOM     16  C   UNL     1       2.027   6.753  19.710  0.00  0.00    +0.000 A 
BRANCH  11  18
ATOM     17  C   UNL     1       0.463   8.263  21.576  0.00  0.00    +0.000 C 
ATOM     18  C   UNL     1       1.226   9.058  20.515  0.00  0.00    +0.000 C 
BRANCH  18  19
ATOM     19  C   UNL     1       0.340  10.072  19.849  0.00  0.00    +0.000 A 
ATOM     20  N   UNL     1      -0.738   9.820  19.129  0.00  0.00    +0.000 NA
ATOM     21  N   UNL     1      -1.293  11.019  18.751  0.00  0.00    +0.000 NA
ATOM     22  C   UNL     1      -0.533  11.974  19.223  0.00  0.00    +0.000 A 
ATOM     23  N   UNL     1       0.509  11.431  19.908  0.00  0.00    +0.000 N 
ATOM     24  C   UNL     1       1.565  12.153  20.557  0.00  0.00    +0.000 C 
ENDBRANCH  18  19
ENDBRANCH  11  18
ENDBRANCH   1  15
BRANCH   8  25
ATOM     25  C   UNL     1       7.226   7.175  17.610  0.00  0.00    +0.000 C 
ATOM     26  F   UNL     1       8.115   7.626  16.687  0.00  0.00    +0.000 F 
ATOM     27  F   UNL     1       6.338   8.190  17.795  0.00  0.00    +0.000 F 
ATOM     28  F   UNL     1       7.922   7.066  18.776  0.00  0.00    +0.000 F 
ENDBRANCH   8  25
BRANCH   6  29
ATOM     29  C   UNL     1       6.158   3.796  14.073  0.00  0.00    +0.000 C 
ATOM     30  O   UNL     1       6.890   4.383  13.286  0.00  0.00    +0.000 OA
ENDBRANCH   6  29
TORSDOF 5
ENDMDL
MODEL 2
REMARK VINA RESULT:      -7.8      4.496      8.388
REMARK  Name = 
REMARK  7 active torsions:
REMARK  status: ('A' for Active; 'I' for Inactive)
REMARK    1  A    between atoms: C_1  and  C_2
REMARK    2  A    between atoms: C_2  and  C_3
REMARK    3  A    between atoms: C_2  and  C_25
REMARK    4  A    between atoms: C_7  and  N_8
REMARK    5  A    between atoms: C_13  and  C_14
REMARK    6  A    between atoms: C_17  and  C_18
REMARK    7  A    between atoms: N_29  and  C_30
REMARK                            x       y       z     vdW  Elec       q    Type
REMARK                         _______ _______ _______ _____ _____    ______ ____
ROOT
ATOM      1  N   UNL     1       0.247   8.867  20.927  0.00  0.00    +0.000 N 
ATOM      2  C   UNL     1      -0.939   8.872  20.030  0.00  0.00    +0.000 C 
ATOM      3  C   UNL     1      -1.126  10.338  19.753  0.00  0.00    +0.000 A 
ATOM      4  C   UNL     1      -0.583  11.040  20.835  0.00  0.00    +0.000 A 
ATOM      5  C   UNL     1      -0.426  12.415  20.843  0.00  0.00    +0.000 A 
ATOM      6  C   UNL     1      -0.839  13.103  19.703  0.00  0.00    +0.000 A 
ATOM      7  C   UNL     1      -1.400  12.415  18.605  0.00  0.00    +0.000 A 
ATOM      8  C   UNL     1      -1.553  11.012  18.611  0.00  0.00    +0.000 A 
ATOM      9  C   UNL     1       0.146  10.066  21.684  0.00  0.00    +0.000 C 
ATOM     10  O   UNL     1       0.723  10.375  22.712  0.00  0.00    +0.000 OA
ENDROOT
BRANCH   1  15
ATOM     11  C   UNL     1       2.543   6.958  18.877  0.00  0.00    +0.000 A 
ATOM     12  C   UNL     1       2.336   7.732  17.725  0.00  0.00    +0.000 A 
ATOM     13  C   UNL     1       1.971   9.067  17.832  0.00  0.00    +0.000 A 
ATOM     14  C   UNL     1       1.673   9.603  19.076  0.00  0.00    +0.000 A 
ATOM     15  C   UNL     1       1.481   8.726  20.151  0.00  0.00    +0.000 A 
ATOM     16  C   UNL     1       2.100   7.468  20.109  0.00  0.00    +0.000 A 
BRANCH  11  18
ATOM     17  C   UNL     1       4.020   5.469  17.474  0.00  0.00    +0.000 C 
ATOM     18  C   UNL     1       3.151   5.573  18.730  0.00  0.00    +0.000 C 
BRANCH  18  19
ATOM     19  C   UNL     1       2.125   4.477  18.776  0.00  0.00    +0.000 A 
ATOM     20  N   UNL     1       1.457   3.983  17.750  0.00  0.00    +0.000 NA
ATOM     21  N   UNL     1       0.663   2.958  18.205  0.00  0.00    +0.000 NA
ATOM     22  C   UNL     1       0.841   2.864  19.499  0.00  0.00    +0.000 A 
ATOM     23  N   UNL     1       1.739   3.801  19.905  0.00  0.00    +0.000 N 
ATOM     24  C   UNL     1       2.183   4.023  21.251  0.00  0.00    +0.000 C 
ENDBRANCH  18  19
ENDBRANCH  11  18
ENDBRANCH   1  15
BRANCH   8  25
ATOM     25  C   UNL     1      -2.054  10.324  17.367  0.00  0.00    +0.000 C 
ATOM     26  F   UNL     1      -2.353  11.171  16.346  0.00  0.00    +0.000 F 
ATOM     27  F   UNL     1      -1.144   9.446  16.864  0.00  0.00    +0.000 F 
ATOM     28  F   UNL     1      -3.187   9.604  17.596  0.00  0.00    +0.000 F 
ENDBRANCH   8  25
BRANCH   6  29
ATOM     29  C   UNL     1      -0.596  14.557  19.608  0.00  0.00    +0.000 C 
ATOM     30  O   UNL     1       0.026  15.045  18.672  0.00  0.00    +0.000 OA
ENDBRANCH   6  29
TORSDOF 5
ENDMDL
MODEL 3
REMARK VINA RESULT:      -7.6      3.914      8.120
REMARK  Name = 
REMARK  7 active torsions:
REMARK  status: ('A' for Active; 'I' for Inactive)
REMARK    1  A    between atoms: C_1  and  C_2
REMARK    2  A    between atoms: C_2  and  C_3
REMARK    3  A    between atoms: C_2  and  C_25
REMARK    4  A    between atoms: C_7  and  N_8
REMARK    5  A    between atoms: C_13  and  C_14
REMARK    6  A    between atoms: C_17  and  C_18
REMARK    7  A    between atoms: N_29  and  C_30
REMARK                            x       y       z     vdW  Elec       q    Type
REMARK                         _______ _______ _______ _____ _____    ______ ____
ROOT
ATOM      1  N   UNL     1       2.540   8.315  19.270  0.00  0.00    +0.000 N 
ATOM      2  C   UNL     1       2.115   8.985  20.528  0.00  0.00    +0.000 C 
ATOM      3  C   UNL     1       0.801   9.599  20.136  0.00  0.00    +0.000 A 
ATOM      4  C   UNL     1       0.834   9.811  18.754  0.00  0.00    +0.000 A 
ATOM      5  C   UNL     1      -0.273  10.207  18.021  0.00  0.00    +0.000 A 
ATOM      6  C   UNL     1      -1.461  10.393  18.726  0.00  0.00    +0.000 A 
ATOM      7  C   UNL     1      -1.514  10.195  20.123  0.00  0.00    +0.000 A 
ATOM      8  C   UNL     1      -0.377   9.791  20.856  0.00  0.00    +0.000 A 
ATOM      9  C   UNL     1       2.045   9.141  18.224  0.00  0.00    +0.000 C 
ATOM     10  O   UNL     1       2.357   9.154  17.045  0.00  0.00    +0.000 OA
ENDROOT
BRANCH   1  15
ATOM     11  C   UNL     1       3.073   4.762  18.814  0.00  0.00    +0.000 A 
ATOM     12  C   UNL     1       2.818   4.436  20.155  0.00  0.00    +0.000 A 
ATOM     13  C   UNL     1       1.971   5.226  20.921  0.00  0.00    +0.000 A 
ATOM     14  C   UNL     1       1.484   6.417  20.404  0.00  0.00    +0.000 A 
ATOM     15  C   UNL     1       2.071   6.928  19.239  0.00  0.00    +0.000 A 
ATOM     16  C   UNL     1       2.695   6.035  18.355  0.00  0.00    +0.000 A 
BRANCH  11  18
ATOM     17  C   UNL     1       3.635   2.329  18.448  0.00  0.00    +0.000 C 
ATOM     18  C   UNL     1       3.824   3.763  17.948  0.00  0.00    +0.000 C 
BRANCH  18  19
ATOM     19  C   UNL     1       5.279   4.101  17.795  0.00  0.00    +0.000 A 
ATOM     20  N   UNL     1       6.158   4.249  18.769  0.00  0.00    +0.000 NA
ATOM     21  N   UNL     1       7.387   4.495  18.207  0.00  0.00    +0.000 NA
ATOM     22  C   UNL     1       7.231   4.519  16.908  0.00  0.00    +0.000 A 
ATOM     23  N   UNL     1       5.927   4.289  16.601  0.00  0.00    +0.000 N 
ATOM     24  C   UNL     1       5.358   4.253  15.284  0.00  0.00    +0.000 C 
ENDBRANCH  18  19
ENDBRANCH  11  18
ENDBRANCH   1  15
BRANCH   8  25
ATOM     25  C   UNL     1      -0.523   9.488  22.326  0.00  0.00    +0.000 C 
ATOM     26  F   UNL     1       0.633   9.597  23.033  0.00  0.00    +0.000 F 
ATOM     27  F   UNL     1      -1.410  10.321  22.935  0.00  0.00    +0.000 F 
ATOM     28  F   UNL     1      -0.978   8.224  22.550  0.00  0.00    +0.000 F 
ENDBRANCH   8  25
BRANCH   6  29
ATOM     29  C   UNL     1      -2.700  10.707  17.985  0.00  0.00    +0.000 C 
ATOM     30  O   UNL     1      -2.699  10.862  16.770  0.00  0.00    +0.000 OA
ENDBRANCH   6  29
TORSDOF 5
ENDMDL
MODEL 4
REMARK VINA RESULT:      -7.6      4.640      8.725
REMARK  Name = 
REMARK  7 active torsions:
REMARK  status: ('A' for Active; 'I' for Inactive)
REMARK    1  A    between atoms: C_1  and  C_2
REMARK    2  A    between atoms: C_2  and  C_3
REMARK    3  A    between atoms: C_2  and  C_25
REMARK    4  A    between atoms: C_7  and  N_8
REMARK    5  A    between atoms: C_13  and  C_14
REMARK    6  A    between atoms: C_17  and  C_18
REMARK    7  A    between atoms: N_29  and  C_30
REMARK                            x       y       z     vdW  Elec       q    Type
REMARK                         _______ _______ _______ _____ _____    ______ ____
ROOT
ATOM      1  N   UNL     1      -0.037   8.996  21.124  0.00  0.00    +0.000 N 
ATOM      2  C   UNL     1      -1.092   9.513  20.211  0.00  0.00    +0.000 C 
ATOM      3  C   UNL     1      -1.002  10.997  20.426  0.00  0.00    +0.000 A 
ATOM      4  C   UNL     1      -0.483  11.204  21.709  0.00  0.00    +0.000 A 
ATOM      5  C   UNL     1      -0.105  12.449  22.183  0.00  0.00    +0.000 A 
ATOM      6  C   UNL     1      -0.263  13.527  21.313  0.00  0.00    +0.000 A 
ATOM      7  C   UNL     1      -0.794  13.343  20.018  0.00  0.00    +0.000 A 
ATOM      8  C   UNL     1      -1.174  12.066  19.550  0.00  0.00    +0.000 A 
ATOM      9  C   UNL     1      -0.029   9.891  22.228  0.00  0.00    +0.000 C 
ATOM     10  O   UNL     1       0.465   9.742  23.333  0.00  0.00    +0.000 OA
ENDROOT
BRANCH   1  15
ATOM     11  C   UNL     1       2.471   7.074  19.353  0.00  0.00    +0.000 A 
ATOM     12  C   UNL     1       2.275   7.732  18.130  0.00  0.00    +0.000 A 
ATOM     13  C   UNL     1       1.824   9.045  18.102  0.00  0.00    +0.000 A 
ATOM     14  C   UNL     1       1.432   9.664  19.281  0.00  0.00    +0.000 A 
ATOM     15  C   UNL     1       1.240   8.871  20.419  0.00  0.00    +0.000 A 
ATOM     16  C   UNL     1       1.936   7.656  20.515  0.00  0.00    +0.000 A 
BRANCH  11  18
ATOM     17  C   UNL     1       4.362   5.704  18.396  0.00  0.00    +0.000 C 
ATOM     18  C   UNL     1       3.169   5.724  19.355  0.00  0.00    +0.000 C 
BRANCH  18  19
ATOM     19  C   UNL     1       2.232   4.582  19.084  0.00  0.00    +0.000 A 
ATOM     20  N   UNL     1       1.746   4.226  17.909  0.00  0.00    +0.000 NA
ATOM     21  N   UNL     1       0.978   3.100  18.083  0.00  0.00    +0.000 NA
ATOM     22  C   UNL     1       0.989   2.806  19.358  0.00  0.00    +0.000 A 
ATOM     23  N   UNL     1       1.751   3.711  20.028  0.00  0.00    +0.000 N 
ATOM     24  C   UNL     1       1.994   3.735  21.442  0.00  0.00    +0.000 C 
ENDBRANCH  18  19
ENDBRANCH  11  18
ENDBRANCH   1  15
BRANCH   8  25
ATOM     25  C   UNL     1      -1.631  11.917  18.120  0.00  0.00    +0.000 C 
ATOM     26  F   UNL     1      -1.252  10.750  17.536  0.00  0.00    +0.000 F 
ATOM     27  F   UNL     1      -2.986  11.965  18.008  0.00  0.00    +0.000 F 
ATOM     28  F   UNL     1      -1.150  12.908  17.319  0.00  0.00    +0.000 F 
ENDBRANCH   8  25
BRANCH   6  29
ATOM     29  C   UNL     1       0.224  14.861  21.720  0.00  0.00    +0.000 C 
ATOM     30  O   UNL     1       0.427  15.140  22.896  0.00  0.00    +0.000 OA
ENDBRANCH   6  29
TORSDOF 5
ENDMDL
MODEL 5
REMARK VINA RESULT:      -7.6      0.649      1.170
REMARK  Name = 
REMARK  7 active torsions:
REMARK  status: ('A' for Active; 'I' for Inactive)
REMARK    1  A    between atoms: C_1  and  C_2
REMARK    2  A    between atoms: C_2  and  C_3
REMARK    3  A    between atoms: C_2  and  C_25
REMARK    4  A    between atoms: C_7  and  N_8
REMARK    5  A    between atoms: C_13  and  C_14
REMARK    6  A    between atoms: C_17  and  C_18
REMARK    7  A    between atoms: N_29  and  C_30
REMARK                            x       y       z     vdW  Elec       q    Type
REMARK                         _______ _______ _______ _____ _____    ______ ____
ROOT
ATOM      1  N   UNL     1       3.551   4.968  19.403  0.00  0.00    +0.000 N 
ATOM      2  C   UNL     1       4.939   5.499  19.432  0.00  0.00    +0.000 C 
ATOM      3  C   UNL     1       5.432   5.184  18.048  0.00  0.00    +0.000 A 
ATOM      4  C   UNL     1       4.702   4.084  17.584  0.00  0.00    +0.000 A 
ATOM      5  C   UNL     1       4.770   3.624  16.280  0.00  0.00    +0.000 A 
ATOM      6  C   UNL     1       5.617   4.314  15.413  0.00  0.00    +0.000 A 
ATOM      7  C   UNL     1       6.371   5.419  15.863  0.00  0.00    +0.000 A 
ATOM      8  C   UNL     1       6.289   5.877  17.196  0.00  0.00    +0.000 A 
ATOM      9  C   UNL     1       3.603   3.833  18.548  0.00  0.00    +0.000 C 
ATOM     10  O   UNL     1       2.796   2.929  18.423  0.00  0.00    +0.000 OA
ENDROOT
BRANCH   1  15
ATOM     11  C   UNL     1       1.781   8.082  19.940  0.00  0.00    +0.000 A 
ATOM     12  C   UNL     1       2.425   8.760  18.894  0.00  0.00    +0.000 A 
ATOM     13  C   UNL     1       2.901   8.062  17.792  0.00  0.00    +0.000 A 
ATOM     14  C   UNL     1       2.865   6.676  17.786  0.00  0.00    +0.000 A 
ATOM     15  C   UNL     1       2.607   6.010  18.991  0.00  0.00    +0.000 A 
ATOM     16  C   UNL     1       1.882   6.681  19.987  0.00  0.00    +0.000 A 
BRANCH  11  18
ATOM     17  C   UNL     1      -0.222   8.232  21.468  0.00  0.00    +0.000 C 
ATOM     18  C   UNL     1       1.082   8.894  21.019  0.00  0.00    +0.000 C 
BRANCH  18  19
ATOM     19  C   UNL     1       0.860  10.325  20.620  0.00  0.00    +0.000 A 
ATOM     20  N   UNL     1       1.498  11.380  21.095  0.00  0.00    +0.000 NA
ATOM     21  N   UNL     1       1.042  12.493  20.430  0.00  0.00    +0.000 NA
ATOM     22  C   UNL     1       0.122  12.101  19.585  0.00  0.00    +0.000 A 
ATOM     23  N   UNL     1      -0.036  10.754  19.675  0.00  0.00    +0.000 N 
ATOM     24  C   UNL     1      -0.961   9.956  18.923  0.00  0.00    +0.000 C 
ENDBRANCH  18  19
ENDBRANCH  11  18
ENDBRANCH   1  15
BRANCH   8  25
ATOM     25  C   UNL     1       7.032   7.129  17.587  0.00  0.00    +0.000 C 
ATOM     26  F   UNL     1       7.938   7.548  16.665  0.00  0.00    +0.000 F 
ATOM     27  F   UNL     1       6.193   8.181  17.786  0.00  0.00    +0.000 F 
ATOM     28  F   UNL     1       7.727   6.976  18.748  0.00  0.00    +0.000 F 
ENDBRANCH   8  25
BRANCH   6  29
ATOM     29  C   UNL     1       5.649   3.939  13.984  0.00  0.00    +0.000 C 
ATOM     30  O   UNL     1       6.646   4.119  13.295  0.00  0.00    +0.000 OA
ENDBRANCH   6  29
TORSDOF 5
ENDMDL
MODEL 6
REMARK VINA RESULT:      -7.6      4.704      8.213
REMARK  Name = 
REMARK  7 active torsions:
REMARK  status: ('A' for Active; 'I' for Inactive)
REMARK    1  A    between atoms: C_1  and  C_2
REMARK    2  A    between atoms: C_2  and  C_3
REMARK    3  A    between atoms: C_2  and  C_25
REMARK    4  A    between atoms: C_7  and  N_8
REMARK    5  A    between atoms: C_13  and  C_14
REMARK    6  A    between atoms: C_17  and  C_18
REMARK    7  A    between atoms: N_29  and  C_30
REMARK                            x       y       z     vdW  Elec       q    Type
REMARK                         _______ _______ _______ _____ _____    ______ ____
ROOT
ATOM      1  N   UNL     1       0.696   8.338  21.187  0.00  0.00    +0.000 N 
ATOM      2  C   UNL     1      -0.540   8.638  20.417  0.00  0.00    +0.000 C 
ATOM      3  C   UNL     1      -0.395  10.107  20.136  0.00  0.00    +0.000 A 
ATOM      4  C   UNL     1       0.412  10.647  21.144  0.00  0.00    +0.000 A 
ATOM      5  C   UNL     1       0.897  11.944  21.112  0.00  0.00    +0.000 A 
ATOM      6  C   UNL     1       0.546  12.721  20.009  0.00  0.00    +0.000 A 
ATOM      7  C   UNL     1      -0.276  12.199  18.986  0.00  0.00    +0.000 A 
ATOM      8  C   UNL     1      -0.762  10.874  19.032  0.00  0.00    +0.000 A 
ATOM      9  C   UNL     1       0.968   9.519  21.930  0.00  0.00    +0.000 C 
ATOM     10  O   UNL     1       1.706   9.670  22.887  0.00  0.00    +0.000 OA
ENDROOT
BRANCH   1  15
ATOM     11  C   UNL     1       2.229   5.952  18.934  0.00  0.00    +0.000 A 
ATOM     12  C   UNL     1       2.105   6.770  17.801  0.00  0.00    +0.000 A 
ATOM     13  C   UNL     1       2.093   8.153  17.930  0.00  0.00    +0.000 A 
ATOM     14  C   UNL     1       2.064   8.727  19.192  0.00  0.00    +0.000 A 
ATOM     15  C   UNL     1       1.772   7.908  20.291  0.00  0.00    +0.000 A 
ATOM     16  C   UNL     1       2.053   6.537  20.199  0.00  0.00    +0.000 A 
BRANCH  11  18
ATOM     17  C   UNL     1       1.590   3.900  17.612  0.00  0.00    +0.000 C 
ATOM     18  C   UNL     1       2.458   4.462  18.739  0.00  0.00    +0.000 C 
BRANCH  18  19
ATOM     19  C   UNL     1       2.285   3.674  20.006  0.00  0.00    +0.000 A 
ATOM     20  N   UNL     1       1.240   3.704  20.813  0.00  0.00    +0.000 NA
ATOM     21  N   UNL     1       1.450   2.797  21.824  0.00  0.00    +0.000 NA
ATOM     22  C   UNL     1       2.625   2.253  21.630  0.00  0.00    +0.000 A 
ATOM     23  N   UNL     1       3.192   2.777  20.511  0.00  0.00    +0.000 N 
ATOM     24  C   UNL     1       4.482   2.447  19.978  0.00  0.00    +0.000 C 
ENDBRANCH  18  19
ENDBRANCH  11  18
ENDBRANCH   1  15
BRANCH   8  25
ATOM     25  C   UNL     1      -1.541  10.339  17.858  0.00  0.00    +0.000 C 
ATOM     26  F   UNL     1      -1.945  11.293  16.978  0.00  0.00    +0.000 F 
ATOM     27  F   UNL     1      -0.820   9.445  17.129  0.00  0.00    +0.000 F 
ATOM     28  F   UNL     1      -2.673   9.686  18.244  0.00  0.00    +0.000 F 
ENDBRANCH   8  25
BRANCH   6  29
ATOM     29  C   UNL     1       1.122  14.073  19.864  0.00  0.00    +0.000 C 
ATOM     30  O   UNL     1       0.767  14.830  18.969  0.00  0.00    +0.000 OA
ENDBRANCH   6  29
TORSDOF 5
ENDMDL
MODEL 7
REMARK VINA RESULT:      -7.5      6.920      9.458
REMARK  Name = 
REMARK  7 active torsions:
REMARK  status: ('A' for Active; 'I' for Inactive)
REMARK    1  A    between atoms: C_1  and  C_2
REMARK    2  A    between atoms: C_2  and  C_3
REMARK    3  A    between atoms: C_2  and  C_25
REMARK    4  A    between atoms: C_7  and  N_8
REMARK    5  A    between atoms: C_13  and  C_14
REMARK    6  A    between atoms: C_17  and  C_18
REMARK    7  A    between atoms: N_29  and  C_30
REMARK                            x       y       z     vdW  Elec       q    Type
REMARK                         _______ _______ _______ _____ _____    ______ ____
ROOT
ATOM      1  N   UNL     1      -0.498  11.406  18.592  0.00  0.00    +0.000 N 
ATOM      2  C   UNL     1       0.303  10.717  19.638  0.00  0.00    +0.000 C 
ATOM      3  C   UNL     1      -0.256  11.299  20.906  0.00  0.00    +0.000 A 
ATOM      4  C   UNL     1      -0.774  12.560  20.593  0.00  0.00    +0.000 A 
ATOM      5  C   UNL     1      -1.520  13.314  21.483  0.00  0.00    +0.000 A 
ATOM      6  C   UNL     1      -1.748  12.759  22.742  0.00  0.00    +0.000 A 
ATOM      7  C   UNL     1      -1.225  11.492  23.081  0.00  0.00    +0.000 A 
ATOM      8  C   UNL     1      -0.467  10.735  22.162  0.00  0.00    +0.000 A 
ATOM      9  C   UNL     1      -0.761  12.700  19.117  0.00  0.00    +0.000 C 
ATOM     10  O   UNL     1      -1.146  13.700  18.536  0.00  0.00    +0.000 OA
ENDROOT
BRANCH   1  15
ATOM     11  C   UNL     1      -4.010  11.111  17.757  0.00  0.00    +0.000 A 
ATOM     12  C   UNL     1      -3.778  10.650  16.452  0.00  0.00    +0.000 A 
ATOM     13  C   UNL     1      -2.620   9.945  16.152  0.00  0.00    +0.000 A 
ATOM     14  C   UNL     1      -1.625   9.815  17.108  0.00  0.00    +0.000 A 
ATOM     15  C   UNL     1      -1.687  10.622  18.251  0.00  0.00    +0.000 A 
ATOM     16  C   UNL     1      -2.939  11.099  18.667  0.00  0.00    +0.000 A 
BRANCH  11  18
ATOM     17  C   UNL     1      -5.836  12.706  17.059  0.00  0.00    +0.000 C 
ATOM     18  C   UNL     1      -5.376  11.683  18.099  0.00  0.00    +0.000 C 
BRANCH  18  19
ATOM     19  C   UNL     1      -5.441  12.249  19.489  0.00  0.00    +0.000 A 
ATOM     20  N   UNL     1      -4.732  13.260  19.959  0.00  0.00    +0.000 NA
ATOM     21  N   UNL     1      -5.131  13.502  21.251  0.00  0.00    +0.000 NA
ATOM     22  C   UNL     1      -6.053  12.622  21.552  0.00  0.00    +0.000 A 
ATOM     23  N   UNL     1      -6.273  11.809  20.486  0.00  0.00    +0.000 N 
ATOM     24  C   UNL     1      -7.198  10.714  20.431  0.00  0.00    +0.000 C 
ENDBRANCH  18  19
ENDBRANCH  11  18
ENDBRANCH   1  15
BRANCH   8  25
ATOM     25  C   UNL     1      -0.031   9.343  22.544  0.00  0.00    +0.000 C 
ATOM     26  F   UNL     1      -0.107   9.083  23.876  0.00  0.00    +0.000 F 
ATOM     27  F   UNL     1      -0.783   8.386  21.936  0.00  0.00    +0.000 F 
ATOM     28  F   UNL     1       1.260   9.091  22.189  0.00  0.00    +0.000 F 
ENDBRANCH   8  25
BRANCH   6  29
ATOM     29  C   UNL     1      -2.628  13.466  23.695  0.00  0.00    +0.000 C 
ATOM     30  O   UNL     1      -2.778  14.681  23.651  0.00  0.00    +0.000 OA
ENDBRANCH   6  29
TORSDOF 5
ENDMDL
MODEL 8
REMARK VINA RESULT:      -7.5      4.205      8.390
REMARK  Name = 
REMARK  7 active torsions:
REMARK  status: ('A' for Active; 'I' for Inactive)
REMARK    1  A    between atoms: C_1  and  C_2
REMARK    2  A    between atoms: C_2  and  C_3
REMARK    3  A    between atoms: C_2  and  C_25
REMARK    4  A    between atoms: C_7  and  N_8
REMARK    5  A    between atoms: C_13  and  C_14
REMARK    6  A    between atoms: C_17  and  C_18
REMARK    7  A    between atoms: N_29  and  C_30
REMARK                            x       y       z     vdW  Elec       q    Type
REMARK                         _______ _______ _______ _____ _____    ______ ____
ROOT
ATOM      1  N   UNL     1       0.582   8.432  21.136  0.00  0.00    +0.000 N 
ATOM      2  C   UNL     1      -0.650   8.652  20.333  0.00  0.00    +0.000 C 
ATOM      3  C   UNL     1      -0.664  10.146  20.170  0.00  0.00    +0.000 A 
ATOM      4  C   UNL     1       0.035  10.691  21.253  0.00  0.00    +0.000 A 
ATOM      5  C   UNL     1       0.369  12.032  21.341  0.00  0.00    +0.000 A 
ATOM      6  C   UNL     1      -0.027  12.851  20.283  0.00  0.00    +0.000 A 
ATOM      7  C   UNL     1      -0.743  12.323  19.187  0.00  0.00    +0.000 A 
ATOM      8  C   UNL     1      -1.075  10.953  19.111  0.00  0.00    +0.000 A 
ATOM      9  C   UNL     1       0.687   9.574  21.977  0.00  0.00    +0.000 C 
ATOM     10  O   UNL     1       1.366   9.730  22.978  0.00  0.00    +0.000 OA
ENDROOT
BRANCH   1  15
ATOM     11  C   UNL     1       2.666   6.296  19.084  0.00  0.00    +0.000 A 
ATOM     12  C   UNL     1       2.346   6.947  17.883  0.00  0.00    +0.000 A 
ATOM     13  C   UNL     1       1.993   8.290  17.883  0.00  0.00    +0.000 A 
ATOM     14  C   UNL     1       1.819   8.956  19.088  0.00  0.00    +0.000 A 
ATOM     15  C   UNL     1       1.734   8.199  20.263  0.00  0.00    +0.000 A 
ATOM     16  C   UNL     1       2.346   6.937  20.293  0.00  0.00    +0.000 A 
BRANCH  11  18
ATOM     17  C   UNL     1       2.892   4.077  20.263  0.00  0.00    +0.000 C 
ATOM     18  C   UNL     1       3.257   4.897  19.023  0.00  0.00    +0.000 C 
BRANCH  18  19
ATOM     19  C   UNL     1       4.740   4.900  18.786  0.00  0.00    +0.000 A 
ATOM     20  N   UNL     1       5.674   5.233  19.657  0.00  0.00    +0.000 NA
ATOM     21  N   UNL     1       6.900   5.043  19.068  0.00  0.00    +0.000 NA
ATOM     22  C   UNL     1       6.692   4.625  17.845  0.00  0.00    +0.000 A 
ATOM     23  N   UNL     1       5.355   4.530  17.617  0.00  0.00    +0.000 N 
ATOM     24  C   UNL     1       4.729   4.122  16.392  0.00  0.00    +0.000 C 
ENDBRANCH  18  19
ENDBRANCH  11  18
ENDBRANCH   1  15
BRANCH   8  25
ATOM     25  C   UNL     1      -1.742  10.429  17.865  0.00  0.00    +0.000 C 
ATOM     26  F   UNL     1      -2.874   9.714  18.099  0.00  0.00    +0.000 F 
ATOM     27  F   UNL     1      -2.105  11.431  17.018  0.00  0.00    +0.000 F 
ATOM     28  F   UNL     1      -0.925   9.607  17.148  0.00  0.00    +0.000 F 
ENDBRANCH   8  25
BRANCH   6  29
ATOM     29  C   UNL     1       0.394  14.266  20.268  0.00  0.00    +0.000 C 
ATOM     30  O   UNL     1       1.130  14.708  19.394  0.00  0.00    +0.000 OA
ENDBRANCH   6  29
TORSDOF 5
ENDMDL
MODEL 9
REMARK VINA RESULT:      -7.5      3.079      3.976
REMARK  Name = 
REMARK  7 active torsions:
REMARK  status: ('A' for Active; 'I' for Inactive)
REMARK    1  A    between atoms: C_1  and  C_2
REMARK    2  A    between atoms: C_2  and  C_3
REMARK    3  A    between atoms: C_2  and  C_25
REMARK    4  A    between atoms: C_7  and  N_8
REMARK    5  A    between atoms: C_13  and  C_14
REMARK    6  A    between atoms: C_17  and  C_18
REMARK    7  A    between atoms: N_29  and  C_30
REMARK                            x       y       z     vdW  Elec       q    Type
REMARK                         _______ _______ _______ _____ _____    ______ ____
ROOT
ATOM      1  N   UNL     1       2.187   6.921  17.992  0.00  0.00    +0.000 N 
ATOM      2  C   UNL     1       2.080   5.464  18.269  0.00  0.00    +0.000 C 
ATOM      3  C   UNL     1       3.520   5.053  18.389  0.00  0.00    +0.000 A 
ATOM      4  C   UNL     1       4.278   5.960  17.641  0.00  0.00    +0.000 A 
ATOM      5  C   UNL     1       5.662   5.990  17.662  0.00  0.00    +0.000 A 
ATOM      6  C   UNL     1       6.299   5.057  18.479  0.00  0.00    +0.000 A 
ATOM      7  C   UNL     1       5.554   4.126  19.234  0.00  0.00    +0.000 A 
ATOM      8  C   UNL     1       4.143   4.109  19.203  0.00  0.00    +0.000 A 
ATOM      9  C   UNL     1       3.381   7.068  17.233  0.00  0.00    +0.000 C 
ATOM     10  O   UNL     1       3.749   8.015  16.560  0.00  0.00    +0.000 OA
ENDROOT
BRANCH   1  15
ATOM     11  C   UNL     1       0.728   9.418  20.171  0.00  0.00    +0.000 A 
ATOM     12  C   UNL     1       0.332   8.496  21.152  0.00  0.00    +0.000 A 
ATOM     13  C   UNL     1       1.034   7.310  21.325  0.00  0.00    +0.000 A 
ATOM     14  C   UNL     1       2.044   6.971  20.437  0.00  0.00    +0.000 A 
ATOM     15  C   UNL     1       2.147   7.689  19.239  0.00  0.00    +0.000 A 
ATOM     16  C   UNL     1       1.649   8.999  19.196  0.00  0.00    +0.000 A 
BRANCH  11  18
ATOM     17  C   UNL     1      -0.523  11.149  21.516  0.00  0.00    +0.000 C 
ATOM     18  C   UNL     1       0.078  10.793  20.155  0.00  0.00    +0.000 C 
BRANCH  18  19
ATOM     19  C   UNL     1      -0.931  10.948  19.054  0.00  0.00    +0.000 A 
ATOM     20  N   UNL     1      -1.794  10.036  18.645  0.00  0.00    +0.000 NA
ATOM     21  N   UNL     1      -2.576  10.593  17.662  0.00  0.00    +0.000 NA
ATOM     22  C   UNL     1      -2.160  11.819  17.471  0.00  0.00    +0.000 A 
ATOM     23  N   UNL     1      -1.125  12.085  18.311  0.00  0.00    +0.000 N 
ATOM     24  C   UNL     1      -0.392  13.315  18.392  0.00  0.00    +0.000 C 
ENDBRANCH  18  19
ENDBRANCH  11  18
ENDBRANCH   1  15
BRANCH   8  25
ATOM     25  C   UNL     1       3.401   3.165  20.116  0.00  0.00    +0.000 C 
ATOM     26  F   UNL     1       2.472   2.399  19.486  0.00  0.00    +0.000 F 
ATOM     27  F   UNL     1       4.239   2.292  20.740  0.00  0.00    +0.000 F 
ATOM     28  F   UNL     1       2.734   3.821  21.105  0.00  0.00    +0.000 F 
ENDBRANCH   8  25
BRANCH   6  29
ATOM     29  C   UNL     1       7.768   5.111  18.628  0.00  0.00    +0.000 C 
ATOM     30  O   UNL     1       8.298   5.232  19.726  0.00  0.00    +0.000 OA
ENDBRANCH   6  29
TORSDOF 5
ENDMDL
