MODEL 1
REMARK VINA RESULT:      -9.1      0.000      0.000
REMARK  Name = 
REMARK  6 active torsions:
REMARK  status: ('A' for Active; 'I' for Inactive)
REMARK    1  A    between atoms: C_1  and  C_2
REMARK    2  A    between atoms: C_4  and  N_5
REMARK    3  A    between atoms: C_6  and  C_8
REMARK    4  A    between atoms: N_14  and  C_15
REMARK    5  A    between atoms: N_14  and  C_16
REMARK    6  A    between atoms: N_22  and  C_23
REMARK                            x       y       z     vdW  Elec       q    Type
REMARK                         _______ _______ _______ _____ _____    ______ ____
ROOT
ATOM      1  N   UNL     1       8.221   7.177  18.600  0.00  0.00    +0.000 N 
ATOM      2  C   UNL     1       7.967   8.408  18.013  0.00  0.00    +0.000 C 
ATOM      3  O   UNL     1       7.141   8.551  17.116  0.00  0.00    +0.000 OA
ATOM      4  H   UNL     1       8.948   7.056  19.293  0.00  0.00    +0.000 HD
ENDROOT
BRANCH   2   5
ATOM      5  C   UNL     1       8.691   9.605  18.530  0.00  0.00    +0.000 A 
ATOM      6  C   UNL     1       9.116   9.719  19.864  0.00  0.00    +0.000 A 
ATOM      7  C   UNL     1       9.795  10.864  20.324  0.00  0.00    +0.000 A 
ATOM      8  C   UNL     1      10.016  11.865  19.382  0.00  0.00    +0.000 A 
ATOM      9  O   UNL     1      10.634  13.071  19.563  0.00  0.00    +0.000 OA
ATOM     10  C   UNL     1      10.583  13.668  18.324  0.00  0.00    +0.000 A 
ATOM     11  N   UNL     1      11.115  14.903  18.181  0.00  0.00    +0.000 N 
ATOM     12  C   UNL     1      11.076  15.551  16.883  0.00  0.00    +0.000 C 
ATOM     13  C   UNL     1      11.748  15.623  19.264  0.00  0.00    +0.000 C 
ATOM     14  N   UNL     1       9.994  12.932  17.403  0.00  0.00    +0.000 NA
ATOM     15  C   UNL     1       9.629  11.787  18.059  0.00  0.00    +0.000 A 
ATOM     16  C   UNL     1       8.964  10.639  17.607  0.00  0.00    +0.000 A 
ENDBRANCH   2   5
BRANCH   1  20
ATOM     17  C   UNL     1       5.480   5.196  15.045  0.00  0.00    +0.000 C 
ATOM     18  C   UNL     1       5.811   5.782  16.411  0.00  0.00    +0.000 C 
ATOM     19  C   UNL     1       7.304   6.015  16.583  0.00  0.00    +0.000 C 
ATOM     20  C   UNL     1       7.537   5.996  18.100  0.00  0.00    +0.000 C 
ATOM     21  C   UNL     1       6.161   5.612  18.690  0.00  0.00    +0.000 C 
ATOM     22  O   UNL     1       5.864   5.673  19.872  0.00  0.00    +0.000 OA
ATOM     23  N   UNL     1       5.432   5.072  17.615  0.00  0.00    +0.000 N 
BRANCH  23  24
ATOM     24  C   UNL     1       4.257   4.297  17.710  0.00  0.00    +0.000 A 
ATOM     25  C   UNL     1       4.247   2.902  17.713  0.00  0.00    +0.000 A 
ATOM     26  C   UNL     1       3.030   2.211  17.828  0.00  0.00    +0.000 A 
ATOM     27  C   UNL     1       1.819   2.905  17.902  0.00  0.00    +0.000 A 
ATOM     28  C   UNL     1       1.818   4.292  17.840  0.00  0.00    +0.000 A 
ATOM     29  C   UNL     1       3.028   4.975  17.737  0.00  0.00    +0.000 A 
ENDBRANCH  23  24
ENDBRANCH   1  20
TORSDOF 3
ENDMDL
MODEL 2
REMARK VINA RESULT:      -8.9      0.448      1.011
REMARK  Name = 
REMARK  6 active torsions:
REMARK  status: ('A' for Active; 'I' for Inactive)
REMARK    1  A    between atoms: C_1  and  C_2
REMARK    2  A    between atoms: C_4  and  N_5
REMARK    3  A    between atoms: C_6  and  C_8
REMARK    4  A    between atoms: N_14  and  C_15
REMARK    5  A    between atoms: N_14  and  C_16
REMARK    6  A    between atoms: N_22  and  C_23
REMARK                            x       y       z     vdW  Elec       q    Type
REMARK                         _______ _______ _______ _____ _____    ______ ____
ROOT
ATOM      1  N   UNL     1       8.174   7.191  18.459  0.00  0.00    +0.000 N 
ATOM      2  C   UNL     1       7.834   8.425  17.926  0.00  0.00    +0.000 C 
ATOM      3  O   UNL     1       6.933   8.561  17.102  0.00  0.00    +0.000 OA
ATOM      4  H   UNL     1       8.958   7.078  19.087  0.00  0.00    +0.000 HD
ENDROOT
BRANCH   2   5
ATOM      5  C   UNL     1       8.557   9.635  18.414  0.00  0.00    +0.000 A 
ATOM      6  C   UNL     1       9.314   9.641  19.598  0.00  0.00    +0.000 A 
ATOM      7  C   UNL     1       9.985  10.800  20.035  0.00  0.00    +0.000 A 
ATOM      8  C   UNL     1       9.852  11.927  19.229  0.00  0.00    +0.000 A 
ATOM      9  O   UNL     1      10.383  13.170  19.424  0.00  0.00    +0.000 OA
ATOM     10  C   UNL     1       9.946  13.901  18.341  0.00  0.00    +0.000 A 
ATOM     11  N   UNL     1      10.304  15.201  18.254  0.00  0.00    +0.000 N 
ATOM     12  C   UNL     1       9.858  15.990  17.120  0.00  0.00    +0.000 C 
ATOM     13  C   UNL     1      11.137  15.861  19.235  0.00  0.00    +0.000 C 
ATOM     14  N   UNL     1       9.200  13.211  17.502  0.00  0.00    +0.000 NA
ATOM     15  C   UNL     1       9.131  11.958  18.050  0.00  0.00    +0.000 A 
ATOM     16  C   UNL     1       8.476  10.798  17.618  0.00  0.00    +0.000 A 
ENDBRANCH   2   5
BRANCH   1  20
ATOM     17  C   UNL     1       5.423   5.136  14.954  0.00  0.00    +0.000 C 
ATOM     18  C   UNL     1       5.759   5.748  16.307  0.00  0.00    +0.000 C 
ATOM     19  C   UNL     1       7.252   5.987  16.468  0.00  0.00    +0.000 C 
ATOM     20  C   UNL     1       7.490   5.998  17.984  0.00  0.00    +0.000 C 
ATOM     21  C   UNL     1       6.118   5.623  18.587  0.00  0.00    +0.000 C 
ATOM     22  O   UNL     1       5.825   5.706  19.769  0.00  0.00    +0.000 OA
ATOM     23  N   UNL     1       5.386   5.062  17.525  0.00  0.00    +0.000 N 
BRANCH  23  24
ATOM     24  C   UNL     1       4.212   4.285  17.640  0.00  0.00    +0.000 A 
ATOM     25  C   UNL     1       2.928   4.826  17.679  0.00  0.00    +0.000 A 
ATOM     26  C   UNL     1       1.813   3.976  17.778  0.00  0.00    +0.000 A 
ATOM     27  C   UNL     1       1.978   2.592  17.876  0.00  0.00    +0.000 A 
ATOM     28  C   UNL     1       3.258   2.052  17.896  0.00  0.00    +0.000 A 
ATOM     29  C   UNL     1       4.360   2.897  17.787  0.00  0.00    +0.000 A 
ENDBRANCH  23  24
ENDBRANCH   1  20
TORSDOF 3
ENDMDL
MODEL 3
REMARK VINA RESULT:      -8.4      1.839     10.179
REMARK  Name = 
REMARK  6 active torsions:
REMARK  status: ('A' for Active; 'I' for Inactive)
REMARK    1  A    between atoms: C_1  and  C_2
REMARK    2  A    between atoms: C_4  and  N_5
REMARK    3  A    between atoms: C_6  and  C_8
REMARK    4  A    between atoms: N_14  and  C_15
REMARK    5  A    between atoms: N_14  and  C_16
REMARK    6  A    between atoms: N_22  and  C_23
REMARK                            x       y       z     vdW  Elec       q    Type
REMARK                         _______ _______ _______ _____ _____    ______ ____
ROOT
ATOM      1  N   UNL     1       7.660   9.296  18.159  0.00  0.00    +0.000 N 
ATOM      2  C   UNL     1       7.670   8.128  17.413  0.00  0.00    +0.000 C 
ATOM      3  O   UNL     1       8.596   7.834  16.662  0.00  0.00    +0.000 OA
ATOM      4  H   UNL     1       6.866   9.562  18.725  0.00  0.00    +0.000 HD
ENDROOT
BRANCH   2   5
ATOM      5  C   UNL     1       6.534   7.174  17.570  0.00  0.00    +0.000 A 
ATOM      6  C   UNL     1       5.300   7.348  16.920  0.00  0.00    +0.000 A 
ATOM      7  C   UNL     1       4.244   6.431  17.091  0.00  0.00    +0.000 A 
ATOM      8  C   UNL     1       4.498   5.354  17.934  0.00  0.00    +0.000 A 
ATOM      9  O   UNL     1       3.654   4.336  18.279  0.00  0.00    +0.000 OA
ATOM     10  C   UNL     1       4.398   3.549  19.130  0.00  0.00    +0.000 A 
ATOM     11  N   UNL     1       3.821   2.448  19.659  0.00  0.00    +0.000 N 
ATOM     12  C   UNL     1       4.587   1.601  20.556  0.00  0.00    +0.000 C 
ATOM     13  C   UNL     1       2.463   2.045  19.365  0.00  0.00    +0.000 C 
ATOM     14  N   UNL     1       5.622   3.995  19.330  0.00  0.00    +0.000 NA
ATOM     15  C   UNL     1       5.700   5.137  18.579  0.00  0.00    +0.000 A 
ATOM     16  C   UNL     1       6.749   6.049  18.395  0.00  0.00    +0.000 A 
ENDBRANCH   2   5
BRANCH   1  20
ATOM     17  C   UNL     1      10.988  12.142  20.374  0.00  0.00    +0.000 C 
ATOM     18  C   UNL     1       9.722  11.787  19.607  0.00  0.00    +0.000 C 
ATOM     19  C   UNL     1       9.682  10.315  19.225  0.00  0.00    +0.000 C 
ATOM     20  C   UNL     1       8.751  10.246  18.007  0.00  0.00    +0.000 C 
ATOM     21  C   UNL     1       8.429  11.724  17.692  0.00  0.00    +0.000 C 
ATOM     22  O   UNL     1       7.569  12.102  16.913  0.00  0.00    +0.000 OA
ATOM     23  N   UNL     1       9.407  12.472  18.371  0.00  0.00    +0.000 N 
BRANCH  23  24
ATOM     24  C   UNL     1       9.730  13.827  18.142  0.00  0.00    +0.000 A 
ATOM     25  C   UNL     1       9.030  14.895  18.702  0.00  0.00    +0.000 A 
ATOM     26  C   UNL     1       9.432  16.214  18.432  0.00  0.00    +0.000 A 
ATOM     27  C   UNL     1      10.505  16.471  17.575  0.00  0.00    +0.000 A 
ATOM     28  C   UNL     1      11.168  15.413  16.968  0.00  0.00    +0.000 A 
ATOM     29  C   UNL     1      10.774  14.106  17.247  0.00  0.00    +0.000 A 
ENDBRANCH  23  24
ENDBRANCH   1  20
TORSDOF 3
ENDMDL
MODEL 4
REMARK VINA RESULT:      -8.1      1.263      1.434
REMARK  Name = 
REMARK  6 active torsions:
REMARK  status: ('A' for Active; 'I' for Inactive)
REMARK    1  A    between atoms: C_1  and  C_2
REMARK    2  A    between atoms: C_4  and  N_5
REMARK    3  A    between atoms: C_6  and  C_8
REMARK    4  A    between atoms: N_14  and  C_15
REMARK    5  A    between atoms: N_14  and  C_16
REMARK    6  A    between atoms: N_22  and  C_23
REMARK                            x       y       z     vdW  Elec       q    Type
REMARK                         _______ _______ _______ _____ _____    ______ ____
ROOT
ATOM      1  N   UNL     1       8.516   7.937  18.808  0.00  0.00    +0.000 N 
ATOM      2  C   UNL     1       8.406   9.185  18.214  0.00  0.00    +0.000 C 
ATOM      3  O   UNL     1       7.709   9.383  17.222  0.00  0.00    +0.000 OA
ATOM      4  H   UNL     1       9.141   7.768  19.585  0.00  0.00    +0.000 HD
ENDROOT
BRANCH   2   5
ATOM      5  C   UNL     1       9.121  10.335  18.837  0.00  0.00    +0.000 A 
ATOM      6  C   UNL     1       9.411  10.395  20.211  0.00  0.00    +0.000 A 
ATOM      7  C   UNL     1      10.086  11.497  20.772  0.00  0.00    +0.000 A 
ATOM      8  C   UNL     1      10.444  12.511  19.889  0.00  0.00    +0.000 A 
ATOM      9  O   UNL     1      11.090  13.683  20.168  0.00  0.00    +0.000 OA
ATOM     10  C   UNL     1      11.192  14.314  18.949  0.00  0.00    +0.000 A 
ATOM     11  N   UNL     1      11.786  15.527  18.898  0.00  0.00    +0.000 N 
ATOM     12  C   UNL     1      11.908  16.210  17.623  0.00  0.00    +0.000 C 
ATOM     13  C   UNL     1      12.333  16.190  20.061  0.00  0.00    +0.000 C 
ATOM     14  N   UNL     1      10.670  13.629  17.951  0.00  0.00    +0.000 NA
ATOM     15  C   UNL     1      10.193  12.484  18.531  0.00  0.00    +0.000 A 
ATOM     16  C   UNL     1       9.530  11.379  17.979  0.00  0.00    +0.000 A 
ENDBRANCH   2   5
BRANCH   1  20
ATOM     17  C   UNL     1       4.676   6.328  16.211  0.00  0.00    +0.000 C 
ATOM     18  C   UNL     1       5.553   6.567  17.433  0.00  0.00    +0.000 C 
ATOM     19  C   UNL     1       6.892   7.183  17.060  0.00  0.00    +0.000 C 
ATOM     20  C   UNL     1       7.838   6.800  18.205  0.00  0.00    +0.000 C 
ATOM     21  C   UNL     1       6.994   5.863  19.098  0.00  0.00    +0.000 C 
ATOM     22  O   UNL     1       7.309   5.488  20.215  0.00  0.00    +0.000 OA
ATOM     23  N   UNL     1       5.910   5.461  18.296  0.00  0.00    +0.000 N 
BRANCH  23  24
ATOM     24  C   UNL     1       5.047   4.372  18.544  0.00  0.00    +0.000 A 
ATOM     25  C   UNL     1       4.430   4.137  19.772  0.00  0.00    +0.000 A 
ATOM     26  C   UNL     1       3.572   3.036  19.926  0.00  0.00    +0.000 A 
ATOM     27  C   UNL     1       3.357   2.147  18.869  0.00  0.00    +0.000 A 
ATOM     28  C   UNL     1       4.013   2.343  17.662  0.00  0.00    +0.000 A 
ATOM     29  C   UNL     1       4.856   3.443  17.509  0.00  0.00    +0.000 A 
ENDBRANCH  23  24
ENDBRANCH   1  20
TORSDOF 3
ENDMDL
MODEL 5
REMARK VINA RESULT:      -8.1      6.918      8.691
REMARK  Name = 
REMARK  6 active torsions:
REMARK  status: ('A' for Active; 'I' for Inactive)
REMARK    1  A    between atoms: C_1  and  C_2
REMARK    2  A    between atoms: C_4  and  N_5
REMARK    3  A    between atoms: C_6  and  C_8
REMARK    4  A    between atoms: N_14  and  C_15
REMARK    5  A    between atoms: N_14  and  C_16
REMARK    6  A    between atoms: N_22  and  C_23
REMARK                            x       y       z     vdW  Elec       q    Type
REMARK                         _______ _______ _______ _____ _____    ______ ____
ROOT
ATOM      1  N   UNL     1       1.720   8.200  19.810  0.00  0.00    +0.000 N 
ATOM      2  C   UNL     1       1.094   9.267  19.185  0.00  0.00    +0.000 C 
ATOM      3  O   UNL     1       0.807   9.255  17.991  0.00  0.00    +0.000 OA
ATOM      4  H   UNL     1       2.011   8.243  20.778  0.00  0.00    +0.000 HD
ENDROOT
BRANCH   2   5
ATOM      5  C   UNL     1       0.712  10.450  20.010  0.00  0.00    +0.000 A 
ATOM      6  C   UNL     1       1.456  11.642  20.019  0.00  0.00    +0.000 A 
ATOM      7  C   UNL     1       1.072  12.742  20.811  0.00  0.00    +0.000 A 
ATOM      8  C   UNL     1      -0.079  12.575  21.576  0.00  0.00    +0.000 A 
ATOM      9  O   UNL     1      -0.660  13.468  22.431  0.00  0.00    +0.000 OA
ATOM     10  C   UNL     1      -1.761  12.803  22.922  0.00  0.00    +0.000 A 
ATOM     11  N   UNL     1      -2.549  13.436  23.820  0.00  0.00    +0.000 N 
ATOM     12  C   UNL     1      -3.717  12.756  24.349  0.00  0.00    +0.000 C 
ATOM     13  C   UNL     1      -2.301  14.784  24.280  0.00  0.00    +0.000 C 
ATOM     14  N   UNL     1      -1.905  11.586  22.438  0.00  0.00    +0.000 NA
ATOM     15  C   UNL     1      -0.847  11.426  21.584  0.00  0.00    +0.000 A 
ATOM     16  C   UNL     1      -0.464  10.341  20.784  0.00  0.00    +0.000 A 
ENDBRANCH   2   5
BRANCH   1  20
ATOM     17  C   UNL     1       3.691   3.706  19.774  0.00  0.00    +0.000 C 
ATOM     18  C   UNL     1       3.605   5.211  19.559  0.00  0.00    +0.000 C 
ATOM     19  C   UNL     1       2.207   5.746  19.830  0.00  0.00    +0.000 C 
ATOM     20  C   UNL     1       2.115   7.045  19.019  0.00  0.00    +0.000 C 
ATOM     21  C   UNL     1       3.438   7.090  18.222  0.00  0.00    +0.000 C 
ATOM     22  O   UNL     1       3.847   8.055  17.598  0.00  0.00    +0.000 OA
ATOM     23  N   UNL     1       3.948   5.780  18.272  0.00  0.00    +0.000 N 
BRANCH  23  24
ATOM     24  C   UNL     1       4.954   5.244  17.441  0.00  0.00    +0.000 A 
ATOM     25  C   UNL     1       4.694   4.490  16.297  0.00  0.00    +0.000 A 
ATOM     26  C   UNL     1       5.759   4.009  15.518  0.00  0.00    +0.000 A 
ATOM     27  C   UNL     1       7.083   4.247  15.895  0.00  0.00    +0.000 A 
ATOM     28  C   UNL     1       7.349   4.948  17.064  0.00  0.00    +0.000 A 
ATOM     29  C   UNL     1       6.290   5.432  17.829  0.00  0.00    +0.000 A 
ENDBRANCH  23  24
ENDBRANCH   1  20
TORSDOF 3
ENDMDL
MODEL 6
REMARK VINA RESULT:      -8.0      6.477      8.063
REMARK  Name = 
REMARK  6 active torsions:
REMARK  status: ('A' for Active; 'I' for Inactive)
REMARK    1  A    between atoms: C_1  and  C_2
REMARK    2  A    between atoms: C_4  and  N_5
REMARK    3  A    between atoms: C_6  and  C_8
REMARK    4  A    between atoms: N_14  and  C_15
REMARK    5  A    between atoms: N_14  and  C_16
REMARK    6  A    between atoms: N_22  and  C_23
REMARK                            x       y       z     vdW  Elec       q    Type
REMARK                         _______ _______ _______ _____ _____    ______ ____
ROOT
ATOM      1  N   UNL     1       1.659   7.554  19.264  0.00  0.00    +0.000 N 
ATOM      2  C   UNL     1       1.273   8.865  19.033  0.00  0.00    +0.000 C 
ATOM      3  O   UNL     1       1.297   9.371  17.914  0.00  0.00    +0.000 OA
ATOM      4  H   UNL     1       1.697   7.165  20.197  0.00  0.00    +0.000 HD
ENDROOT
BRANCH   2   5
ATOM      5  C   UNL     1       0.763   9.670  20.181  0.00  0.00    +0.000 A 
ATOM      6  C   UNL     1       0.409   9.095  21.413  0.00  0.00    +0.000 A 
ATOM      7  C   UNL     1      -0.073   9.881  22.478  0.00  0.00    +0.000 A 
ATOM      8  C   UNL     1      -0.174  11.248  22.236  0.00  0.00    +0.000 A 
ATOM      9  O   UNL     1      -0.617  12.224  23.083  0.00  0.00    +0.000 OA
ATOM     10  C   UNL     1      -0.513  13.385  22.350  0.00  0.00    +0.000 A 
ATOM     11  N   UNL     1      -0.896  14.547  22.924  0.00  0.00    +0.000 N 
ATOM     12  C   UNL     1      -0.792  15.784  22.171  0.00  0.00    +0.000 C 
ATOM     13  C   UNL     1      -1.397  14.634  24.278  0.00  0.00    +0.000 C 
ATOM     14  N   UNL     1      -0.042  13.203  21.133  0.00  0.00    +0.000 NA
ATOM     15  C   UNL     1       0.178  11.854  21.045  0.00  0.00    +0.000 A 
ATOM     16  C   UNL     1       0.667  11.066  19.995  0.00  0.00    +0.000 A 
ENDBRANCH   2   5
BRANCH   1  20
ATOM     17  C   UNL     1       3.157   3.150  17.702  0.00  0.00    +0.000 C 
ATOM     18  C   UNL     1       3.269   4.597  18.164  0.00  0.00    +0.000 C 
ATOM     19  C   UNL     1       1.905   5.255  18.307  0.00  0.00    +0.000 C 
ATOM     20  C   UNL     1       2.173   6.759  18.160  0.00  0.00    +0.000 C 
ATOM     21  C   UNL     1       3.674   6.844  17.803  0.00  0.00    +0.000 C 
ATOM     22  O   UNL     1       4.334   7.870  17.788  0.00  0.00    +0.000 OA
ATOM     23  N   UNL     1       4.031   5.549  17.385  0.00  0.00    +0.000 N 
BRANCH  23  24
ATOM     24  C   UNL     1       5.193   5.196  16.665  0.00  0.00    +0.000 A 
ATOM     25  C   UNL     1       6.415   4.896  17.265  0.00  0.00    +0.000 A 
ATOM     26  C   UNL     1       7.516   4.538  16.470  0.00  0.00    +0.000 A 
ATOM     27  C   UNL     1       7.413   4.514  15.077  0.00  0.00    +0.000 A 
ATOM     28  C   UNL     1       6.215   4.867  14.471  0.00  0.00    +0.000 A 
ATOM     29  C   UNL     1       5.121   5.212  15.263  0.00  0.00    +0.000 A 
ENDBRANCH  23  24
ENDBRANCH   1  20
TORSDOF 3
ENDMDL
MODEL 7
REMARK VINA RESULT:      -8.0      7.257      9.131
REMARK  Name = 
REMARK  6 active torsions:
REMARK  status: ('A' for Active; 'I' for Inactive)
REMARK    1  A    between atoms: C_1  and  C_2
REMARK    2  A    between atoms: C_4  and  N_5
REMARK    3  A    between atoms: C_6  and  C_8
REMARK    4  A    between atoms: N_14  and  C_15
REMARK    5  A    between atoms: N_14  and  C_16
REMARK    6  A    between atoms: N_22  and  C_23
REMARK                            x       y       z     vdW  Elec       q    Type
REMARK                         _______ _______ _______ _____ _____    ______ ____
ROOT
ATOM      1  N   UNL     1       1.507   8.590  19.495  0.00  0.00    +0.000 N 
ATOM      2  C   UNL     1       1.086   9.089  20.718  0.00  0.00    +0.000 C 
ATOM      3  O   UNL     1       1.594   8.743  21.781  0.00  0.00    +0.000 OA
ATOM      4  H   UNL     1       1.041   8.832  18.630  0.00  0.00    +0.000 HD
ENDROOT
BRANCH   2   5
ATOM      5  C   UNL     1       0.010  10.123  20.732  0.00  0.00    +0.000 A 
ATOM      6  C   UNL     1      -0.647  10.550  19.567  0.00  0.00    +0.000 A 
ATOM      7  C   UNL     1      -1.659  11.531  19.612  0.00  0.00    +0.000 A 
ATOM      8  C   UNL     1      -1.961  12.043  20.870  0.00  0.00    +0.000 A 
ATOM      9  O   UNL     1      -2.881  13.000  21.192  0.00  0.00    +0.000 OA
ATOM     10  C   UNL     1      -2.774  13.130  22.558  0.00  0.00    +0.000 A 
ATOM     11  N   UNL     1      -3.565  14.030  23.184  0.00  0.00    +0.000 N 
ATOM     12  C   UNL     1      -3.472  14.182  24.625  0.00  0.00    +0.000 C 
ATOM     13  C   UNL     1      -4.530  14.854  22.491  0.00  0.00    +0.000 C 
ATOM     14  N   UNL     1      -1.873  12.334  23.098  0.00  0.00    +0.000 NA
ATOM     15  C   UNL     1      -1.350  11.638  22.041  0.00  0.00    +0.000 A 
ATOM     16  C   UNL     1      -0.353  10.655  21.989  0.00  0.00    +0.000 A 
ENDBRANCH   2   5
BRANCH   1  20
ATOM     17  C   UNL     1       4.549   5.892  16.749  0.00  0.00    +0.000 C 
ATOM     18  C   UNL     1       3.344   6.209  17.623  0.00  0.00    +0.000 C 
ATOM     19  C   UNL     1       3.411   7.616  18.197  0.00  0.00    +0.000 C 
ATOM     20  C   UNL     1       2.544   7.571  19.461  0.00  0.00    +0.000 C 
ATOM     21  C   UNL     1       2.146   6.084  19.596  0.00  0.00    +0.000 C 
ATOM     22  O   UNL     1       1.302   5.651  20.363  0.00  0.00    +0.000 OA
ATOM     23  N   UNL     1       3.045   5.382  18.772  0.00  0.00    +0.000 N 
BRANCH  23  24
ATOM     24  C   UNL     1       3.294   3.993  18.804  0.00  0.00    +0.000 A 
ATOM     25  C   UNL     1       4.240   3.395  19.635  0.00  0.00    +0.000 A 
ATOM     26  C   UNL     1       4.411   2.001  19.612  0.00  0.00    +0.000 A 
ATOM     27  C   UNL     1       3.668   1.205  18.735  0.00  0.00    +0.000 A 
ATOM     28  C   UNL     1       2.766   1.802  17.864  0.00  0.00    +0.000 A 
ATOM     29  C   UNL     1       2.591   3.183  17.897  0.00  0.00    +0.000 A 
ENDBRANCH  23  24
ENDBRANCH   1  20
TORSDOF 3
ENDMDL
MODEL 8
REMARK VINA RESULT:      -8.0      8.500     11.701
REMARK  Name = 
REMARK  6 active torsions:
REMARK  status: ('A' for Active; 'I' for Inactive)
REMARK    1  A    between atoms: C_1  and  C_2
REMARK    2  A    between atoms: C_4  and  N_5
REMARK    3  A    between atoms: C_6  and  C_8
REMARK    4  A    between atoms: N_14  and  C_15
REMARK    5  A    between atoms: N_14  and  C_16
REMARK    6  A    between atoms: N_22  and  C_23
REMARK                            x       y       z     vdW  Elec       q    Type
REMARK                         _______ _______ _______ _____ _____    ______ ____
ROOT
ATOM      1  N   UNL     1      -0.155  10.538  20.728  0.00  0.00    +0.000 N 
ATOM      2  C   UNL     1       0.757  10.501  19.684  0.00  0.00    +0.000 C 
ATOM      3  O   UNL     1       1.071  11.503  19.047  0.00  0.00    +0.000 OA
ATOM      4  H   UNL     1      -0.455   9.698  21.204  0.00  0.00    +0.000 HD
ENDROOT
BRANCH   2   5
ATOM      5  C   UNL     1       1.416   9.202  19.360  0.00  0.00    +0.000 A 
ATOM      6  C   UNL     1       2.143   8.994  18.176  0.00  0.00    +0.000 A 
ATOM      7  C   UNL     1       2.752   7.755  17.896  0.00  0.00    +0.000 A 
ATOM      8  C   UNL     1       2.590   6.761  18.857  0.00  0.00    +0.000 A 
ATOM      9  O   UNL     1       3.062   5.479  18.832  0.00  0.00    +0.000 OA
ATOM     10  C   UNL     1       2.620   4.930  20.015  0.00  0.00    +0.000 A 
ATOM     11  N   UNL     1       2.924   3.640  20.280  0.00  0.00    +0.000 N 
ATOM     12  C   UNL     1       2.472   3.041  21.522  0.00  0.00    +0.000 C 
ATOM     13  C   UNL     1       3.703   2.810  19.388  0.00  0.00    +0.000 C 
ATOM     14  N   UNL     1       1.925   5.765  20.760  0.00  0.00    +0.000 NA
ATOM     15  C   UNL     1       1.897   6.929  20.041  0.00  0.00    +0.000 A 
ATOM     16  C   UNL     1       1.304   8.169  20.316  0.00  0.00    +0.000 A 
ENDBRANCH   2   5
BRANCH   1  20
ATOM     17  C   UNL     1      -3.085  12.981  23.813  0.00  0.00    +0.000 C 
ATOM     18  C   UNL     1      -2.669  12.247  22.546  0.00  0.00    +0.000 C 
ATOM     19  C   UNL     1      -1.180  11.936  22.532  0.00  0.00    +0.000 C 
ATOM     20  C   UNL     1      -0.819  11.792  21.048  0.00  0.00    +0.000 C 
ATOM     21  C   UNL     1      -2.118  12.171  20.302  0.00  0.00    +0.000 C 
ATOM     22  O   UNL     1      -2.316  12.003  19.110  0.00  0.00    +0.000 OA
ATOM     23  N   UNL     1      -2.908  12.846  21.250  0.00  0.00    +0.000 N 
BRANCH  23  24
ATOM     24  C   UNL     1      -4.030  13.656  20.975  0.00  0.00    +0.000 A 
ATOM     25  C   UNL     1      -5.312  13.154  20.751  0.00  0.00    +0.000 A 
ATOM     26  C   UNL     1      -6.376  14.036  20.500  0.00  0.00    +0.000 A 
ATOM     27  C   UNL     1      -6.159  15.415  20.435  0.00  0.00    +0.000 A 
ATOM     28  C   UNL     1      -4.875  15.917  20.600  0.00  0.00    +0.000 A 
ATOM     29  C   UNL     1      -3.823  15.040  20.859  0.00  0.00    +0.000 A 
ENDBRANCH  23  24
ENDBRANCH   1  20
TORSDOF 3
ENDMDL
MODEL 9
REMARK VINA RESULT:      -7.9      6.515      8.120
REMARK  Name = 
REMARK  6 active torsions:
REMARK  status: ('A' for Active; 'I' for Inactive)
REMARK    1  A    between atoms: C_1  and  C_2
REMARK    2  A    between atoms: C_4  and  N_5
REMARK    3  A    between atoms: C_6  and  C_8
REMARK    4  A    between atoms: N_14  and  C_15
REMARK    5  A    between atoms: N_14  and  C_16
REMARK    6  A    between atoms: N_22  and  C_23
REMARK                            x       y       z     vdW  Elec       q    Type
REMARK                         _______ _______ _______ _____ _____    ______ ____
ROOT
ATOM      1  N   UNL     1       1.603   7.304  19.805  0.00  0.00    +0.000 N 
ATOM      2  C   UNL     1       1.132   8.558  19.446  0.00  0.00    +0.000 C 
ATOM      3  O   UNL     1       1.061   8.924  18.276  0.00  0.00    +0.000 OA
ATOM      4  H   UNL     1       1.719   7.034  20.773  0.00  0.00    +0.000 HD
ENDROOT
BRANCH   2   5
ATOM      5  C   UNL     1       0.647   9.471  20.521  0.00  0.00    +0.000 A 
ATOM      6  C   UNL     1       0.288   9.014  21.800  0.00  0.00    +0.000 A 
ATOM      7  C   UNL     1      -0.169   9.901  22.795  0.00  0.00    +0.000 A 
ATOM      8  C   UNL     1      -0.241  11.243  22.434  0.00  0.00    +0.000 A 
ATOM      9  O   UNL     1      -0.657  12.300  23.195  0.00  0.00    +0.000 OA
ATOM     10  C   UNL     1      -0.531  13.389  22.362  0.00  0.00    +0.000 A 
ATOM     11  N   UNL     1      -0.884  14.605  22.834  0.00  0.00    +0.000 N 
ATOM     12  C   UNL     1      -0.757  15.769  21.976  0.00  0.00    +0.000 C 
ATOM     13  C   UNL     1      -1.375  14.822  24.178  0.00  0.00    +0.000 C 
ATOM     14  N   UNL     1      -0.072  13.091  21.164  0.00  0.00    +0.000 NA
ATOM     15  C   UNL     1       0.117  11.735  21.194  0.00  0.00    +0.000 A 
ATOM     16  C   UNL     1       0.581  10.848  20.214  0.00  0.00    +0.000 A 
ENDBRANCH   2   5
BRANCH   1  20
ATOM     17  C   UNL     1       3.552   2.932  18.729  0.00  0.00    +0.000 C 
ATOM     18  C   UNL     1       3.498   4.438  18.945  0.00  0.00    +0.000 C 
ATOM     19  C   UNL     1       2.078   4.928  19.183  0.00  0.00    +0.000 C 
ATOM     20  C   UNL     1       2.094   6.406  18.772  0.00  0.00    +0.000 C 
ATOM     21  C   UNL     1       3.509   6.623  18.192  0.00  0.00    +0.000 C 
ATOM     22  O   UNL     1       3.999   7.709  17.926  0.00  0.00    +0.000 OA
ATOM     23  N   UNL     1       4.006   5.334  17.928  0.00  0.00    +0.000 N 
BRANCH  23  24
ATOM     24  C   UNL     1       5.111   5.017  17.109  0.00  0.00    +0.000 A 
ATOM     25  C   UNL     1       5.007   4.705  15.754  0.00  0.00    +0.000 A 
ATOM     26  C   UNL     1       6.163   4.418  15.010  0.00  0.00    +0.000 A 
ATOM     27  C   UNL     1       7.420   4.404  15.622  0.00  0.00    +0.000 A 
ATOM     28  C   UNL     1       7.523   4.657  16.984  0.00  0.00    +0.000 A 
ATOM     29  C   UNL     1       6.376   4.952  17.716  0.00  0.00    +0.000 A 
ENDBRANCH  23  24
ENDBRANCH   1  20
TORSDOF 3
ENDMDL
