MODEL 1
REMARK VINA RESULT:      -9.2      0.000      0.000
REMARK  Name = 
REMARK  7 active torsions:
REMARK  status: ('A' for Active; 'I' for Inactive)
REMARK    1  A    between atoms: C_1  and  N_2
REMARK    2  A    between atoms: C_6  and  C_7
REMARK    3  A    between atoms: C_7  and  C_8
REMARK    4  A    between atoms: C_8  and  C_11
REMARK    5  A    between atoms: C_15  and  N_16
REMARK    6  A    between atoms: C_19  and  C_20
REMARK    7  A    between atoms: C_21  and  C_22
REMARK                            x       y       z     vdW  Elec       q    Type
REMARK                         _______ _______ _______ _____ _____    ______ ____
ROOT
ATOM      1  C   UNL     1       1.739   7.965  20.011  0.00  0.00    +0.000 A 
ATOM      2  C   UNL     1       2.119   8.642  18.841  0.00  0.00    +0.000 A 
ATOM      3  C   UNL     1       2.548   7.937  17.727  0.00  0.00    +0.000 A 
ATOM      4  C   UNL     1       2.701   6.558  17.812  0.00  0.00    +0.000 A 
ATOM      5  C   UNL     1       2.590   5.911  19.058  0.00  0.00    +0.000 A 
ATOM      6  C   UNL     1       2.024   6.594  20.131  0.00  0.00    +0.000 A 
ENDROOT
BRANCH   5   7
ATOM      7  N   UNL     1       3.497   4.827  19.373  0.00  0.00    +0.000 N 
ATOM      8  C   UNL     1       4.878   5.357  19.420  0.00  0.00    +0.000 C 
ATOM      9  C   UNL     1       5.392   5.088  18.037  0.00  0.00    +0.000 A 
ATOM     10  C   UNL     1       6.098   5.893  17.153  0.00  0.00    +0.000 A 
ATOM     11  C   UNL     1       6.156   5.461  15.809  0.00  0.00    +0.000 A 
ATOM     12  C   UNL     1       5.518   4.282  15.370  0.00  0.00    +0.000 A 
ATOM     13  C   UNL     1       4.765   3.521  16.255  0.00  0.00    +0.000 A 
ATOM     14  C   UNL     1       4.697   3.964  17.564  0.00  0.00    +0.000 A 
ATOM     15  C   UNL     1       3.523   3.751  18.458  0.00  0.00    +0.000 C 
ATOM     16  O   UNL     1       2.680   2.893  18.269  0.00  0.00    +0.000 OA
BRANCH  10  17
ATOM     17  C   UNL     1       6.521   7.282  17.424  0.00  0.00    +0.000 C 
ATOM     18  C   UNL     1       7.768   7.748  17.574  0.00  0.00    +0.000 C 
BRANCH  18  19
ATOM     19  C   UNL     1       8.080   9.172  17.936  0.00  0.00    +0.000 C 
ATOM     20  F   UNL     1       8.935   9.250  18.992  0.00  0.00    +0.000 F 
ENDBRANCH  18  19
ENDBRANCH  10  17
ENDBRANCH   5   7
BRANCH   1  21
ATOM     21  C   UNL     1       1.054   8.714  21.129  0.00  0.00    +0.000 C 
ATOM     22  F   UNL     1       1.772   8.703  22.287  0.00  0.00    +0.000 F 
ATOM     23  F   UNL     1      -0.139   8.125  21.464  0.00  0.00    +0.000 F 
BRANCH  21  24
ATOM     24  C   UNL     1       0.731  10.158  20.711  0.00  0.00    +0.000 C 
BRANCH  24  30
ATOM     25  C   UNL     1      -1.695  11.988  19.872  0.00  0.00    +0.000 C 
ATOM     26  N   UNL     1      -1.291  11.644  21.211  0.00  0.00    +0.000 N 
ATOM     27  C   UNL     1      -1.908  12.058  22.348  0.00  0.00    +0.000 A 
ATOM     28  N   UNL     1      -1.282  11.560  23.391  0.00  0.00    +0.000 NA
ATOM     29  N   UNL     1      -0.246  10.792  22.924  0.00  0.00    +0.000 NA
ATOM     30  C   UNL     1      -0.247  10.847  21.606  0.00  0.00    +0.000 A 
ENDBRANCH  24  30
ENDBRANCH  21  24
ENDBRANCH   1  21
TORSDOF 6
ENDMDL
MODEL 2
REMARK VINA RESULT:      -8.8      1.056      1.188
REMARK  Name = 
REMARK  7 active torsions:
REMARK  status: ('A' for Active; 'I' for Inactive)
REMARK    1  A    between atoms: C_1  and  N_2
REMARK    2  A    between atoms: C_6  and  C_7
REMARK    3  A    between atoms: C_7  and  C_8
REMARK    4  A    between atoms: C_8  and  C_11
REMARK    5  A    between atoms: C_15  and  N_16
REMARK    6  A    between atoms: C_19  and  C_20
REMARK    7  A    between atoms: C_21  and  C_22
REMARK                            x       y       z     vdW  Elec       q    Type
REMARK                         _______ _______ _______ _____ _____    ______ ____
ROOT
ATOM      1  C   UNL     1       1.693   8.079  19.882  0.00  0.00    +0.000 A 
ATOM      2  C   UNL     1       2.144   8.750  18.734  0.00  0.00    +0.000 A 
ATOM      3  C   UNL     1       2.660   8.041  17.660  0.00  0.00    +0.000 A 
ATOM      4  C   UNL     1       2.824   6.665  17.771  0.00  0.00    +0.000 A 
ATOM      5  C   UNL     1       2.636   6.028  19.013  0.00  0.00    +0.000 A 
ATOM      6  C   UNL     1       1.987   6.713  20.036  0.00  0.00    +0.000 A 
ENDROOT
BRANCH   5   7
ATOM      7  N   UNL     1       3.533   4.960  19.402  0.00  0.00    +0.000 N 
ATOM      8  C   UNL     1       4.916   5.486  19.438  0.00  0.00    +0.000 C 
ATOM      9  C   UNL     1       5.448   5.137  18.080  0.00  0.00    +0.000 A 
ATOM     10  C   UNL     1       6.170   5.888  17.162  0.00  0.00    +0.000 A 
ATOM     11  C   UNL     1       6.245   5.379  15.846  0.00  0.00    +0.000 A 
ATOM     12  C   UNL     1       5.607   4.180  15.466  0.00  0.00    +0.000 A 
ATOM     13  C   UNL     1       4.838   3.473  16.381  0.00  0.00    +0.000 A 
ATOM     14  C   UNL     1       4.754   3.991  17.662  0.00  0.00    +0.000 A 
ATOM     15  C   UNL     1       3.567   3.834  18.550  0.00  0.00    +0.000 C 
ATOM     16  O   UNL     1       2.722   2.970  18.398  0.00  0.00    +0.000 OA
BRANCH  10  17
ATOM     17  C   UNL     1       6.595   7.289  17.360  0.00  0.00    +0.000 C 
ATOM     18  C   UNL     1       7.816   7.740  17.676  0.00  0.00    +0.000 C 
BRANCH  18  19
ATOM     19  C   UNL     1       8.118   9.188  17.941  0.00  0.00    +0.000 C 
ATOM     20  F   UNL     1       8.973   9.343  18.989  0.00  0.00    +0.000 F 
ENDBRANCH  18  19
ENDBRANCH  10  17
ENDBRANCH   5   7
BRANCH   1  21
ATOM     21  C   UNL     1       0.921   8.830  20.942  0.00  0.00    +0.000 C 
ATOM     22  F   UNL     1       1.730   9.370  21.897  0.00  0.00    +0.000 F 
ATOM     23  F   UNL     1       0.088   7.990  21.637  0.00  0.00    +0.000 F 
BRANCH  21  24
ATOM     24  C   UNL     1       0.033   9.915  20.314  0.00  0.00    +0.000 C 
BRANCH  24  30
ATOM     25  C   UNL     1       1.687  12.212  18.926  0.00  0.00    +0.000 C 
ATOM     26  N   UNL     1       1.028  12.270  20.205  0.00  0.00    +0.000 N 
ATOM     27  C   UNL     1       1.011  13.348  21.031  0.00  0.00    +0.000 A 
ATOM     28  N   UNL     1       0.321  13.059  22.112  0.00  0.00    +0.000 NA
ATOM     29  N   UNL     1      -0.135  11.772  21.981  0.00  0.00    +0.000 NA
ATOM     30  C   UNL     1       0.297  11.292  20.830  0.00  0.00    +0.000 A 
ENDBRANCH  24  30
ENDBRANCH  21  24
ENDBRANCH   1  21
TORSDOF 6
ENDMDL
MODEL 3
REMARK VINA RESULT:      -8.7      0.657      1.231
REMARK  Name = 
REMARK  7 active torsions:
REMARK  status: ('A' for Active; 'I' for Inactive)
REMARK    1  A    between atoms: C_1  and  N_2
REMARK    2  A    between atoms: C_6  and  C_7
REMARK    3  A    between atoms: C_7  and  C_8
REMARK    4  A    between atoms: C_8  and  C_11
REMARK    5  A    between atoms: C_15  and  N_16
REMARK    6  A    between atoms: C_19  and  C_20
REMARK    7  A    between atoms: C_21  and  C_22
REMARK                            x       y       z     vdW  Elec       q    Type
REMARK                         _______ _______ _______ _____ _____    ______ ____
ROOT
ATOM      1  C   UNL     1       1.648   8.213  20.043  0.00  0.00    +0.000 A 
ATOM      2  C   UNL     1       2.091   8.893  18.897  0.00  0.00    +0.000 A 
ATOM      3  C   UNL     1       2.557   8.188  17.797  0.00  0.00    +0.000 A 
ATOM      4  C   UNL     1       2.681   6.806  17.878  0.00  0.00    +0.000 A 
ATOM      5  C   UNL     1       2.504   6.152  19.112  0.00  0.00    +0.000 A 
ATOM      6  C   UNL     1       1.903   6.837  20.164  0.00  0.00    +0.000 A 
ENDROOT
BRANCH   5   7
ATOM      7  N   UNL     1       3.376   5.049  19.458  0.00  0.00    +0.000 N 
ATOM      8  C   UNL     1       4.776   5.528  19.454  0.00  0.00    +0.000 C 
ATOM      9  C   UNL     1       5.251   5.179  18.075  0.00  0.00    +0.000 A 
ATOM     10  C   UNL     1       5.968   5.917  17.143  0.00  0.00    +0.000 A 
ATOM     11  C   UNL     1       5.982   5.424  15.818  0.00  0.00    +0.000 A 
ATOM     12  C   UNL     1       5.292   4.252  15.445  0.00  0.00    +0.000 A 
ATOM     13  C   UNL     1       4.530   3.559  16.377  0.00  0.00    +0.000 A 
ATOM     14  C   UNL     1       4.505   4.062  17.666  0.00  0.00    +0.000 A 
ATOM     15  C   UNL     1       3.344   3.934  18.592  0.00  0.00    +0.000 C 
ATOM     16  O   UNL     1       2.465   3.101  18.457  0.00  0.00    +0.000 OA
BRANCH  10  17
ATOM     17  C   UNL     1       6.447   7.300  17.343  0.00  0.00    +0.000 C 
ATOM     18  C   UNL     1       7.686   7.704  17.655  0.00  0.00    +0.000 C 
BRANCH  18  19
ATOM     19  C   UNL     1       8.044   9.138  17.923  0.00  0.00    +0.000 C 
ATOM     20  F   UNL     1       8.978   9.251  18.907  0.00  0.00    +0.000 F 
ENDBRANCH  18  19
ENDBRANCH  10  17
ENDBRANCH   5   7
BRANCH   1  21
ATOM     21  C   UNL     1       0.927   8.967  21.136  0.00  0.00    +0.000 C 
ATOM     22  F   UNL     1       1.360   8.626  22.382  0.00  0.00    +0.000 F 
ATOM     23  F   UNL     1      -0.411   8.666  21.147  0.00  0.00    +0.000 F 
BRANCH  21  24
ATOM     24  C   UNL     1       1.038  10.486  20.926  0.00  0.00    +0.000 C 
BRANCH  24  30
ATOM     25  C   UNL     1      -1.142  11.672  22.870  0.00  0.00    +0.000 C 
ATOM     26  N   UNL     1      -1.186  11.647  21.431  0.00  0.00    +0.000 N 
ATOM     27  C   UNL     1      -2.194  12.144  20.667  0.00  0.00    +0.000 A 
ATOM     28  N   UNL     1      -1.913  11.955  19.397  0.00  0.00    +0.000 NA
ATOM     29  N   UNL     1      -0.691  11.337  19.330  0.00  0.00    +0.000 NA
ATOM     30  C   UNL     1      -0.253  11.145  20.560  0.00  0.00    +0.000 A 
ENDBRANCH  24  30
ENDBRANCH  21  24
ENDBRANCH   1  21
TORSDOF 6
ENDMDL
MODEL 4
REMARK VINA RESULT:      -8.7      2.605      3.430
REMARK  Name = 
REMARK  7 active torsions:
REMARK  status: ('A' for Active; 'I' for Inactive)
REMARK    1  A    between atoms: C_1  and  N_2
REMARK    2  A    between atoms: C_6  and  C_7
REMARK    3  A    between atoms: C_7  and  C_8
REMARK    4  A    between atoms: C_8  and  C_11
REMARK    5  A    between atoms: C_15  and  N_16
REMARK    6  A    between atoms: C_19  and  C_20
REMARK    7  A    between atoms: C_21  and  C_22
REMARK                            x       y       z     vdW  Elec       q    Type
REMARK                         _______ _______ _______ _____ _____    ______ ____
ROOT
ATOM      1  C   UNL     1       1.532   8.802  19.359  0.00  0.00    +0.000 A 
ATOM      2  C   UNL     1       2.165   9.097  18.140  0.00  0.00    +0.000 A 
ATOM      3  C   UNL     1       2.818   8.103  17.428  0.00  0.00    +0.000 A 
ATOM      4  C   UNL     1       2.933   6.833  17.982  0.00  0.00    +0.000 A 
ATOM      5  C   UNL     1       2.548   6.607  19.317  0.00  0.00    +0.000 A 
ATOM      6  C   UNL     1       1.769   7.559  19.970  0.00  0.00    +0.000 A 
ENDROOT
BRANCH   5   7
ATOM      7  N   UNL     1       3.352   5.734  20.146  0.00  0.00    +0.000 N 
ATOM      8  C   UNL     1       4.492   5.233  19.346  0.00  0.00    +0.000 C 
ATOM      9  C   UNL     1       3.994   3.916  18.831  0.00  0.00    +0.000 A 
ATOM     10  C   UNL     1       4.050   3.352  17.563  0.00  0.00    +0.000 A 
ATOM     11  C   UNL     1       3.210   2.240  17.326  0.00  0.00    +0.000 A 
ATOM     12  C   UNL     1       2.339   1.732  18.312  0.00  0.00    +0.000 A 
ATOM     13  C   UNL     1       2.251   2.346  19.554  0.00  0.00    +0.000 A 
ATOM     14  C   UNL     1       3.062   3.446  19.770  0.00  0.00    +0.000 A 
ATOM     15  C   UNL     1       2.702   4.589  20.658  0.00  0.00    +0.000 C 
ATOM     16  O   UNL     1       1.859   4.521  21.534  0.00  0.00    +0.000 OA
BRANCH  10  17
ATOM     17  C   UNL     1       4.667   3.985  16.380  0.00  0.00    +0.000 C 
ATOM     18  C   UNL     1       5.964   4.021  16.049  0.00  0.00    +0.000 C 
BRANCH  18  19
ATOM     19  C   UNL     1       6.493   4.773  14.861  0.00  0.00    +0.000 C 
ATOM     20  F   UNL     1       5.715   5.848  14.556  0.00  0.00    +0.000 F 
ENDBRANCH  18  19
ENDBRANCH  10  17
ENDBRANCH   5   7
BRANCH   1  21
ATOM     21  C   UNL     1       0.629   9.824  20.008  0.00  0.00    +0.000 C 
ATOM     22  F   UNL     1       1.177  10.375  21.127  0.00  0.00    +0.000 F 
ATOM     23  F   UNL     1      -0.536   9.249  20.448  0.00  0.00    +0.000 F 
BRANCH  21  24
ATOM     24  C   UNL     1       0.230  10.922  19.009  0.00  0.00    +0.000 C 
BRANCH  24  30
ATOM     25  C   UNL     1      -2.482  12.333  19.779  0.00  0.00    +0.000 C 
ATOM     26  N   UNL     1      -2.281  11.345  18.750  0.00  0.00    +0.000 N 
ATOM     27  C   UNL     1      -3.247  10.859  17.929  0.00  0.00    +0.000 A 
ATOM     28  N   UNL     1      -2.721   9.976  17.111  0.00  0.00    +0.000 NA
ATOM     29  N   UNL     1      -1.381   9.896  17.393  0.00  0.00    +0.000 NA
ATOM     30  C   UNL     1      -1.115  10.720  18.389  0.00  0.00    +0.000 A 
ENDBRANCH  24  30
ENDBRANCH  21  24
ENDBRANCH   1  21
TORSDOF 6
ENDMDL
MODEL 5
REMARK VINA RESULT:      -8.7      2.468      3.213
REMARK  Name = 
REMARK  7 active torsions:
REMARK  status: ('A' for Active; 'I' for Inactive)
REMARK    1  A    between atoms: C_1  and  N_2
REMARK    2  A    between atoms: C_6  and  C_7
REMARK    3  A    between atoms: C_7  and  C_8
REMARK    4  A    between atoms: C_8  and  C_11
REMARK    5  A    between atoms: C_15  and  N_16
REMARK    6  A    between atoms: C_19  and  C_20
REMARK    7  A    between atoms: C_21  and  C_22
REMARK                            x       y       z     vdW  Elec       q    Type
REMARK                         _______ _______ _______ _____ _____    ______ ____
ROOT
ATOM      1  C   UNL     1       1.543   8.830  19.402  0.00  0.00    +0.000 A 
ATOM      2  C   UNL     1       2.123   9.137  18.160  0.00  0.00    +0.000 A 
ATOM      3  C   UNL     1       2.749   8.151  17.412  0.00  0.00    +0.000 A 
ATOM      4  C   UNL     1       2.893   6.878  17.951  0.00  0.00    +0.000 A 
ATOM      5  C   UNL     1       2.565   6.641  19.300  0.00  0.00    +0.000 A 
ATOM      6  C   UNL     1       1.810   7.584  19.992  0.00  0.00    +0.000 A 
ENDROOT
BRANCH   5   7
ATOM      7  N   UNL     1       3.406   5.764  20.088  0.00  0.00    +0.000 N 
ATOM      8  C   UNL     1       4.520   5.283  19.240  0.00  0.00    +0.000 C 
ATOM      9  C   UNL     1       4.013   3.968  18.728  0.00  0.00    +0.000 A 
ATOM     10  C   UNL     1       4.027   3.419  17.452  0.00  0.00    +0.000 A 
ATOM     11  C   UNL     1       3.187   2.303  17.232  0.00  0.00    +0.000 A 
ATOM     12  C   UNL     1       2.358   1.776  18.244  0.00  0.00    +0.000 A 
ATOM     13  C   UNL     1       2.311   2.374  19.496  0.00  0.00    +0.000 A 
ATOM     14  C   UNL     1       3.121   3.479  19.695  0.00  0.00    +0.000 A 
ATOM     15  C   UNL     1       2.786   4.608  20.609  0.00  0.00    +0.000 C 
ATOM     16  O   UNL     1       1.976   4.522  21.515  0.00  0.00    +0.000 OA
BRANCH  10  17
ATOM     17  C   UNL     1       4.593   4.071  16.254  0.00  0.00    +0.000 C 
ATOM     18  C   UNL     1       5.795   3.867  15.698  0.00  0.00    +0.000 C 
BRANCH  18  19
ATOM     19  C   UNL     1       6.306   4.654  14.525  0.00  0.00    +0.000 C 
ATOM     20  F   UNL     1       7.571   5.111  14.734  0.00  0.00    +0.000 F 
ENDBRANCH  18  19
ENDBRANCH  10  17
ENDBRANCH   5   7
BRANCH   1  21
ATOM     21  C   UNL     1       0.664   9.844  20.095  0.00  0.00    +0.000 C 
ATOM     22  F   UNL     1       1.196  10.285  21.270  0.00  0.00    +0.000 F 
ATOM     23  F   UNL     1      -0.540   9.294  20.454  0.00  0.00    +0.000 F 
BRANCH  21  24
ATOM     24  C   UNL     1       0.350  11.030  19.169  0.00  0.00    +0.000 C 
BRANCH  24  30
ATOM     25  C   UNL     1      -1.804   9.957  17.132  0.00  0.00    +0.000 C 
ATOM     26  N   UNL     1      -2.014  10.903  18.198  0.00  0.00    +0.000 N 
ATOM     27  C   UNL     1      -3.200  11.491  18.503  0.00  0.00    +0.000 A 
ATOM     28  N   UNL     1      -3.037  12.297  19.528  0.00  0.00    +0.000 NA
ATOM     29  N   UNL     1      -1.721  12.221  19.910  0.00  0.00    +0.000 NA
ATOM     30  C   UNL     1      -1.101  11.382  19.102  0.00  0.00    +0.000 A 
ENDBRANCH  24  30
ENDBRANCH  21  24
ENDBRANCH   1  21
TORSDOF 6
ENDMDL
MODEL 6
REMARK VINA RESULT:      -8.6      0.946      1.265
REMARK  Name = 
REMARK  7 active torsions:
REMARK  status: ('A' for Active; 'I' for Inactive)
REMARK    1  A    between atoms: C_1  and  N_2
REMARK    2  A    between atoms: C_6  and  C_7
REMARK    3  A    between atoms: C_7  and  C_8
REMARK    4  A    between atoms: C_8  and  C_11
REMARK    5  A    between atoms: C_15  and  N_16
REMARK    6  A    between atoms: C_19  and  C_20
REMARK    7  A    between atoms: C_21  and  C_22
REMARK                            x       y       z     vdW  Elec       q    Type
REMARK                         _______ _______ _______ _____ _____    ______ ____
ROOT
ATOM      1  C   UNL     1       1.775   7.933  19.875  0.00  0.00    +0.000 A 
ATOM      2  C   UNL     1       2.279   8.665  18.788  0.00  0.00    +0.000 A 
ATOM      3  C   UNL     1       2.804   8.012  17.682  0.00  0.00    +0.000 A 
ATOM      4  C   UNL     1       2.925   6.628  17.705  0.00  0.00    +0.000 A 
ATOM      5  C   UNL     1       2.683   5.917  18.896  0.00  0.00    +0.000 A 
ATOM      6  C   UNL     1       2.025   6.552  19.945  0.00  0.00    +0.000 A 
ENDROOT
BRANCH   5   7
ATOM      7  N   UNL     1       3.536   4.797  19.236  0.00  0.00    +0.000 N 
ATOM      8  C   UNL     1       4.907   5.299  19.479  0.00  0.00    +0.000 C 
ATOM      9  C   UNL     1       5.576   5.116  18.149  0.00  0.00    +0.000 A 
ATOM     10  C   UNL     1       6.387   5.968  17.411  0.00  0.00    +0.000 A 
ATOM     11  C   UNL     1       6.597   5.628  16.056  0.00  0.00    +0.000 A 
ATOM     12  C   UNL     1       6.003   4.494  15.465  0.00  0.00    +0.000 A 
ATOM     13  C   UNL     1       5.146   3.686  16.201  0.00  0.00    +0.000 A 
ATOM     14  C   UNL     1       4.930   4.040  17.521  0.00  0.00    +0.000 A 
ATOM     15  C   UNL     1       3.658   3.787  18.257  0.00  0.00    +0.000 C 
ATOM     16  O   UNL     1       2.834   2.959  17.913  0.00  0.00    +0.000 OA
BRANCH  10  17
ATOM     17  C   UNL     1       6.789   7.328  17.826  0.00  0.00    +0.000 C 
ATOM     18  C   UNL     1       7.893   8.001  17.476  0.00  0.00    +0.000 C 
BRANCH  18  19
ATOM     19  C   UNL     1       8.246   9.352  18.031  0.00  0.00    +0.000 C 
ATOM     20  F   UNL     1       9.058   9.256  19.120  0.00  0.00    +0.000 F 
ENDBRANCH  18  19
ENDBRANCH  10  17
ENDBRANCH   5   7
BRANCH   1  21
ATOM     21  C   UNL     1       0.996   8.636  20.962  0.00  0.00    +0.000 C 
ATOM     22  F   UNL     1       1.801   9.273  21.858  0.00  0.00    +0.000 F 
ATOM     23  F   UNL     1       0.284   7.741  21.720  0.00  0.00    +0.000 F 
BRANCH  21  24
ATOM     24  C   UNL     1      -0.024   9.618  20.364  0.00  0.00    +0.000 C 
BRANCH  24  30
ATOM     25  C   UNL     1      -1.112  11.216  22.855  0.00  0.00    +0.000 C 
ATOM     26  N   UNL     1      -0.263  11.719  21.805  0.00  0.00    +0.000 N 
ATOM     27  C   UNL     1       0.216  12.987  21.724  0.00  0.00    +0.000 A 
ATOM     28  N   UNL     1       0.955  13.106  20.644  0.00  0.00    +0.000 NA
ATOM     29  N   UNL     1       0.972  11.886  20.017  0.00  0.00    +0.000 NA
ATOM     30  C   UNL     1       0.230  11.048  20.716  0.00  0.00    +0.000 A 
ENDBRANCH  24  30
ENDBRANCH  21  24
ENDBRANCH   1  21
TORSDOF 6
ENDMDL
MODEL 7
REMARK VINA RESULT:      -8.5      2.449      3.098
REMARK  Name = 
REMARK  7 active torsions:
REMARK  status: ('A' for Active; 'I' for Inactive)
REMARK    1  A    between atoms: C_1  and  N_2
REMARK    2  A    between atoms: C_6  and  C_7
REMARK    3  A    between atoms: C_7  and  C_8
REMARK    4  A    between atoms: C_8  and  C_11
REMARK    5  A    between atoms: C_15  and  N_16
REMARK    6  A    between atoms: C_19  and  C_20
REMARK    7  A    between atoms: C_21  and  C_22
REMARK                            x       y       z     vdW  Elec       q    Type
REMARK                         _______ _______ _______ _____ _____    ______ ____
ROOT
ATOM      1  C   UNL     1       1.535   9.001  18.761  0.00  0.00    +0.000 A 
ATOM      2  C   UNL     1       2.494   9.264  17.769  0.00  0.00    +0.000 A 
ATOM      3  C   UNL     1       3.293   8.245  17.274  0.00  0.00    +0.000 A 
ATOM      4  C   UNL     1       3.211   6.980  17.843  0.00  0.00    +0.000 A 
ATOM      5  C   UNL     1       2.458   6.780  19.017  0.00  0.00    +0.000 A 
ATOM      6  C   UNL     1       1.554   7.760  19.419  0.00  0.00    +0.000 A 
ENDROOT
BRANCH   5   7
ATOM      7  N   UNL     1       2.971   5.896  20.043  0.00  0.00    +0.000 N 
ATOM      8  C   UNL     1       4.303   5.405  19.627  0.00  0.00    +0.000 C 
ATOM      9  C   UNL     1       3.992   4.094  18.968  0.00  0.00    +0.000 A 
ATOM     10  C   UNL     1       4.438   3.546  17.773  0.00  0.00    +0.000 A 
ATOM     11  C   UNL     1       3.716   2.437  17.275  0.00  0.00    +0.000 A 
ATOM     12  C   UNL     1       2.585   1.918  17.939  0.00  0.00    +0.000 A 
ATOM     13  C   UNL     1       2.116   2.516  19.101  0.00  0.00    +0.000 A 
ATOM     14  C   UNL     1       2.818   3.613  19.569  0.00  0.00    +0.000 A 
ATOM     15  C   UNL     1       2.199   4.746  20.316  0.00  0.00    +0.000 C 
ATOM     16  O   UNL     1       1.127   4.668  20.889  0.00  0.00    +0.000 OA
BRANCH  10  17
ATOM     17  C   UNL     1       5.387   4.192  16.844  0.00  0.00    +0.000 C 
ATOM     18  C   UNL     1       5.416   4.108  15.508  0.00  0.00    +0.000 C 
BRANCH  18  19
ATOM     19  C   UNL     1       6.487   4.739  14.664  0.00  0.00    +0.000 C 
ATOM     20  F   UNL     1       6.442   4.298  13.376  0.00  0.00    +0.000 F 
ENDBRANCH  18  19
ENDBRANCH  10  17
ENDBRANCH   5   7
BRANCH   1  21
ATOM     21  C   UNL     1       0.515  10.054  19.123  0.00  0.00    +0.000 C 
ATOM     22  F   UNL     1      -0.703   9.524  19.427  0.00  0.00    +0.000 F 
ATOM     23  F   UNL     1       0.267  10.890  18.064  0.00  0.00    +0.000 F 
BRANCH  21  24
ATOM     24  C   UNL     1       1.018  10.938  20.275  0.00  0.00    +0.000 C 
BRANCH  24  30
ATOM     25  C   UNL     1      -1.700  12.130  21.339  0.00  0.00    +0.000 C 
ATOM     26  N   UNL     1      -0.831  11.208  22.024  0.00  0.00    +0.000 N 
ATOM     27  C   UNL     1      -1.052  10.692  23.261  0.00  0.00    +0.000 A 
ATOM     28  N   UNL     1      -0.064   9.887  23.582  0.00  0.00    +0.000 NA
ATOM     29  N   UNL     1       0.811   9.865  22.525  0.00  0.00    +0.000 NA
ATOM     30  C   UNL     1       0.351  10.668  21.585  0.00  0.00    +0.000 A 
ENDBRANCH  24  30
ENDBRANCH  21  24
ENDBRANCH   1  21
TORSDOF 6
ENDMDL
MODEL 8
REMARK VINA RESULT:      -8.5      2.527      3.168
REMARK  Name = 
REMARK  7 active torsions:
REMARK  status: ('A' for Active; 'I' for Inactive)
REMARK    1  A    between atoms: C_1  and  N_2
REMARK    2  A    between atoms: C_6  and  C_7
REMARK    3  A    between atoms: C_7  and  C_8
REMARK    4  A    between atoms: C_8  and  C_11
REMARK    5  A    between atoms: C_15  and  N_16
REMARK    6  A    between atoms: C_19  and  C_20
REMARK    7  A    between atoms: C_21  and  C_22
REMARK                            x       y       z     vdW  Elec       q    Type
REMARK                         _______ _______ _______ _____ _____    ______ ____
ROOT
ATOM      1  C   UNL     1       1.610   8.847  19.325  0.00  0.00    +0.000 A 
ATOM      2  C   UNL     1       2.191   9.101  18.072  0.00  0.00    +0.000 A 
ATOM      3  C   UNL     1       2.793   8.078  17.355  0.00  0.00    +0.000 A 
ATOM      4  C   UNL     1       2.909   6.819  17.934  0.00  0.00    +0.000 A 
ATOM      5  C   UNL     1       2.581   6.633  19.290  0.00  0.00    +0.000 A 
ATOM      6  C   UNL     1       1.851   7.614  19.954  0.00  0.00    +0.000 A 
ENDROOT
BRANCH   5   7
ATOM      7  N   UNL     1       3.406   5.763  20.103  0.00  0.00    +0.000 N 
ATOM      8  C   UNL     1       4.529   5.264  19.279  0.00  0.00    +0.000 C 
ATOM      9  C   UNL     1       4.023   3.944  18.779  0.00  0.00    +0.000 A 
ATOM     10  C   UNL     1       4.052   3.377  17.511  0.00  0.00    +0.000 A 
ATOM     11  C   UNL     1       3.210   2.262  17.295  0.00  0.00    +0.000 A 
ATOM     12  C   UNL     1       2.363   1.754  18.302  0.00  0.00    +0.000 A 
ATOM     13  C   UNL     1       2.301   2.371  19.544  0.00  0.00    +0.000 A 
ATOM     14  C   UNL     1       3.113   3.474  19.739  0.00  0.00    +0.000 A 
ATOM     15  C   UNL     1       2.771   4.618  20.632  0.00  0.00    +0.000 C 
ATOM     16  O   UNL     1       1.947   4.550  21.527  0.00  0.00    +0.000 OA
BRANCH  10  17
ATOM     17  C   UNL     1       4.641   4.008  16.313  0.00  0.00    +0.000 C 
ATOM     18  C   UNL     1       5.938   4.148  16.010  0.00  0.00    +0.000 C 
BRANCH  18  19
ATOM     19  C   UNL     1       6.428   4.890  14.799  0.00  0.00    +0.000 C 
ATOM     20  F   UNL     1       6.121   4.235  13.645  0.00  0.00    +0.000 F 
ENDBRANCH  18  19
ENDBRANCH  10  17
ENDBRANCH   5   7
BRANCH   1  21
ATOM     21  C   UNL     1       0.756   9.902  19.988  0.00  0.00    +0.000 C 
ATOM     22  F   UNL     1       0.890   9.910  21.344  0.00  0.00    +0.000 F 
ATOM     23  F   UNL     1      -0.579   9.663  19.780  0.00  0.00    +0.000 F 
BRANCH  21  24
ATOM     24  C   UNL     1       1.051  11.296  19.411  0.00  0.00    +0.000 C 
BRANCH  24  30
ATOM     25  C   UNL     1      -1.498  12.800  20.496  0.00  0.00    +0.000 C 
ATOM     26  N   UNL     1      -0.128  13.037  20.870  0.00  0.00    +0.000 N 
ATOM     27  C   UNL     1       0.291  13.963  21.771  0.00  0.00    +0.000 A 
ATOM     28  N   UNL     1       1.600  13.912  21.872  0.00  0.00    +0.000 NA
ATOM     29  N   UNL     1       2.043  12.922  21.032  0.00  0.00    +0.000 NA
ATOM     30  C   UNL     1       0.999  12.396  20.421  0.00  0.00    +0.000 A 
ENDBRANCH  24  30
ENDBRANCH  21  24
ENDBRANCH   1  21
TORSDOF 6
ENDMDL
MODEL 9
REMARK VINA RESULT:      -8.3      2.382      3.146
REMARK  Name = 
REMARK  7 active torsions:
REMARK  status: ('A' for Active; 'I' for Inactive)
REMARK    1  A    between atoms: C_1  and  N_2
REMARK    2  A    between atoms: C_6  and  C_7
REMARK    3  A    between atoms: C_7  and  C_8
REMARK    4  A    between atoms: C_8  and  C_11
REMARK    5  A    between atoms: C_15  and  N_16
REMARK    6  A    between atoms: C_19  and  C_20
REMARK    7  A    between atoms: C_21  and  C_22
REMARK                            x       y       z     vdW  Elec       q    Type
REMARK                         _______ _______ _______ _____ _____    ______ ____
ROOT
ATOM      1  C   UNL     1       1.420   9.037  19.039  0.00  0.00    +0.000 A 
ATOM      2  C   UNL     1       2.236   9.413  17.959  0.00  0.00    +0.000 A 
ATOM      3  C   UNL     1       3.042   8.478  17.327  0.00  0.00    +0.000 A 
ATOM      4  C   UNL     1       3.117   7.188  17.839  0.00  0.00    +0.000 A 
ATOM      5  C   UNL     1       2.522   6.885  19.079  0.00  0.00    +0.000 A 
ATOM      6  C   UNL     1       1.604   7.775  19.629  0.00  0.00    +0.000 A 
ENDROOT
BRANCH   5   7
ATOM      7  N   UNL     1       3.212   6.001  19.996  0.00  0.00    +0.000 N 
ATOM      8  C   UNL     1       4.390   5.427  19.309  0.00  0.00    +0.000 C 
ATOM      9  C   UNL     1       3.875   4.118  18.788  0.00  0.00    +0.000 A 
ATOM     10  C   UNL     1       4.010   3.515  17.545  0.00  0.00    +0.000 A 
ATOM     11  C   UNL     1       3.142   2.435  17.266  0.00  0.00    +0.000 A 
ATOM     12  C   UNL     1       2.169   1.996  18.187  0.00  0.00    +0.000 A 
ATOM     13  C   UNL     1       2.006   2.650  19.402  0.00  0.00    +0.000 A 
ATOM     14  C   UNL     1       2.847   3.719  19.656  0.00  0.00    +0.000 A 
ATOM     15  C   UNL     1       2.469   4.902  20.480  0.00  0.00    +0.000 C 
ATOM     16  O   UNL     1       1.553   4.899  21.283  0.00  0.00    +0.000 OA
BRANCH  10  17
ATOM     17  C   UNL     1       4.753   4.083  16.401  0.00  0.00    +0.000 C 
ATOM     18  C   UNL     1       6.079   4.210  16.264  0.00  0.00    +0.000 C 
BRANCH  18  19
ATOM     19  C   UNL     1       6.726   4.888  15.090  0.00  0.00    +0.000 C 
ATOM     20  F   UNL     1       6.189   4.477  13.908  0.00  0.00    +0.000 F 
ENDBRANCH  18  19
ENDBRANCH  10  17
ENDBRANCH   5   7
BRANCH   1  21
ATOM     21  C   UNL     1       0.377   9.994  19.566  0.00  0.00    +0.000 C 
ATOM     22  F   UNL     1      -0.762   9.363  19.966  0.00  0.00    +0.000 F 
ATOM     23  F   UNL     1      -0.040  10.862  18.588  0.00  0.00    +0.000 F 
BRANCH  21  24
ATOM     24  C   UNL     1       0.943  10.854  20.708  0.00  0.00    +0.000 C 
BRANCH  24  30
ATOM     25  C   UNL     1      -0.361   9.657  23.317  0.00  0.00    +0.000 C 
ATOM     26  N   UNL     1      -0.656  10.927  22.705  0.00  0.00    +0.000 N 
ATOM     27  C   UNL     1      -1.559  11.830  23.167  0.00  0.00    +0.000 A 
ATOM     28  N   UNL     1      -1.577  12.876  22.372  0.00  0.00    +0.000 NA
ATOM     29  N   UNL     1      -0.656  12.658  21.379  0.00  0.00    +0.000 NA
ATOM     30  C   UNL     1      -0.102  11.476  21.577  0.00  0.00    +0.000 A 
ENDBRANCH  24  30
ENDBRANCH  21  24
ENDBRANCH   1  21
TORSDOF 6
ENDMDL
