MODEL 1
REMARK VINA RESULT:      -9.0      0.000      0.000
REMARK  Name = 
REMARK  10 active torsions:
REMARK  status: ('A' for Active; 'I' for Inactive)
REMARK    1  A    between atoms: C_1  and  C_2
REMARK    2  A    between atoms: C_2  and  C_3
REMARK    3  A    between atoms: C_2  and  N_4
REMARK    4  A    between atoms: N_4  and  C_5
REMARK    5  A    between atoms: C_5  and  C_6
REMARK    6  A    between atoms: C_10  and  C_11
REMARK    7  A    between atoms: N_17  and  C_18
REMARK    8  A    between atoms: C_22  and  C_23
REMARK    9  A    between atoms: C_23  and  C_24
REMARK   10  A    between atoms: N_28  and  C_29
REMARK                            x       y       z     vdW  Elec       q    Type
REMARK                         _______ _______ _______ _____ _____    ______ ____
ROOT
ATOM      1  C   UNL     1       3.908   4.414  17.622  0.00  0.00    +0.000 A 
ATOM      2  C   UNL     1       3.626   5.782  17.637  0.00  0.00    +0.000 A 
ATOM      3  C   UNL     1       2.868   6.270  18.681  0.00  0.00    +0.000 A 
ATOM      4  C   UNL     1       2.366   5.471  19.703  0.00  0.00    +0.000 A 
ATOM      5  C   UNL     1       2.621   4.106  19.711  0.00  0.00    +0.000 A 
ATOM      6  C   UNL     1       3.417   3.593  18.667  0.00  0.00    +0.000 A 
ATOM      7  C   UNL     1       1.580   6.320  20.650  0.00  0.00    +0.000 C 
ATOM      8  N   UNL     1       1.655   7.649  20.053  0.00  0.00    +0.000 N 
ATOM      9  C   UNL     1       2.424   7.644  18.893  0.00  0.00    +0.000 C 
ATOM     10  O   UNL     1       2.743   8.541  18.128  0.00  0.00    +0.000 OA
ENDROOT
BRANCH   8  11
ATOM     11  C   UNL     1       0.979   8.768  20.601  0.00  0.00    +0.000 A 
ATOM     12  C   UNL     1       0.853   8.932  21.985  0.00  0.00    +0.000 A 
ATOM     13  C   UNL     1       0.187  10.031  22.525  0.00  0.00    +0.000 A 
ATOM     14  C   UNL     1      -0.356  11.000  21.691  0.00  0.00    +0.000 A 
ATOM     15  C   UNL     1      -0.233  10.880  20.302  0.00  0.00    +0.000 A 
ATOM     16  C   UNL     1       0.434   9.758  19.771  0.00  0.00    +0.000 A 
BRANCH  15  17
ATOM     17  C   UNL     1      -0.755  11.965  19.384  0.00  0.00    +0.000 C 
BRANCH  17  18
ATOM     18  C   UNL     1      -2.211  11.841  19.097  0.00  0.00    +0.000 A 
ATOM     19  N   UNL     1      -3.193  12.382  19.793  0.00  0.00    +0.000 NA
ATOM     20  N   UNL     1      -4.377  12.095  19.160  0.00  0.00    +0.000 NA
ATOM     21  C   UNL     1      -4.097  11.374  18.100  0.00  0.00    +0.000 A 
ATOM     22  N   UNL     1      -2.755  11.156  18.042  0.00  0.00    +0.000 N 
ATOM     23  C   UNL     1      -2.067  10.363  17.060  0.00  0.00    +0.000 C 
ENDBRANCH  17  18
ENDBRANCH  15  17
ENDBRANCH   8  11
BRANCH   5  24
ATOM     24  C   UNL     1       2.052   3.167  20.743  0.00  0.00    +0.000 C 
ATOM     25  F   UNL     1       2.510   3.398  22.004  0.00  0.00    +0.000 F 
ATOM     26  F   UNL     1       0.697   3.249  20.819  0.00  0.00    +0.000 F 
ATOM     27  F   UNL     1       2.336   1.865  20.472  0.00  0.00    +0.000 F 
ENDBRANCH   5  24
BRANCH   1  28
ATOM     28  C   UNL     1       4.697   3.824  16.477  0.00  0.00    +0.000 C 
BRANCH  28  29
ATOM     29  N   UNL     1       6.114   3.754  16.820  0.00  0.00    +0.000 NA
ATOM     30  H   UNL     1       6.229   3.977  17.807  0.00  0.00    +0.000 HD
BRANCH  29  32
ATOM     31  C   UNL     1       6.202   4.977  14.741  0.00  0.00    +0.000 C 
ATOM     32  C   UNL     1       6.958   4.658  16.034  0.00  0.00    +0.000 C 
ATOM     33  C   UNL     1       7.275   5.955  16.779  0.00  0.00    +0.000 C 
ENDBRANCH  29  32
ENDBRANCH  28  29
ENDBRANCH   1  28
TORSDOF 7
ENDMDL
MODEL 2
REMARK VINA RESULT:      -9.0      0.654      1.310
REMARK  Name = 
REMARK  10 active torsions:
REMARK  status: ('A' for Active; 'I' for Inactive)
REMARK    1  A    between atoms: C_1  and  C_2
REMARK    2  A    between atoms: C_2  and  C_3
REMARK    3  A    between atoms: C_2  and  N_4
REMARK    4  A    between atoms: N_4  and  C_5
REMARK    5  A    between atoms: C_5  and  C_6
REMARK    6  A    between atoms: C_10  and  C_11
REMARK    7  A    between atoms: N_17  and  C_18
REMARK    8  A    between atoms: C_22  and  C_23
REMARK    9  A    between atoms: C_23  and  C_24
REMARK   10  A    between atoms: N_28  and  C_29
REMARK                            x       y       z     vdW  Elec       q    Type
REMARK                         _______ _______ _______ _____ _____    ______ ____
ROOT
ATOM      1  C   UNL     1       3.848   4.810  17.674  0.00  0.00    +0.000 A 
ATOM      2  C   UNL     1       3.527   6.170  17.715  0.00  0.00    +0.000 A 
ATOM      3  C   UNL     1       2.761   6.616  18.772  0.00  0.00    +0.000 A 
ATOM      4  C   UNL     1       2.288   5.784  19.781  0.00  0.00    +0.000 A 
ATOM      5  C   UNL     1       2.582   4.427  19.763  0.00  0.00    +0.000 A 
ATOM      6  C   UNL     1       3.387   3.957  18.705  0.00  0.00    +0.000 A 
ATOM      7  C   UNL     1       1.482   6.592  20.748  0.00  0.00    +0.000 C 
ATOM      8  N   UNL     1       1.516   7.934  20.175  0.00  0.00    +0.000 N 
ATOM      9  C   UNL     1       2.279   7.973  19.012  0.00  0.00    +0.000 C 
ATOM     10  O   UNL     1       2.568   8.893  18.262  0.00  0.00    +0.000 OA
ENDROOT
BRANCH   8  11
ATOM     11  C   UNL     1       0.812   9.023  20.747  0.00  0.00    +0.000 A 
ATOM     12  C   UNL     1       0.606   9.107  22.128  0.00  0.00    +0.000 A 
ATOM     13  C   UNL     1      -0.089  10.176  22.692  0.00  0.00    +0.000 A 
ATOM     14  C   UNL     1      -0.582  11.194  21.885  0.00  0.00    +0.000 A 
ATOM     15  C   UNL     1      -0.380  11.153  20.501  0.00  0.00    +0.000 A 
ATOM     16  C   UNL     1       0.315  10.061  19.946  0.00  0.00    +0.000 A 
BRANCH  15  17
ATOM     17  C   UNL     1      -0.847  12.292  19.619  0.00  0.00    +0.000 C 
BRANCH  17  18
ATOM     18  C   UNL     1      -2.116  11.993  18.899  0.00  0.00    +0.000 A 
ATOM     19  N   UNL     1      -2.223  11.467  17.693  0.00  0.00    +0.000 NA
ATOM     20  N   UNL     1      -3.558  11.281  17.424  0.00  0.00    +0.000 NA
ATOM     21  C   UNL     1      -4.236  11.707  18.462  0.00  0.00    +0.000 A 
ATOM     22  N   UNL     1      -3.376  12.198  19.395  0.00  0.00    +0.000 N 
ATOM     23  C   UNL     1      -3.740  12.807  20.645  0.00  0.00    +0.000 C 
ENDBRANCH  17  18
ENDBRANCH  15  17
ENDBRANCH   8  11
BRANCH   5  24
ATOM     24  C   UNL     1       2.046   3.453  20.780  0.00  0.00    +0.000 C 
ATOM     25  F   UNL     1       2.416   2.163  20.551  0.00  0.00    +0.000 F 
ATOM     26  F   UNL     1       2.470   3.744  22.040  0.00  0.00    +0.000 F 
ATOM     27  F   UNL     1       0.687   3.452  20.831  0.00  0.00    +0.000 F 
ENDBRANCH   5  24
BRANCH   1  28
ATOM     28  C   UNL     1       4.649   4.265  16.514  0.00  0.00    +0.000 C 
BRANCH  28  29
ATOM     29  N   UNL     1       5.890   3.665  16.992  0.00  0.00    +0.000 NA
ATOM     30  H   UNL     1       5.837   3.550  18.002  0.00  0.00    +0.000 HD
BRANCH  29  32
ATOM     31  C   UNL     1       6.792   5.221  15.382  0.00  0.00    +0.000 C 
ATOM     32  C   UNL     1       7.086   4.447  16.670  0.00  0.00    +0.000 C 
ATOM     33  C   UNL     1       7.463   5.423  17.784  0.00  0.00    +0.000 C 
ENDBRANCH  29  32
ENDBRANCH  28  29
ENDBRANCH   1  28
TORSDOF 7
ENDMDL
MODEL 3
REMARK VINA RESULT:      -8.7      0.803      1.549
REMARK  Name = 
REMARK  10 active torsions:
REMARK  status: ('A' for Active; 'I' for Inactive)
REMARK    1  A    between atoms: C_1  and  C_2
REMARK    2  A    between atoms: C_2  and  C_3
REMARK    3  A    between atoms: C_2  and  N_4
REMARK    4  A    between atoms: N_4  and  C_5
REMARK    5  A    between atoms: C_5  and  C_6
REMARK    6  A    between atoms: C_10  and  C_11
REMARK    7  A    between atoms: N_17  and  C_18
REMARK    8  A    between atoms: C_22  and  C_23
REMARK    9  A    between atoms: C_23  and  C_24
REMARK   10  A    between atoms: N_28  and  C_29
REMARK                            x       y       z     vdW  Elec       q    Type
REMARK                         _______ _______ _______ _____ _____    ______ ____
ROOT
ATOM      1  C   UNL     1       3.569   4.575  17.748  0.00  0.00    +0.000 A 
ATOM      2  C   UNL     1       3.253   5.936  17.773  0.00  0.00    +0.000 A 
ATOM      3  C   UNL     1       2.563   6.415  18.868  0.00  0.00    +0.000 A 
ATOM      4  C   UNL     1       2.161   5.614  19.931  0.00  0.00    +0.000 A 
ATOM      5  C   UNL     1       2.450   4.255  19.931  0.00  0.00    +0.000 A 
ATOM      6  C   UNL     1       3.179   3.753  18.833  0.00  0.00    +0.000 A 
ATOM      7  C   UNL     1       1.425   6.452  20.927  0.00  0.00    +0.000 C 
ATOM      8  N   UNL     1       1.421   7.777  20.316  0.00  0.00    +0.000 N 
ATOM      9  C   UNL     1       2.101   7.779  19.101  0.00  0.00    +0.000 C 
ATOM     10  O   UNL     1       2.339   8.677  18.307  0.00  0.00    +0.000 OA
ENDROOT
BRANCH   8  11
ATOM     11  C   UNL     1       0.760   8.884  20.903  0.00  0.00    +0.000 A 
ATOM     12  C   UNL     1       0.583   8.970  22.289  0.00  0.00    +0.000 A 
ATOM     13  C   UNL     1      -0.070  10.057  22.869  0.00  0.00    +0.000 A 
ATOM     14  C   UNL     1      -0.548  11.091  22.074  0.00  0.00    +0.000 A 
ATOM     15  C   UNL     1      -0.373  11.049  20.686  0.00  0.00    +0.000 A 
ATOM     16  C   UNL     1       0.279   9.939  20.115  0.00  0.00    +0.000 A 
BRANCH  15  17
ATOM     17  C   UNL     1      -0.823  12.204  19.816  0.00  0.00    +0.000 C 
BRANCH  17  18
ATOM     18  C   UNL     1      -2.255  12.115  19.418  0.00  0.00    +0.000 A 
ATOM     19  N   UNL     1      -2.740  11.439  18.393  0.00  0.00    +0.000 NA
ATOM     20  N   UNL     1      -4.109  11.549  18.416  0.00  0.00    +0.000 NA
ATOM     21  C   UNL     1      -4.431  12.299  19.444  0.00  0.00    +0.000 A 
ATOM     22  N   UNL     1      -3.299  12.708  20.079  0.00  0.00    +0.000 N 
ATOM     23  C   UNL     1      -3.235  13.588  21.213  0.00  0.00    +0.000 C 
ENDBRANCH  17  18
ENDBRANCH  15  17
ENDBRANCH   8  11
BRANCH   5  24
ATOM     24  C   UNL     1       1.985   3.313  21.010  0.00  0.00    +0.000 C 
ATOM     25  F   UNL     1       0.631   3.209  21.099  0.00  0.00    +0.000 F 
ATOM     26  F   UNL     1       2.444   2.047  20.817  0.00  0.00    +0.000 F 
ATOM     27  F   UNL     1       2.417   3.685  22.245  0.00  0.00    +0.000 F 
ENDBRANCH   5  24
BRANCH   1  28
ATOM     28  C   UNL     1       4.285   3.994  16.551  0.00  0.00    +0.000 C 
BRANCH  28  29
ATOM     29  N   UNL     1       5.666   3.669  16.895  0.00  0.00    +0.000 NA
ATOM     30  H   UNL     1       5.712   3.408  17.878  0.00  0.00    +0.000 HD
BRANCH  29  32
ATOM     31  C   UNL     1       7.773   4.587  17.633  0.00  0.00    +0.000 C 
ATOM     32  C   UNL     1       6.608   4.765  16.655  0.00  0.00    +0.000 C 
ATOM     33  C   UNL     1       7.135   4.777  15.221  0.00  0.00    +0.000 C 
ENDBRANCH  29  32
ENDBRANCH  28  29
ENDBRANCH   1  28
TORSDOF 7
ENDMDL
MODEL 4
REMARK VINA RESULT:      -8.7      1.188      1.562
REMARK  Name = 
REMARK  10 active torsions:
REMARK  status: ('A' for Active; 'I' for Inactive)
REMARK    1  A    between atoms: C_1  and  C_2
REMARK    2  A    between atoms: C_2  and  C_3
REMARK    3  A    between atoms: C_2  and  N_4
REMARK    4  A    between atoms: N_4  and  C_5
REMARK    5  A    between atoms: C_5  and  C_6
REMARK    6  A    between atoms: C_10  and  C_11
REMARK    7  A    between atoms: N_17  and  C_18
REMARK    8  A    between atoms: C_22  and  C_23
REMARK    9  A    between atoms: C_23  and  C_24
REMARK   10  A    between atoms: N_28  and  C_29
REMARK                            x       y       z     vdW  Elec       q    Type
REMARK                         _______ _______ _______ _____ _____    ______ ____
ROOT
ATOM      1  C   UNL     1       3.916   5.883  17.667  0.00  0.00    +0.000 A 
ATOM      2  C   UNL     1       3.435   7.190  17.781  0.00  0.00    +0.000 A 
ATOM      3  C   UNL     1       2.608   7.479  18.846  0.00  0.00    +0.000 A 
ATOM      4  C   UNL     1       2.224   6.539  19.796  0.00  0.00    +0.000 A 
ATOM      5  C   UNL     1       2.676   5.229  19.705  0.00  0.00    +0.000 A 
ATOM      6  C   UNL     1       3.546   4.921  18.638  0.00  0.00    +0.000 A 
ATOM      7  C   UNL     1       1.315   7.187  20.790  0.00  0.00    +0.000 C 
ATOM      8  N   UNL     1       1.197   8.555  20.298  0.00  0.00    +0.000 N 
ATOM      9  C   UNL     1       1.965   8.753  19.154  0.00  0.00    +0.000 C 
ATOM     10  O   UNL     1       2.153   9.744  18.465  0.00  0.00    +0.000 OA
ENDROOT
BRANCH   8  11
ATOM     11  C   UNL     1       0.360   9.517  20.917  0.00  0.00    +0.000 A 
ATOM     12  C   UNL     1       0.154   9.514  22.300  0.00  0.00    +0.000 A 
ATOM     13  C   UNL     1      -0.671  10.458  22.911  0.00  0.00    +0.000 A 
ATOM     14  C   UNL     1      -1.296  11.438  22.150  0.00  0.00    +0.000 A 
ATOM     15  C   UNL     1      -1.098  11.484  20.766  0.00  0.00    +0.000 A 
ATOM     16  C   UNL     1      -0.271  10.517  20.162  0.00  0.00    +0.000 A 
BRANCH  15  17
ATOM     17  C   UNL     1      -1.714  12.590  19.934  0.00  0.00    +0.000 C 
BRANCH  17  18
ATOM     18  C   UNL     1      -3.140  12.339  19.588  0.00  0.00    +0.000 A 
ATOM     19  N   UNL     1      -4.190  12.685  20.308  0.00  0.00    +0.000 NA
ATOM     20  N   UNL     1      -5.322  12.342  19.608  0.00  0.00    +0.000 NA
ATOM     21  C   UNL     1      -4.940  11.783  18.484  0.00  0.00    +0.000 A 
ATOM     22  N   UNL     1      -3.581  11.724  18.445  0.00  0.00    +0.000 N 
ATOM     23  C   UNL     1      -2.788  11.131  17.404  0.00  0.00    +0.000 C 
ENDBRANCH  17  18
ENDBRANCH  15  17
ENDBRANCH   8  11
BRANCH   5  24
ATOM     24  C   UNL     1       2.247   4.140  20.652  0.00  0.00    +0.000 C 
ATOM     25  F   UNL     1       2.864   2.946  20.431  0.00  0.00    +0.000 F 
ATOM     26  F   UNL     1       2.506   4.458  21.949  0.00  0.00    +0.000 F 
ATOM     27  F   UNL     1       0.911   3.891  20.586  0.00  0.00    +0.000 F 
ENDBRANCH   5  24
BRANCH   1  28
ATOM     28  C   UNL     1       4.791   5.506  16.494  0.00  0.00    +0.000 C 
BRANCH  28  29
ATOM     29  N   UNL     1       5.809   6.528  16.272  0.00  0.00    +0.000 NA
ATOM     30  H   UNL     1       5.827   6.771  15.284  0.00  0.00    +0.000 HD
BRANCH  29  32
ATOM     31  C   UNL     1       7.511   6.911  17.940  0.00  0.00    +0.000 C 
ATOM     32  C   UNL     1       7.155   6.118  16.680  0.00  0.00    +0.000 C 
ATOM     33  C   UNL     1       7.246   4.620  16.970  0.00  0.00    +0.000 C 
ENDBRANCH  29  32
ENDBRANCH  28  29
ENDBRANCH   1  28
TORSDOF 7
ENDMDL
MODEL 5
REMARK VINA RESULT:      -8.6      1.708      2.542
REMARK  Name = 
REMARK  10 active torsions:
REMARK  status: ('A' for Active; 'I' for Inactive)
REMARK    1  A    between atoms: C_1  and  C_2
REMARK    2  A    between atoms: C_2  and  C_3
REMARK    3  A    between atoms: C_2  and  N_4
REMARK    4  A    between atoms: N_4  and  C_5
REMARK    5  A    between atoms: C_5  and  C_6
REMARK    6  A    between atoms: C_10  and  C_11
REMARK    7  A    between atoms: N_17  and  C_18
REMARK    8  A    between atoms: C_22  and  C_23
REMARK    9  A    between atoms: C_23  and  C_24
REMARK   10  A    between atoms: N_28  and  C_29
REMARK                            x       y       z     vdW  Elec       q    Type
REMARK                         _______ _______ _______ _____ _____    ______ ____
ROOT
ATOM      1  C   UNL     1       5.513   4.574  15.854  0.00  0.00    +0.000 A 
ATOM      2  C   UNL     1       5.149   5.880  16.194  0.00  0.00    +0.000 A 
ATOM      3  C   UNL     1       4.207   6.045  17.188  0.00  0.00    +0.000 A 
ATOM      4  C   UNL     1       3.600   4.985  17.853  0.00  0.00    +0.000 A 
ATOM      5  C   UNL     1       3.932   3.676  17.530  0.00  0.00    +0.000 A 
ATOM      6  C   UNL     1       4.914   3.488  16.536  0.00  0.00    +0.000 A 
ATOM      7  C   UNL     1       2.622   5.524  18.848  0.00  0.00    +0.000 C 
ATOM      8  N   UNL     1       2.710   6.968  18.659  0.00  0.00    +0.000 N 
ATOM      9  C   UNL     1       3.652   7.299  17.689  0.00  0.00    +0.000 C 
ATOM     10  O   UNL     1       4.033   8.379  17.264  0.00  0.00    +0.000 OA
ENDROOT
BRANCH   8  11
ATOM     11  C   UNL     1       1.889   7.879  19.369  0.00  0.00    +0.000 A 
ATOM     12  C   UNL     1       1.552   7.658  20.709  0.00  0.00    +0.000 A 
ATOM     13  C   UNL     1       0.743   8.552  21.409  0.00  0.00    +0.000 A 
ATOM     14  C   UNL     1       0.264   9.698  20.786  0.00  0.00    +0.000 A 
ATOM     15  C   UNL     1       0.595   9.962  19.452  0.00  0.00    +0.000 A 
ATOM     16  C   UNL     1       1.405   9.043  18.755  0.00  0.00    +0.000 A 
BRANCH  15  17
ATOM     17  C   UNL     1       0.141  11.242  18.783  0.00  0.00    +0.000 C 
BRANCH  17  18
ATOM     18  C   UNL     1      -1.333  11.446  18.846  0.00  0.00    +0.000 A 
ATOM     19  N   UNL     1      -1.979  12.205  19.712  0.00  0.00    +0.000 NA
ATOM     20  N   UNL     1      -3.314  12.185  19.387  0.00  0.00    +0.000 NA
ATOM     21  C   UNL     1      -3.457  11.405  18.342  0.00  0.00    +0.000 A 
ATOM     22  N   UNL     1      -2.248  10.890  17.991  0.00  0.00    +0.000 N 
ATOM     23  C   UNL     1      -2.002   9.949  16.933  0.00  0.00    +0.000 C 
ENDBRANCH  17  18
ENDBRANCH  15  17
ENDBRANCH   8  11
BRANCH   5  24
ATOM     24  C   UNL     1       3.266   2.478  18.155  0.00  0.00    +0.000 C 
ATOM     25  F   UNL     1       1.926   2.415  17.925  0.00  0.00    +0.000 F 
ATOM     26  F   UNL     1       3.779   1.307  17.690  0.00  0.00    +0.000 F 
ATOM     27  F   UNL     1       3.419   2.445  19.506  0.00  0.00    +0.000 F 
ENDBRANCH   5  24
BRANCH   1  28
ATOM     28  C   UNL     1       6.508   4.341  14.741  0.00  0.00    +0.000 C 
BRANCH  28  29
ATOM     29  N   UNL     1       6.037   3.283  13.853  0.00  0.00    +0.000 NA
ATOM     30  H   UNL     1       6.673   2.490  13.913  0.00  0.00    +0.000 HD
BRANCH  29  32
ATOM     31  C   UNL     1       7.117   3.084  11.704  0.00  0.00    +0.000 C 
ATOM     32  C   UNL     1       5.928   3.693  12.451  0.00  0.00    +0.000 C 
ATOM     33  C   UNL     1       4.622   3.229  11.807  0.00  0.00    +0.000 C 
ENDBRANCH  29  32
ENDBRANCH  28  29
ENDBRANCH   1  28
TORSDOF 7
ENDMDL
MODEL 6
REMARK VINA RESULT:      -8.6      1.904      2.613
REMARK  Name = 
REMARK  10 active torsions:
REMARK  status: ('A' for Active; 'I' for Inactive)
REMARK    1  A    between atoms: C_1  and  C_2
REMARK    2  A    between atoms: C_2  and  C_3
REMARK    3  A    between atoms: C_2  and  N_4
REMARK    4  A    between atoms: N_4  and  C_5
REMARK    5  A    between atoms: C_5  and  C_6
REMARK    6  A    between atoms: C_10  and  C_11
REMARK    7  A    between atoms: N_17  and  C_18
REMARK    8  A    between atoms: C_22  and  C_23
REMARK    9  A    between atoms: C_23  and  C_24
REMARK   10  A    between atoms: N_28  and  C_29
REMARK                            x       y       z     vdW  Elec       q    Type
REMARK                         _______ _______ _______ _____ _____    ______ ____
ROOT
ATOM      1  C   UNL     1       3.905   4.512  17.756  0.00  0.00    +0.000 A 
ATOM      2  C   UNL     1       3.613   5.877  17.682  0.00  0.00    +0.000 A 
ATOM      3  C   UNL     1       2.850   6.426  18.692  0.00  0.00    +0.000 A 
ATOM      4  C   UNL     1       2.354   5.691  19.764  0.00  0.00    +0.000 A 
ATOM      5  C   UNL     1       2.619   4.331  19.861  0.00  0.00    +0.000 A 
ATOM      6  C   UNL     1       3.420   3.758  18.852  0.00  0.00    +0.000 A 
ATOM      7  C   UNL     1       1.561   6.593  20.653  0.00  0.00    +0.000 C 
ATOM      8  N   UNL     1       1.626   7.881  19.971  0.00  0.00    +0.000 N 
ATOM      9  C   UNL     1       2.396   7.807  18.814  0.00  0.00    +0.000 C 
ATOM     10  O   UNL     1       2.709   8.655  17.992  0.00  0.00    +0.000 OA
ENDROOT
BRANCH   8  11
ATOM     11  C   UNL     1       0.942   9.029  20.445  0.00  0.00    +0.000 A 
ATOM     12  C   UNL     1       0.642   9.184  21.803  0.00  0.00    +0.000 A 
ATOM     13  C   UNL     1      -0.033  10.311  22.270  0.00  0.00    +0.000 A 
ATOM     14  C   UNL     1      -0.412  11.316  21.389  0.00  0.00    +0.000 A 
ATOM     15  C   UNL     1      -0.113  11.204  20.026  0.00  0.00    +0.000 A 
ATOM     16  C   UNL     1       0.561  10.055  19.568  0.00  0.00    +0.000 A 
BRANCH  15  17
ATOM     17  C   UNL     1      -0.453  12.325  19.066  0.00  0.00    +0.000 C 
BRANCH  17  18
ATOM     18  C   UNL     1       0.634  13.334  18.934  0.00  0.00    +0.000 A 
ATOM     19  N   UNL     1       1.718  13.220  18.190  0.00  0.00    +0.000 NA
ATOM     20  N   UNL     1       2.427  14.393  18.284  0.00  0.00    +0.000 NA
ATOM     21  C   UNL     1       1.771  15.192  19.092  0.00  0.00    +0.000 A 
ATOM     22  N   UNL     1       0.660  14.556  19.554  0.00  0.00    +0.000 N 
ATOM     23  C   UNL     1      -0.282  15.080  20.504  0.00  0.00    +0.000 C 
ENDBRANCH  17  18
ENDBRANCH  15  17
ENDBRANCH   8  11
BRANCH   5  24
ATOM     24  C   UNL     1       2.057   3.457  20.951  0.00  0.00    +0.000 C 
ATOM     25  F   UNL     1       2.454   2.157  20.871  0.00  0.00    +0.000 F 
ATOM     26  F   UNL     1       2.426   3.882  22.190  0.00  0.00    +0.000 F 
ATOM     27  F   UNL     1       0.697   3.436  20.951  0.00  0.00    +0.000 F 
ENDBRANCH   5  24
BRANCH   1  28
ATOM     28  C   UNL     1       4.700   3.855  16.651  0.00  0.00    +0.000 C 
BRANCH  28  29
ATOM     29  N   UNL     1       6.122   3.853  16.982  0.00  0.00    +0.000 NA
ATOM     30  H   UNL     1       6.235   4.083  17.968  0.00  0.00    +0.000 HD
BRANCH  29  32
ATOM     31  C   UNL     1       6.125   5.087  14.908  0.00  0.00    +0.000 C 
ATOM     32  C   UNL     1       6.915   4.792  16.186  0.00  0.00    +0.000 C 
ATOM     33  C   UNL     1       7.195   6.097  16.932  0.00  0.00    +0.000 C 
ENDBRANCH  29  32
ENDBRANCH  28  29
ENDBRANCH   1  28
TORSDOF 7
ENDMDL
MODEL 7
REMARK VINA RESULT:      -8.5      2.397      3.119
REMARK  Name = 
REMARK  10 active torsions:
REMARK  status: ('A' for Active; 'I' for Inactive)
REMARK    1  A    between atoms: C_1  and  C_2
REMARK    2  A    between atoms: C_2  and  C_3
REMARK    3  A    between atoms: C_2  and  N_4
REMARK    4  A    between atoms: N_4  and  C_5
REMARK    5  A    between atoms: C_5  and  C_6
REMARK    6  A    between atoms: C_10  and  C_11
REMARK    7  A    between atoms: N_17  and  C_18
REMARK    8  A    between atoms: C_22  and  C_23
REMARK    9  A    between atoms: C_23  and  C_24
REMARK   10  A    between atoms: N_28  and  C_29
REMARK                            x       y       z     vdW  Elec       q    Type
REMARK                         _______ _______ _______ _____ _____    ______ ____
ROOT
ATOM      1  C   UNL     1       3.819   5.279  17.669  0.00  0.00    +0.000 A 
ATOM      2  C   UNL     1       3.456   6.623  17.793  0.00  0.00    +0.000 A 
ATOM      3  C   UNL     1       2.687   6.982  18.881  0.00  0.00    +0.000 A 
ATOM      4  C   UNL     1       2.252   6.078  19.844  0.00  0.00    +0.000 A 
ATOM      5  C   UNL     1       2.587   4.734  19.743  0.00  0.00    +0.000 A 
ATOM      6  C   UNL     1       3.396   4.353  18.653  0.00  0.00    +0.000 A 
ATOM      7  C   UNL     1       1.431   6.802  20.863  0.00  0.00    +0.000 C 
ATOM      8  N   UNL     1       1.417   8.175  20.370  0.00  0.00    +0.000 N 
ATOM      9  C   UNL     1       2.165   8.306  19.204  0.00  0.00    +0.000 C 
ATOM     10  O   UNL     1       2.417   9.277  18.507  0.00  0.00    +0.000 OA
ENDROOT
BRANCH   8  11
ATOM     11  C   UNL     1       0.684   9.206  21.011  0.00  0.00    +0.000 A 
ATOM     12  C   UNL     1      -0.011   8.967  22.201  0.00  0.00    +0.000 A 
ATOM     13  C   UNL     1      -0.735   9.978  22.832  0.00  0.00    +0.000 A 
ATOM     14  C   UNL     1      -0.765  11.258  22.292  0.00  0.00    +0.000 A 
ATOM     15  C   UNL     1      -0.066  11.539  21.113  0.00  0.00    +0.000 A 
ATOM     16  C   UNL     1       0.651  10.504  20.482  0.00  0.00    +0.000 A 
BRANCH  15  17
ATOM     17  C   UNL     1      -0.031  12.946  20.553  0.00  0.00    +0.000 C 
BRANCH  17  18
ATOM     18  C   UNL     1       1.107  13.755  21.073  0.00  0.00    +0.000 A 
ATOM     19  N   UNL     1       1.138  14.412  22.216  0.00  0.00    +0.000 NA
ATOM     20  N   UNL     1       2.388  14.964  22.360  0.00  0.00    +0.000 NA
ATOM     21  C   UNL     1       3.088  14.644  21.298  0.00  0.00    +0.000 A 
ATOM     22  N   UNL     1       2.314  13.920  20.445  0.00  0.00    +0.000 N 
ATOM     23  C   UNL     1       2.705  13.434  19.150  0.00  0.00    +0.000 C 
ENDBRANCH  17  18
ENDBRANCH  15  17
ENDBRANCH   8  11
BRANCH   5  24
ATOM     24  C   UNL     1       2.094   3.686  20.706  0.00  0.00    +0.000 C 
ATOM     25  F   UNL     1       0.738   3.564  20.734  0.00  0.00    +0.000 F 
ATOM     26  F   UNL     1       2.572   2.449  20.406  0.00  0.00    +0.000 F 
ATOM     27  F   UNL     1       2.476   3.937  21.987  0.00  0.00    +0.000 F 
ENDBRANCH   5  24
BRANCH   1  28
ATOM     28  C   UNL     1       4.623   4.829  16.472  0.00  0.00    +0.000 C 
BRANCH  28  29
ATOM     29  N   UNL     1       5.457   5.922  15.981  0.00  0.00    +0.000 NA
ATOM     30  H   UNL     1       5.402   5.952  14.965  0.00  0.00    +0.000 HD
BRANCH  29  32
ATOM     31  C   UNL     1       7.166   6.982  17.316  0.00  0.00    +0.000 C 
ATOM     32  C   UNL     1       6.864   5.814  16.373  0.00  0.00    +0.000 C 
ATOM     33  C   UNL     1       7.174   4.491  17.074  0.00  0.00    +0.000 C 
ENDBRANCH  29  32
ENDBRANCH  28  29
ENDBRANCH   1  28
TORSDOF 7
ENDMDL
MODEL 8
REMARK VINA RESULT:      -8.5      2.207      3.186
REMARK  Name = 
REMARK  10 active torsions:
REMARK  status: ('A' for Active; 'I' for Inactive)
REMARK    1  A    between atoms: C_1  and  C_2
REMARK    2  A    between atoms: C_2  and  C_3
REMARK    3  A    between atoms: C_2  and  N_4
REMARK    4  A    between atoms: N_4  and  C_5
REMARK    5  A    between atoms: C_5  and  C_6
REMARK    6  A    between atoms: C_10  and  C_11
REMARK    7  A    between atoms: N_17  and  C_18
REMARK    8  A    between atoms: C_22  and  C_23
REMARK    9  A    between atoms: C_23  and  C_24
REMARK   10  A    between atoms: N_28  and  C_29
REMARK                            x       y       z     vdW  Elec       q    Type
REMARK                         _______ _______ _______ _____ _____    ______ ____
ROOT
ATOM      1  C   UNL     1       4.234   6.098  17.658  0.00  0.00    +0.000 A 
ATOM      2  C   UNL     1       3.709   7.376  17.454  0.00  0.00    +0.000 A 
ATOM      3  C   UNL     1       2.720   7.809  18.314  0.00  0.00    +0.000 A 
ATOM      4  C   UNL     1       2.219   7.036  19.356  0.00  0.00    +0.000 A 
ATOM      5  C   UNL     1       2.714   5.757  19.578  0.00  0.00    +0.000 A 
ATOM      6  C   UNL     1       3.744   5.309  18.726  0.00  0.00    +0.000 A 
ATOM      7  C   UNL     1       1.153   7.804  20.069  0.00  0.00    +0.000 C 
ATOM      8  N   UNL     1       1.077   9.052  19.317  0.00  0.00    +0.000 N 
ATOM      9  C   UNL     1       2.006   9.081  18.281  0.00  0.00    +0.000 C 
ATOM     10  O   UNL     1       2.272   9.939  17.454  0.00  0.00    +0.000 OA
ENDROOT
BRANCH   8  11
ATOM     11  C   UNL     1       0.131  10.064  19.617  0.00  0.00    +0.000 A 
ATOM     12  C   UNL     1      -0.890  10.391  18.717  0.00  0.00    +0.000 A 
ATOM     13  C   UNL     1      -1.820  11.387  19.008  0.00  0.00    +0.000 A 
ATOM     14  C   UNL     1      -1.758  12.071  20.216  0.00  0.00    +0.000 A 
ATOM     15  C   UNL     1      -0.762  11.759  21.149  0.00  0.00    +0.000 A 
ATOM     16  C   UNL     1       0.176  10.757  20.835  0.00  0.00    +0.000 A 
BRANCH  15  17
ATOM     17  C   UNL     1      -0.728  12.444  22.500  0.00  0.00    +0.000 C 
BRANCH  17  18
ATOM     18  C   UNL     1      -2.074  12.585  23.120  0.00  0.00    +0.000 A 
ATOM     19  N   UNL     1      -2.864  11.599  23.502  0.00  0.00    +0.000 NA
ATOM     20  N   UNL     1      -3.977  12.146  24.094  0.00  0.00    +0.000 NA
ATOM     21  C   UNL     1      -3.850  13.451  24.050  0.00  0.00    +0.000 A 
ATOM     22  N   UNL     1      -2.691  13.772  23.413  0.00  0.00    +0.000 N 
ATOM     23  C   UNL     1      -2.227  15.100  23.118  0.00  0.00    +0.000 C 
ENDBRANCH  17  18
ENDBRANCH  15  17
ENDBRANCH   8  11
BRANCH   5  24
ATOM     24  C   UNL     1       2.172   4.836  20.640  0.00  0.00    +0.000 C 
ATOM     25  F   UNL     1       2.401   5.270  21.910  0.00  0.00    +0.000 F 
ATOM     26  F   UNL     1       0.825   4.675  20.539  0.00  0.00    +0.000 F 
ATOM     27  F   UNL     1       2.706   3.588  20.565  0.00  0.00    +0.000 F 
ENDBRANCH   5  24
BRANCH   1  28
ATOM     28  C   UNL     1       5.287   5.562  16.715  0.00  0.00    +0.000 C 
BRANCH  28  29
ATOM     29  N   UNL     1       6.212   6.625  16.332  0.00  0.00    +0.000 NA
ATOM     30  H   UNL     1       6.406   6.553  15.335  0.00  0.00    +0.000 HD
BRANCH  29  32
ATOM     31  C   UNL     1       7.699   7.990  17.654  0.00  0.00    +0.000 C 
ATOM     32  C   UNL     1       7.481   6.595  17.061  0.00  0.00    +0.000 C 
ATOM     33  C   UNL     1       7.487   5.553  18.180  0.00  0.00    +0.000 C 
ENDBRANCH  29  32
ENDBRANCH  28  29
ENDBRANCH   1  28
TORSDOF 7
ENDMDL
MODEL 9
REMARK VINA RESULT:      -8.5      1.166      1.517
REMARK  Name = 
REMARK  10 active torsions:
REMARK  status: ('A' for Active; 'I' for Inactive)
REMARK    1  A    between atoms: C_1  and  C_2
REMARK    2  A    between atoms: C_2  and  C_3
REMARK    3  A    between atoms: C_2  and  N_4
REMARK    4  A    between atoms: N_4  and  C_5
REMARK    5  A    between atoms: C_5  and  C_6
REMARK    6  A    between atoms: C_10  and  C_11
REMARK    7  A    between atoms: N_17  and  C_18
REMARK    8  A    between atoms: C_22  and  C_23
REMARK    9  A    between atoms: C_23  and  C_24
REMARK   10  A    between atoms: N_28  and  C_29
REMARK                            x       y       z     vdW  Elec       q    Type
REMARK                         _______ _______ _______ _____ _____    ______ ____
ROOT
ATOM      1  C   UNL     1       3.706   6.001  17.700  0.00  0.00    +0.000 A 
ATOM      2  C   UNL     1       3.227   7.305  17.857  0.00  0.00    +0.000 A 
ATOM      3  C   UNL     1       2.428   7.567  18.951  0.00  0.00    +0.000 A 
ATOM      4  C   UNL     1       2.072   6.604  19.889  0.00  0.00    +0.000 A 
ATOM      5  C   UNL     1       2.525   5.298  19.755  0.00  0.00    +0.000 A 
ATOM      6  C   UNL     1       3.365   5.017  18.659  0.00  0.00    +0.000 A 
ATOM      7  C   UNL     1       1.190   7.227  20.923  0.00  0.00    +0.000 C 
ATOM      8  N   UNL     1       1.056   8.606  20.465  0.00  0.00    +0.000 N 
ATOM      9  C   UNL     1       1.792   8.832  19.305  0.00  0.00    +0.000 C 
ATOM     10  O   UNL     1       1.959   9.838  18.634  0.00  0.00    +0.000 OA
ENDROOT
BRANCH   8  11
ATOM     11  C   UNL     1       0.235   9.552  21.128  0.00  0.00    +0.000 A 
ATOM     12  C   UNL     1       0.035   9.492  22.512  0.00  0.00    +0.000 A 
ATOM     13  C   UNL     1      -0.775  10.420  23.167  0.00  0.00    +0.000 A 
ATOM     14  C   UNL     1      -1.391  11.439  22.451  0.00  0.00    +0.000 A 
ATOM     15  C   UNL     1      -1.199  11.542  21.069  0.00  0.00    +0.000 A 
ATOM     16  C   UNL     1      -0.387  10.590  20.420  0.00  0.00    +0.000 A 
BRANCH  15  17
ATOM     17  C   UNL     1      -1.804  12.690  20.288  0.00  0.00    +0.000 C 
BRANCH  17  18
ATOM     18  C   UNL     1      -3.260  12.518  20.028  0.00  0.00    +0.000 A 
ATOM     19  N   UNL     1      -4.245  12.921  20.808  0.00  0.00    +0.000 NA
ATOM     20  N   UNL     1      -5.434  12.643  20.177  0.00  0.00    +0.000 NA
ATOM     21  C   UNL     1      -5.151  12.065  19.034  0.00  0.00    +0.000 A 
ATOM     22  N   UNL     1      -3.802  11.931  18.915  0.00  0.00    +0.000 N 
ATOM     23  C   UNL     1      -3.107  11.295  17.830  0.00  0.00    +0.000 C 
ENDBRANCH  17  18
ENDBRANCH  15  17
ENDBRANCH   8  11
BRANCH   5  24
ATOM     24  C   UNL     1       2.123   4.186  20.689  0.00  0.00    +0.000 C 
ATOM     25  F   UNL     1       2.676   2.982  20.377  0.00  0.00    +0.000 F 
ATOM     26  F   UNL     1       2.488   4.441  21.975  0.00  0.00    +0.000 F 
ATOM     27  F   UNL     1       0.778   3.989  20.712  0.00  0.00    +0.000 F 
ENDBRANCH   5  24
BRANCH   1  28
ATOM     28  C   UNL     1       4.549   5.654  16.495  0.00  0.00    +0.000 C 
BRANCH  28  29
ATOM     29  N   UNL     1       4.694   4.206  16.378  0.00  0.00    +0.000 NA
ATOM     30  H   UNL     1       4.605   3.787  17.301  0.00  0.00    +0.000 HD
BRANCH  29  32
ATOM     31  C   UNL     1       5.908   4.100  14.295  0.00  0.00    +0.000 C 
ATOM     32  C   UNL     1       5.969   3.786  15.792  0.00  0.00    +0.000 C 
ATOM     33  C   UNL     1       7.164   4.502  16.421  0.00  0.00    +0.000 C 
ENDBRANCH  29  32
ENDBRANCH  28  29
ENDBRANCH   1  28
TORSDOF 7
ENDMDL
