MODEL 1
REMARK VINA RESULT:      -7.7      0.000      0.000
REMARK  Name = 
REMARK  3 active torsions:
REMARK  status: ('A' for Active; 'I' for Inactive)
REMARK    1  A    between atoms: C_1  and  C_2
REMARK    2  A    between atoms: C_12  and  C_13
REMARK    3  A    between atoms: C_15  and  C_16
REMARK                            x       y       z     vdW  Elec       q    Type
REMARK                         _______ _______ _______ _____ _____    ______ ____
ROOT
ATOM      1  C   UNL     1       4.111  16.781  19.140  0.00  0.00    +0.000 C 
ATOM      2  C   UNL     1       3.386  15.602  19.638  0.00  0.00    +0.000 A 
ATOM      3  C   UNL     1       3.122  14.344  19.153  0.00  0.00    +0.000 A 
ATOM      4  C   UNL     1       2.325  13.734  20.155  0.00  0.00    +0.000 A 
ATOM      5  N   UNL     1       1.791  12.454  20.066  0.00  0.00    +0.000 N 
ATOM      6  C   UNL     1       0.766  12.030  20.875  0.00  0.00    +0.000 C 
ATOM      7  O   UNL     1       0.195  12.737  21.703  0.00  0.00    +0.000 OA
ATOM      8  N   UNL     1       0.342  10.721  20.668  0.00  0.00    +0.000 N 
ATOM      9  C   UNL     1      -0.873  10.289  21.358  0.00  0.00    +0.000 C 
ATOM     10  C   UNL     1      -0.522   9.305  22.464  0.00  0.00    +0.000 C 
ATOM     11  C   UNL     1       0.208   8.102  21.877  0.00  0.00    +0.000 C 
ATOM     12  C   UNL     1       1.444   8.522  21.060  0.00  0.00    +0.000 C 
ATOM     13  C   UNL     1       1.110   9.637  20.046  0.00  0.00    +0.000 C 
ATOM     14  N   UNL     1       2.169  14.565  21.188  0.00  0.00    +0.000 NA
ATOM     15  O   UNL     1       2.816  15.733  20.860  0.00  0.00    +0.000 OA
ATOM     16  H   UNL     1       1.970  11.959  19.212  0.00  0.00    +0.000 HD
ENDROOT
BRANCH  12  17
ATOM     17  C   UNL     1       1.985   7.334  20.349  0.00  0.00    +0.000 A 
ATOM     18  N   UNL     1       2.842   7.286  19.359  0.00  0.00    +0.000 NA
ATOM     19  C   UNL     1       2.847   5.949  19.028  0.00  0.00    +0.000 A 
ATOM     20  N   UNL     1       2.050   5.196  19.804  0.00  0.00    +0.000 NA
ATOM     21  O   UNL     1       1.472   6.116  20.680  0.00  0.00    +0.000 OA
BRANCH  19  22
ATOM     22  C   UNL     1       3.636   5.446  17.910  0.00  0.00    +0.000 A 
ATOM     23  C   UNL     1       4.403   6.337  17.140  0.00  0.00    +0.000 A 
ATOM     24  C   UNL     1       5.150   5.881  16.052  0.00  0.00    +0.000 A 
ATOM     25  C   UNL     1       5.134   4.528  15.723  0.00  0.00    +0.000 A 
ATOM     26 CL   UNL     1       6.045   3.966  14.377  0.00  0.00    +0.000 Cl
ATOM     27  C   UNL     1       4.380   3.628  16.476  0.00  0.00    +0.000 A 
ATOM     28  C   UNL     1       3.635   4.086  17.568  0.00  0.00    +0.000 A 
ENDBRANCH  19  22
ENDBRANCH  12  17
TORSDOF 2
ENDMDL
MODEL 2
REMARK VINA RESULT:      -7.6      4.798      9.912
REMARK  Name = 
REMARK  3 active torsions:
REMARK  status: ('A' for Active; 'I' for Inactive)
REMARK    1  A    between atoms: C_1  and  C_2
REMARK    2  A    between atoms: C_12  and  C_13
REMARK    3  A    between atoms: C_15  and  C_16
REMARK                            x       y       z     vdW  Elec       q    Type
REMARK                         _______ _______ _______ _____ _____    ______ ____
ROOT
ATOM      1  C   UNL     1       2.667   2.630  21.071  0.00  0.00    +0.000 C 
ATOM      2  C   UNL     1       2.564   4.037  20.653  0.00  0.00    +0.000 A 
ATOM      3  C   UNL     1       1.616   5.024  20.775  0.00  0.00    +0.000 A 
ATOM      4  C   UNL     1       2.170   6.139  20.097  0.00  0.00    +0.000 A 
ATOM      5  N   UNL     1       1.529   7.361  19.936  0.00  0.00    +0.000 N 
ATOM      6  C   UNL     1       1.934   8.283  19.003  0.00  0.00    +0.000 C 
ATOM      7  O   UNL     1       2.849   8.107  18.202  0.00  0.00    +0.000 OA
ATOM      8  N   UNL     1       1.193   9.461  18.965  0.00  0.00    +0.000 N 
ATOM      9  C   UNL     1       1.454  10.385  17.862  0.00  0.00    +0.000 C 
ATOM     10  C   UNL     1       2.167  11.625  18.379  0.00  0.00    +0.000 C 
ATOM     11  C   UNL     1       1.319  12.305  19.449  0.00  0.00    +0.000 C 
ATOM     12  C   UNL     1       0.943  11.336  20.584  0.00  0.00    +0.000 C 
ATOM     13  C   UNL     1       0.364  10.013  20.042  0.00  0.00    +0.000 C 
ATOM     14  N   UNL     1       3.391   5.842  19.645  0.00  0.00    +0.000 NA
ATOM     15  O   UNL     1       3.630   4.530  19.977  0.00  0.00    +0.000 OA
ATOM     16  H   UNL     1       0.598   7.424  20.306  0.00  0.00    +0.000 HD
ENDROOT
BRANCH  12  17
ATOM     17  C   UNL     1      -0.046  11.996  21.477  0.00  0.00    +0.000 A 
ATOM     18  N   UNL     1      -1.300  11.680  21.691  0.00  0.00    +0.000 NA
ATOM     19  C   UNL     1      -1.741  12.716  22.485  0.00  0.00    +0.000 A 
ATOM     20  N   UNL     1      -0.788  13.618  22.776  0.00  0.00    +0.000 NA
ATOM     21  O   UNL     1       0.338  13.143  22.103  0.00  0.00    +0.000 OA
BRANCH  19  22
ATOM     22  C   UNL     1      -3.130  12.803  22.920  0.00  0.00    +0.000 A 
ATOM     23  C   UNL     1      -4.091  13.379  22.072  0.00  0.00    +0.000 A 
ATOM     24  C   UNL     1      -5.424  13.492  22.476  0.00  0.00    +0.000 A 
ATOM     25  C   UNL     1      -5.805  13.032  23.734  0.00  0.00    +0.000 A 
ATOM     26 CL   UNL     1      -7.442  13.180  24.237  0.00  0.00    +0.000 Cl
ATOM     27  C   UNL     1      -4.865  12.456  24.588  0.00  0.00    +0.000 A 
ATOM     28  C   UNL     1      -3.531  12.341  24.181  0.00  0.00    +0.000 A 
ENDBRANCH  19  22
ENDBRANCH  12  17
TORSDOF 2
ENDMDL
MODEL 3
REMARK VINA RESULT:      -7.5      4.855      9.873
REMARK  Name = 
REMARK  3 active torsions:
REMARK  status: ('A' for Active; 'I' for Inactive)
REMARK    1  A    between atoms: C_1  and  C_2
REMARK    2  A    between atoms: C_12  and  C_13
REMARK    3  A    between atoms: C_15  and  C_16
REMARK                            x       y       z     vdW  Elec       q    Type
REMARK                         _______ _______ _______ _____ _____    ______ ____
ROOT
ATOM      1  C   UNL     1       4.242   2.341  20.222  0.00  0.00    +0.000 C 
ATOM      2  C   UNL     1       3.864   3.734  19.935  0.00  0.00    +0.000 A 
ATOM      3  C   UNL     1       2.759   4.513  20.176  0.00  0.00    +0.000 A 
ATOM      4  C   UNL     1       3.066   5.764  19.582  0.00  0.00    +0.000 A 
ATOM      5  N   UNL     1       2.206   6.854  19.551  0.00  0.00    +0.000 N 
ATOM      6  C   UNL     1       2.390   7.909  18.692  0.00  0.00    +0.000 C 
ATOM      7  O   UNL     1       3.282   7.972  17.849  0.00  0.00    +0.000 OA
ATOM      8  N   UNL     1       1.445   8.927  18.783  0.00  0.00    +0.000 N 
ATOM      9  C   UNL     1       1.480   9.970  17.759  0.00  0.00    +0.000 C 
ATOM     10  C   UNL     1       1.979  11.275  18.361  0.00  0.00    +0.000 C 
ATOM     11  C   UNL     1       1.074  11.696  19.515  0.00  0.00    +0.000 C 
ATOM     12  C   UNL     1       0.936  10.584  20.571  0.00  0.00    +0.000 C 
ATOM     13  C   UNL     1       0.583   9.225  19.931  0.00  0.00    +0.000 C 
ATOM     14  N   UNL     1       4.297   5.737  19.066  0.00  0.00    +0.000 NA
ATOM     15  O   UNL     1       4.788   4.470  19.272  0.00  0.00    +0.000 OA
ATOM     16  H   UNL     1       1.298   6.713  19.956  0.00  0.00    +0.000 HD
ENDROOT
BRANCH  12  17
ATOM     17  C   UNL     1      -0.112  10.973  21.551  0.00  0.00    +0.000 A 
ATOM     18  N   UNL     1      -1.091  11.834  21.411  0.00  0.00    +0.000 NA
ATOM     19  C   UNL     1      -1.634  11.881  22.676  0.00  0.00    +0.000 A 
ATOM     20  N   UNL     1      -1.036  11.057  23.553  0.00  0.00    +0.000 NA
ATOM     21  O   UNL     1      -0.020  10.457  22.808  0.00  0.00    +0.000 OA
BRANCH  19  22
ATOM     22  C   UNL     1      -2.737  12.779  22.997  0.00  0.00    +0.000 A 
ATOM     23  C   UNL     1      -2.805  14.044  22.389  0.00  0.00    +0.000 A 
ATOM     24  C   UNL     1      -3.841  14.930  22.696  0.00  0.00    +0.000 A 
ATOM     25  C   UNL     1      -4.816  14.557  23.618  0.00  0.00    +0.000 A 
ATOM     26 CL   UNL     1      -6.086  15.650  24.006  0.00  0.00    +0.000 Cl
ATOM     27  C   UNL     1      -4.765  13.305  24.230  0.00  0.00    +0.000 A 
ATOM     28  C   UNL     1      -3.729  12.418  23.919  0.00  0.00    +0.000 A 
ENDBRANCH  19  22
ENDBRANCH  12  17
TORSDOF 2
ENDMDL
MODEL 4
REMARK VINA RESULT:      -7.5      3.282      5.298
REMARK  Name = 
REMARK  3 active torsions:
REMARK  status: ('A' for Active; 'I' for Inactive)
REMARK    1  A    between atoms: C_1  and  C_2
REMARK    2  A    between atoms: C_12  and  C_13
REMARK    3  A    between atoms: C_15  and  C_16
REMARK                            x       y       z     vdW  Elec       q    Type
REMARK                         _______ _______ _______ _____ _____    ______ ____
ROOT
ATOM      1  C   UNL     1      -6.101  13.110  23.854  0.00  0.00    +0.000 C 
ATOM      2  C   UNL     1      -4.843  13.207  23.097  0.00  0.00    +0.000 A 
ATOM      3  C   UNL     1      -3.772  12.376  22.875  0.00  0.00    +0.000 A 
ATOM      4  C   UNL     1      -2.888  13.138  22.070  0.00  0.00    +0.000 A 
ATOM      5  N   UNL     1      -1.644  12.699  21.634  0.00  0.00    +0.000 N 
ATOM      6  C   UNL     1      -0.688  13.562  21.159  0.00  0.00    +0.000 C 
ATOM      7  O   UNL     1      -0.812  14.785  21.120  0.00  0.00    +0.000 OA
ATOM      8  N   UNL     1       0.506  12.971  20.756  0.00  0.00    +0.000 N 
ATOM      9  C   UNL     1       1.622  13.859  20.434  0.00  0.00    +0.000 C 
ATOM     10  C   UNL     1       1.877  13.853  18.934  0.00  0.00    +0.000 C 
ATOM     11  C   UNL     1       2.177  12.434  18.463  0.00  0.00    +0.000 C 
ATOM     12  C   UNL     1       1.066  11.447  18.867  0.00  0.00    +0.000 C 
ATOM     13  C   UNL     1       0.704  11.572  20.362  0.00  0.00    +0.000 C 
ATOM     14  N   UNL     1      -3.427  14.328  21.795  0.00  0.00    +0.000 NA
ATOM     15  O   UNL     1      -4.636  14.377  22.446  0.00  0.00    +0.000 OA
ATOM     16  H   UNL     1      -1.361  11.789  21.948  0.00  0.00    +0.000 HD
ENDROOT
BRANCH  12  17
ATOM     17  C   UNL     1       1.513  10.062  18.565  0.00  0.00    +0.000 A 
ATOM     18  N   UNL     1       1.467   8.998  19.329  0.00  0.00    +0.000 NA
ATOM     19  C   UNL     1       2.144   8.060  18.582  0.00  0.00    +0.000 A 
ATOM     20  N   UNL     1       2.564   8.518  17.390  0.00  0.00    +0.000 NA
ATOM     21  O   UNL     1       2.150   9.850  17.380  0.00  0.00    +0.000 OA
BRANCH  19  22
ATOM     22  C   UNL     1       2.389   6.715  19.089  0.00  0.00    +0.000 A 
ATOM     23  C   UNL     1       1.857   6.332  20.332  0.00  0.00    +0.000 A 
ATOM     24  C   UNL     1       2.095   5.056  20.848  0.00  0.00    +0.000 A 
ATOM     25  C   UNL     1       2.871   4.153  20.125  0.00  0.00    +0.000 A 
ATOM     26 CL   UNL     1       3.174   2.585  20.763  0.00  0.00    +0.000 Cl
ATOM     27  C   UNL     1       3.405   4.516  18.889  0.00  0.00    +0.000 A 
ATOM     28  C   UNL     1       3.163   5.793  18.372  0.00  0.00    +0.000 A 
ENDBRANCH  19  22
ENDBRANCH  12  17
TORSDOF 2
ENDMDL
MODEL 5
REMARK VINA RESULT:      -7.4      6.000      9.767
REMARK  Name = 
REMARK  3 active torsions:
REMARK  status: ('A' for Active; 'I' for Inactive)
REMARK    1  A    between atoms: C_1  and  C_2
REMARK    2  A    between atoms: C_12  and  C_13
REMARK    3  A    between atoms: C_15  and  C_16
REMARK                            x       y       z     vdW  Elec       q    Type
REMARK                         _______ _______ _______ _____ _____    ______ ____
ROOT
ATOM      1  C   UNL     1       1.036   2.406  22.196  0.00  0.00    +0.000 C 
ATOM      2  C   UNL     1       1.910   2.902  21.121  0.00  0.00    +0.000 A 
ATOM      3  C   UNL     1       2.463   4.116  20.796  0.00  0.00    +0.000 A 
ATOM      4  C   UNL     1       3.175   3.876  19.594  0.00  0.00    +0.000 A 
ATOM      5  N   UNL     1       3.865   4.847  18.879  0.00  0.00    +0.000 N 
ATOM      6  C   UNL     1       4.245   4.664  17.573  0.00  0.00    +0.000 C 
ATOM      7  O   UNL     1       3.976   3.669  16.903  0.00  0.00    +0.000 OA
ATOM      8  N   UNL     1       4.932   5.728  16.994  0.00  0.00    +0.000 N 
ATOM      9  C   UNL     1       5.180   5.665  15.554  0.00  0.00    +0.000 C 
ATOM     10  C   UNL     1       6.659   5.424  15.291  0.00  0.00    +0.000 C 
ATOM     11  C   UNL     1       7.489   6.536  15.922  0.00  0.00    +0.000 C 
ATOM     12  C   UNL     1       7.185   6.697  17.423  0.00  0.00    +0.000 C 
ATOM     13  C   UNL     1       5.669   6.783  17.697  0.00  0.00    +0.000 C 
ATOM     14  N   UNL     1       3.086   2.587  19.257  0.00  0.00    +0.000 NA
ATOM     15  O   UNL     1       2.287   1.984  20.198  0.00  0.00    +0.000 OA
ATOM     16  H   UNL     1       3.816   5.782  19.242  0.00  0.00    +0.000 HD
ENDROOT
BRANCH  12  17
ATOM     17  C   UNL     1       7.863   7.921  17.927  0.00  0.00    +0.000 A 
ATOM     18  N   UNL     1       7.951   9.103  17.368  0.00  0.00    +0.000 NA
ATOM     19  C   UNL     1       8.806   9.775  18.213  0.00  0.00    +0.000 A 
ATOM     20  N   UNL     1       9.204   9.047  19.270  0.00  0.00    +0.000 NA
ATOM     21  O   UNL     1       8.582   7.812  19.079  0.00  0.00    +0.000 OA
BRANCH  19  22
ATOM     22  C   UNL     1       9.237  11.139  17.932  0.00  0.00    +0.000 A 
ATOM     23  C   UNL     1      10.608  11.426  17.817  0.00  0.00    +0.000 A 
ATOM     24  C   UNL     1      11.046  12.729  17.568  0.00  0.00    +0.000 A 
ATOM     25  C   UNL     1      10.116  13.756  17.435  0.00  0.00    +0.000 A 
ATOM     26 CL   UNL     1      10.653  15.362  17.140  0.00  0.00    +0.000 Cl
ATOM     27  C   UNL     1       8.751  13.489  17.546  0.00  0.00    +0.000 A 
ATOM     28  C   UNL     1       8.313  12.184  17.791  0.00  0.00    +0.000 A 
ENDBRANCH  19  22
ENDBRANCH  12  17
TORSDOF 2
ENDMDL
MODEL 6
REMARK VINA RESULT:      -7.3      4.439      9.362
REMARK  Name = 
REMARK  3 active torsions:
REMARK  status: ('A' for Active; 'I' for Inactive)
REMARK    1  A    between atoms: C_1  and  C_2
REMARK    2  A    between atoms: C_12  and  C_13
REMARK    3  A    between atoms: C_15  and  C_16
REMARK                            x       y       z     vdW  Elec       q    Type
REMARK                         _______ _______ _______ _____ _____    ______ ____
ROOT
ATOM      1  C   UNL     1       7.490   4.616  12.290  0.00  0.00    +0.000 C 
ATOM      2  C   UNL     1       6.721   4.551  13.543  0.00  0.00    +0.000 A 
ATOM      3  C   UNL     1       6.391   5.445  14.533  0.00  0.00    +0.000 A 
ATOM      4  C   UNL     1       5.653   4.683  15.473  0.00  0.00    +0.000 A 
ATOM      5  N   UNL     1       5.147   5.181  16.668  0.00  0.00    +0.000 N 
ATOM      6  C   UNL     1       4.746   4.360  17.692  0.00  0.00    +0.000 C 
ATOM      7  O   UNL     1       4.839   3.134  17.679  0.00  0.00    +0.000 OA
ATOM      8  N   UNL     1       4.259   5.009  18.824  0.00  0.00    +0.000 N 
ATOM      9  C   UNL     1       4.010   4.194  20.012  0.00  0.00    +0.000 C 
ATOM     10  C   UNL     1       2.513   4.063  20.248  0.00  0.00    +0.000 C 
ATOM     11  C   UNL     1       1.889   5.444  20.414  0.00  0.00    +0.000 C 
ATOM     12  C   UNL     1       2.209   6.366  19.223  0.00  0.00    +0.000 C 
ATOM     13  C   UNL     1       3.716   6.370  18.890  0.00  0.00    +0.000 C 
ATOM     14  N   UNL     1       5.515   3.428  15.041  0.00  0.00    +0.000 NA
ATOM     15  O   UNL     1       6.192   3.341  13.848  0.00  0.00    +0.000 OA
ATOM     16  H   UNL     1       5.359   6.141  16.871  0.00  0.00    +0.000 HD
ENDROOT
BRANCH  12  17
ATOM     17  C   UNL     1       1.755   7.745  19.541  0.00  0.00    +0.000 A 
ATOM     18  N   UNL     1       1.021   8.160  20.544  0.00  0.00    +0.000 NA
ATOM     19  C   UNL     1       0.809   9.485  20.237  0.00  0.00    +0.000 A 
ATOM     20  N   UNL     1       1.415   9.882  19.105  0.00  0.00    +0.000 NA
ATOM     21  O   UNL     1       2.040   8.725  18.638  0.00  0.00    +0.000 OA
BRANCH  19  22
ATOM     22  C   UNL     1      -0.029  10.336  21.073  0.00  0.00    +0.000 A 
ATOM     23  C   UNL     1      -0.310   9.953  22.396  0.00  0.00    +0.000 A 
ATOM     24  C   UNL     1      -1.127  10.741  23.209  0.00  0.00    +0.000 A 
ATOM     25  C   UNL     1      -1.672  11.919  22.705  0.00  0.00    +0.000 A 
ATOM     26 CL   UNL     1      -2.687  12.886  23.701  0.00  0.00    +0.000 Cl
ATOM     27  C   UNL     1      -1.403  12.316  21.395  0.00  0.00    +0.000 A 
ATOM     28  C   UNL     1      -0.582  11.527  20.582  0.00  0.00    +0.000 A 
ENDBRANCH  19  22
ENDBRANCH  12  17
TORSDOF 2
ENDMDL
MODEL 7
REMARK VINA RESULT:      -7.3      2.390      2.690
REMARK  Name = 
REMARK  3 active torsions:
REMARK  status: ('A' for Active; 'I' for Inactive)
REMARK    1  A    between atoms: C_1  and  C_2
REMARK    2  A    between atoms: C_12  and  C_13
REMARK    3  A    between atoms: C_15  and  C_16
REMARK                            x       y       z     vdW  Elec       q    Type
REMARK                         _______ _______ _______ _____ _____    ______ ____
ROOT
ATOM      1  C   UNL     1      -0.190  17.924  18.317  0.00  0.00    +0.000 C 
ATOM      2  C   UNL     1      -0.171  16.663  19.076  0.00  0.00    +0.000 A 
ATOM      3  C   UNL     1      -0.257  15.330  18.754  0.00  0.00    +0.000 A 
ATOM      4  C   UNL     1      -0.208  14.657  20.001  0.00  0.00    +0.000 A 
ATOM      5  N   UNL     1      -0.303  13.279  20.157  0.00  0.00    +0.000 N 
ATOM      6  C   UNL     1      -0.592  12.697  21.366  0.00  0.00    +0.000 C 
ATOM      7  O   UNL     1      -0.840  13.320  22.397  0.00  0.00    +0.000 OA
ATOM      8  N   UNL     1      -0.650  11.306  21.362  0.00  0.00    +0.000 N 
ATOM      9  C   UNL     1      -1.150  10.651  22.570  0.00  0.00    +0.000 C 
ATOM     10  C   UNL     1      -0.009   9.945  23.289  0.00  0.00    +0.000 C 
ATOM     11  C   UNL     1       0.638   8.923  22.361  0.00  0.00    +0.000 C 
ATOM     12  C   UNL     1       1.093   9.558  21.035  0.00  0.00    +0.000 C 
ATOM     13  C   UNL     1      -0.025  10.404  20.390  0.00  0.00    +0.000 C 
ATOM     14  N   UNL     1      -0.053  15.537  20.993  0.00  0.00    +0.000 NA
ATOM     15  O   UNL     1      -0.046  16.786  20.419  0.00  0.00    +0.000 OA
ATOM     16  H   UNL     1      -0.448  12.748  19.318  0.00  0.00    +0.000 HD
ENDROOT
BRANCH  12  17
ATOM     17  C   UNL     1       1.520   8.482  20.101  0.00  0.00    +0.000 A 
ATOM     18  N   UNL     1       1.696   7.206  20.342  0.00  0.00    +0.000 NA
ATOM     19  C   UNL     1       2.225   6.745  19.157  0.00  0.00    +0.000 A 
ATOM     20  N   UNL     1       2.340   7.693  18.212  0.00  0.00    +0.000 NA
ATOM     21  O   UNL     1       1.877   8.849  18.839  0.00  0.00    +0.000 OA
BRANCH  19  22
ATOM     22  C   UNL     1       2.638   5.356  18.998  0.00  0.00    +0.000 A 
ATOM     23  C   UNL     1       3.165   4.922  17.770  0.00  0.00    +0.000 A 
ATOM     24  C   UNL     1       3.548   3.591  17.587  0.00  0.00    +0.000 A 
ATOM     25  C   UNL     1       3.404   2.682  18.632  0.00  0.00    +0.000 A 
ATOM     26 CL   UNL     1       3.864   1.041  18.406  0.00  0.00    +0.000 Cl
ATOM     27  C   UNL     1       2.883   3.095  19.858  0.00  0.00    +0.000 A 
ATOM     28  C   UNL     1       2.503   4.429  20.041  0.00  0.00    +0.000 A 
ENDBRANCH  19  22
ENDBRANCH  12  17
TORSDOF 2
ENDMDL
MODEL 8
REMARK VINA RESULT:      -7.3      1.889      2.369
REMARK  Name = 
REMARK  3 active torsions:
REMARK  status: ('A' for Active; 'I' for Inactive)
REMARK    1  A    between atoms: C_1  and  C_2
REMARK    2  A    between atoms: C_12  and  C_13
REMARK    3  A    between atoms: C_15  and  C_16
REMARK                            x       y       z     vdW  Elec       q    Type
REMARK                         _______ _______ _______ _____ _____    ______ ____
ROOT
ATOM      1  C   UNL     1       4.132  17.888  20.561  0.00  0.00    +0.000 C 
ATOM      2  C   UNL     1       3.367  16.677  20.899  0.00  0.00    +0.000 A 
ATOM      3  C   UNL     1       2.978  15.548  20.221  0.00  0.00    +0.000 A 
ATOM      4  C   UNL     1       2.222  14.806  21.163  0.00  0.00    +0.000 A 
ATOM      5  N   UNL     1       1.594  13.597  20.892  0.00  0.00    +0.000 N 
ATOM      6  C   UNL     1       0.608  13.086  21.700  0.00  0.00    +0.000 C 
ATOM      7  O   UNL     1       0.156  13.656  22.691  0.00  0.00    +0.000 OA
ATOM      8  N   UNL     1       0.079  11.863  21.298  0.00  0.00    +0.000 N 
ATOM      9  C   UNL     1      -1.105  11.377  22.005  0.00  0.00    +0.000 C 
ATOM     10  C   UNL     1      -0.738  10.186  22.877  0.00  0.00    +0.000 C 
ATOM     11  C   UNL     1      -0.143   9.076  22.018  0.00  0.00    +0.000 C 
ATOM     12  C   UNL     1       1.051   9.573  21.183  0.00  0.00    +0.000 C 
ATOM     13  C   UNL     1       0.718  10.874  20.423  0.00  0.00    +0.000 C 
ATOM     14  N   UNL     1       2.207  15.437  22.339  0.00  0.00    +0.000 NA
ATOM     15  O   UNL     1       2.906  16.609  22.172  0.00  0.00    +0.000 OA
ATOM     16  H   UNL     1       1.669  13.261  19.949  0.00  0.00    +0.000 HD
ENDROOT
BRANCH  12  17
ATOM     17  C   UNL     1       1.449   8.511  20.222  0.00  0.00    +0.000 A 
ATOM     18  N   UNL     1       1.632   7.231  20.440  0.00  0.00    +0.000 NA
ATOM     19  C   UNL     1       2.125   6.787  19.233  0.00  0.00    +0.000 A 
ATOM     20  N   UNL     1       2.212   7.748  18.298  0.00  0.00    +0.000 NA
ATOM     21  O   UNL     1       1.769   8.896  18.955  0.00  0.00    +0.000 OA
BRANCH  19  22
ATOM     22  C   UNL     1       2.532   5.400  19.041  0.00  0.00    +0.000 A 
ATOM     23  C   UNL     1       2.304   4.460  20.060  0.00  0.00    +0.000 A 
ATOM     24  C   UNL     1       2.704   3.130  19.908  0.00  0.00    +0.000 A 
ATOM     25  C   UNL     1       3.338   2.731  18.734  0.00  0.00    +0.000 A 
ATOM     26 CL   UNL     1       3.840   1.097  18.548  0.00  0.00    +0.000 Cl
ATOM     27  C   UNL     1       3.570   3.650  17.711  0.00  0.00    +0.000 A 
ATOM     28  C   UNL     1       3.166   4.981  17.864  0.00  0.00    +0.000 A 
ENDBRANCH  19  22
ENDBRANCH  12  17
TORSDOF 2
ENDMDL
MODEL 9
REMARK VINA RESULT:      -7.3      3.879      8.834
REMARK  Name = 
REMARK  3 active torsions:
REMARK  status: ('A' for Active; 'I' for Inactive)
REMARK    1  A    between atoms: C_1  and  C_2
REMARK    2  A    between atoms: C_12  and  C_13
REMARK    3  A    between atoms: C_15  and  C_16
REMARK                            x       y       z     vdW  Elec       q    Type
REMARK                         _______ _______ _______ _____ _____    ______ ____
ROOT
ATOM      1  C   UNL     1       7.836   5.041  12.963  0.00  0.00    +0.000 C 
ATOM      2  C   UNL     1       6.931   4.859  14.109  0.00  0.00    +0.000 A 
ATOM      3  C   UNL     1       6.565   5.619  15.192  0.00  0.00    +0.000 A 
ATOM      4  C   UNL     1       5.670   4.796  15.922  0.00  0.00    +0.000 A 
ATOM      5  N   UNL     1       5.076   5.152  17.127  0.00  0.00    +0.000 N 
ATOM      6  C   UNL     1       4.501   4.226  17.961  0.00  0.00    +0.000 C 
ATOM      7  O   UNL     1       4.498   3.013  17.759  0.00  0.00    +0.000 OA
ATOM      8  N   UNL     1       3.945   4.738  19.130  0.00  0.00    +0.000 N 
ATOM      9  C   UNL     1       3.503   3.778  20.141  0.00  0.00    +0.000 C 
ATOM     10  C   UNL     1       1.983   3.755  20.208  0.00  0.00    +0.000 C 
ATOM     11  C   UNL     1       1.454   5.148  20.533  0.00  0.00    +0.000 C 
ATOM     12  C   UNL     1       1.976   6.206  19.544  0.00  0.00    +0.000 C 
ATOM     13  C   UNL     1       3.506   6.118  19.363  0.00  0.00    +0.000 C 
ATOM     14  N   UNL     1       5.483   3.640  15.281  0.00  0.00    +0.000 NA
ATOM     15  O   UNL     1       6.279   3.672  14.161  0.00  0.00    +0.000 OA
ATOM     16  H   UNL     1       5.338   6.045  17.502  0.00  0.00    +0.000 HD
ENDROOT
BRANCH  12  17
ATOM     17  C   UNL     1       1.599   7.557  20.034  0.00  0.00    +0.000 A 
ATOM     18  N   UNL     1       1.453   8.669  19.354  0.00  0.00    +0.000 NA
ATOM     19  C   UNL     1       1.246   9.604  20.344  0.00  0.00    +0.000 A 
ATOM     20  N   UNL     1       1.231   9.085  21.583  0.00  0.00    +0.000 NA
ATOM     21  O   UNL     1       1.471   7.726  21.380  0.00  0.00    +0.000 OA
BRANCH  19  22
ATOM     22  C   UNL     1       1.093  11.020  20.032  0.00  0.00    +0.000 A 
ATOM     23  C   UNL     1       1.501  11.506  18.779  0.00  0.00    +0.000 A 
ATOM     24  C   UNL     1       1.383  12.862  18.465  0.00  0.00    +0.000 A 
ATOM     25  C   UNL     1       0.858  13.744  19.407  0.00  0.00    +0.000 A 
ATOM     26 CL   UNL     1       0.723  15.416  19.028  0.00  0.00    +0.000 Cl
ATOM     27  C   UNL     1       0.448  13.280  20.656  0.00  0.00    +0.000 A 
ATOM     28  C   UNL     1       0.563  11.920  20.967  0.00  0.00    +0.000 A 
ENDBRANCH  19  22
ENDBRANCH  12  17
TORSDOF 2
ENDMDL
