MODEL 1
REMARK VINA RESULT:      -8.3      0.000      0.000
REMARK  Name = 
REMARK  4 active torsions:
REMARK  status: ('A' for Active; 'I' for Inactive)
REMARK    1  A    between atoms: C_2  and  C_3
REMARK    2  A    between atoms: C_3  and  N_4
REMARK    3  A    between atoms: C_5  and  C_7
REMARK    4  A    between atoms: N_16  and  C_17
REMARK                            x       y       z     vdW  Elec       q    Type
REMARK                         _______ _______ _______ _____ _____    ______ ____
ROOT
ATOM      1  O   UNL     1       6.648   5.079  20.150  0.00  0.00    +0.000 OA
ATOM      2  C   UNL     1       6.486   5.527  19.014  0.00  0.00    +0.000 C 
ATOM      3  N   UNL     1       5.272   5.644  18.362  0.00  0.00    +0.000 N 
ATOM      4  H   UNL     1       5.277   5.698  17.338  0.00  0.00    +0.000 HD
ENDROOT
BRANCH   3   5
ATOM      5  C   UNL     1       3.983   5.425  18.935  0.00  0.00    +0.000 A 
ATOM      6  C   UNL     1       3.273   6.454  19.574  0.00  0.00    +0.000 A 
ATOM      7  C   UNL     1       2.059   6.200  20.206  0.00  0.00    +0.000 A 
ATOM      8  C   UNL     1       1.526   4.918  20.183  0.00  0.00    +0.000 A 
ATOM      9  C   UNL     1       2.185   3.893  19.490  0.00  0.00    +0.000 A 
ATOM     10  C   UNL     1       1.631   2.610  19.431  0.00  0.00    +0.000 A 
ATOM     11  C   UNL     1       2.281   1.610  18.724  0.00  0.00    +0.000 A 
ATOM     12  C   UNL     1       3.473   1.930  18.102  0.00  0.00    +0.000 A 
ATOM     13  N   UNL     1       4.050   3.153  18.151  0.00  0.00    +0.000 NA
ATOM     14  C   UNL     1       3.423   4.136  18.838  0.00  0.00    +0.000 A 
ENDBRANCH   3   5
BRANCH   2  15
ATOM     15  C   UNL     1       7.708   5.943  18.186  0.00  0.00    +0.000 C 
BRANCH  15  16
ATOM     16  N   UNL     1       8.271   7.218  18.599  0.00  0.00    +0.000 N 
ATOM     17  C   UNL     1       7.995   8.353  17.877  0.00  0.00    +0.000 C 
ATOM     18  O   UNL     1       7.310   8.336  16.856  0.00  0.00    +0.000 OA
ATOM     19  H   UNL     1       8.762   7.258  19.483  0.00  0.00    +0.000 HD
BRANCH  17  20
ATOM     20  C   UNL     1       8.532   9.639  18.390  0.00  0.00    +0.000 A 
ATOM     21  C   UNL     1       9.217   9.712  19.621  0.00  0.00    +0.000 A 
ATOM     22  C   UNL     1       9.748  10.928  20.065  0.00  0.00    +0.000 A 
ATOM     23  C   UNL     1       9.568  12.037  19.268  0.00  0.00    +0.000 A 
ATOM     24  C   UNL     1       8.903  11.968  18.065  0.00  0.00    +0.000 A 
ATOM     25  C   UNL     1       8.381  10.783  17.592  0.00  0.00    +0.000 A 
ATOM     26  O   UNL     1       8.840  13.174  17.438  0.00  0.00    +0.000 OA
ATOM     27  C   UNL     1       9.486  14.020  18.412  0.00  0.00    +0.000 C 
ATOM     28  O   UNL     1      10.009  13.293  19.544  0.00  0.00    +0.000 OA
ENDBRANCH  17  20
ENDBRANCH  15  16
ENDBRANCH   2  15
TORSDOF 4
ENDMDL
MODEL 2
REMARK VINA RESULT:      -8.3      2.005      3.601
REMARK  Name = 
REMARK  4 active torsions:
REMARK  status: ('A' for Active; 'I' for Inactive)
REMARK    1  A    between atoms: C_2  and  C_3
REMARK    2  A    between atoms: C_3  and  N_4
REMARK    3  A    between atoms: C_5  and  C_7
REMARK    4  A    between atoms: N_16  and  C_17
REMARK                            x       y       z     vdW  Elec       q    Type
REMARK                         _______ _______ _______ _____ _____    ______ ____
ROOT
ATOM      1  O   UNL     1       6.959   8.333  16.952  0.00  0.00    +0.000 OA
ATOM      2  C   UNL     1       7.567   7.702  17.818  0.00  0.00    +0.000 C 
ATOM      3  N   UNL     1       7.406   6.356  18.095  0.00  0.00    +0.000 N 
ATOM      4  H   UNL     1       7.687   6.016  19.020  0.00  0.00    +0.000 HD
ENDROOT
BRANCH   3   5
ATOM      5  C   UNL     1       6.637   5.426  17.333  0.00  0.00    +0.000 A 
ATOM      6  C   UNL     1       7.135   4.841  16.158  0.00  0.00    +0.000 A 
ATOM      7  C   UNL     1       6.338   4.006  15.380  0.00  0.00    +0.000 A 
ATOM      8  C   UNL     1       5.039   3.725  15.782  0.00  0.00    +0.000 A 
ATOM      9  C   UNL     1       4.547   4.243  16.988  0.00  0.00    +0.000 A 
ATOM     10  C   UNL     1       3.252   3.929  17.415  0.00  0.00    +0.000 A 
ATOM     11  C   UNL     1       2.783   4.430  18.620  0.00  0.00    +0.000 A 
ATOM     12  C   UNL     1       3.630   5.237  19.357  0.00  0.00    +0.000 A 
ATOM     13  N   UNL     1       4.881   5.578  18.968  0.00  0.00    +0.000 NA
ATOM     14  C   UNL     1       5.348   5.093  17.794  0.00  0.00    +0.000 A 
ENDBRANCH   3   5
BRANCH   2  15
ATOM     15  C   UNL     1       8.550   8.437  18.736  0.00  0.00    +0.000 C 
BRANCH  15  16
ATOM     16  N   UNL     1       8.994   9.712  18.196  0.00  0.00    +0.000 N 
ATOM     17  C   UNL     1       9.453  10.691  19.042  0.00  0.00    +0.000 C 
ATOM     18  O   UNL     1       9.470  10.552  20.264  0.00  0.00    +0.000 OA
ATOM     19  H   UNL     1       9.065   9.804  17.190  0.00  0.00    +0.000 HD
BRANCH  17  20
ATOM     20  C   UNL     1       9.967  11.942  18.430  0.00  0.00    +0.000 A 
ATOM     21  C   UNL     1      11.167  11.958  17.687  0.00  0.00    +0.000 A 
ATOM     22  C   UNL     1      11.612  13.141  17.087  0.00  0.00    +0.000 A 
ATOM     23  C   UNL     1      10.848  14.275  17.256  0.00  0.00    +0.000 A 
ATOM     24  C   UNL     1       9.676  14.260  17.977  0.00  0.00    +0.000 A 
ATOM     25  C   UNL     1       9.202  13.110  18.569  0.00  0.00    +0.000 A 
ATOM     26  O   UNL     1       9.079  15.483  18.018  0.00  0.00    +0.000 OA
ATOM     27  C   UNL     1      10.041  16.278  17.294  0.00  0.00    +0.000 C 
ATOM     28  O   UNL     1      11.131  15.505  16.751  0.00  0.00    +0.000 OA
ENDBRANCH  17  20
ENDBRANCH  15  16
ENDBRANCH   2  15
TORSDOF 4
ENDMDL
MODEL 3
REMARK VINA RESULT:      -8.2      1.167      1.698
REMARK  Name = 
REMARK  4 active torsions:
REMARK  status: ('A' for Active; 'I' for Inactive)
REMARK    1  A    between atoms: C_2  and  C_3
REMARK    2  A    between atoms: C_3  and  N_4
REMARK    3  A    between atoms: C_5  and  C_7
REMARK    4  A    between atoms: N_16  and  C_17
REMARK                            x       y       z     vdW  Elec       q    Type
REMARK                         _______ _______ _______ _____ _____    ______ ____
ROOT
ATOM      1  O   UNL     1       6.235   5.217  20.006  0.00  0.00    +0.000 OA
ATOM      2  C   UNL     1       6.590   5.706  18.933  0.00  0.00    +0.000 C 
ATOM      3  N   UNL     1       5.755   6.017  17.875  0.00  0.00    +0.000 N 
ATOM      4  H   UNL     1       6.168   6.090  16.939  0.00  0.00    +0.000 HD
ENDROOT
BRANCH   3   5
ATOM      5  C   UNL     1       4.329   5.982  17.889  0.00  0.00    +0.000 A 
ATOM      6  C   UNL     1       3.561   7.157  17.919  0.00  0.00    +0.000 A 
ATOM      7  C   UNL     1       2.174   7.104  18.025  0.00  0.00    +0.000 A 
ATOM      8  C   UNL     1       1.535   5.871  18.074  0.00  0.00    +0.000 A 
ATOM      9  C   UNL     1       2.279   4.687  17.974  0.00  0.00    +0.000 A 
ATOM     10  C   UNL     1       1.635   3.445  17.984  0.00  0.00    +0.000 A 
ATOM     11  C   UNL     1       2.379   2.282  17.863  0.00  0.00    +0.000 A 
ATOM     12  C   UNL     1       3.750   2.403  17.742  0.00  0.00    +0.000 A 
ATOM     13  N   UNL     1       4.412   3.584  17.747  0.00  0.00    +0.000 NA
ATOM     14  C   UNL     1       3.693   4.725  17.864  0.00  0.00    +0.000 A 
ENDBRANCH   3   5
BRANCH   2  15
ATOM     15  C   UNL     1       8.081   5.950  18.673  0.00  0.00    +0.000 C 
BRANCH  15  16
ATOM     16  N   UNL     1       8.489   7.323  18.926  0.00  0.00    +0.000 N 
ATOM     17  C   UNL     1       8.245   8.293  17.986  0.00  0.00    +0.000 C 
ATOM     18  O   UNL     1       7.720   8.044  16.902  0.00  0.00    +0.000 OA
ATOM     19  H   UNL     1       8.841   7.552  19.847  0.00  0.00    +0.000 HD
BRANCH  17  20
ATOM     20  C   UNL     1       8.611   9.690  18.331  0.00  0.00    +0.000 A 
ATOM     21  C   UNL     1       8.260  10.771  17.495  0.00  0.00    +0.000 A 
ATOM     22  C   UNL     1       8.582  12.082  17.860  0.00  0.00    +0.000 A 
ATOM     23  C   UNL     1       9.255  12.272  19.047  0.00  0.00    +0.000 A 
ATOM     24  C   UNL     1       9.596  11.220  19.865  0.00  0.00    +0.000 A 
ATOM     25  C   UNL     1       9.281   9.918  19.543  0.00  0.00    +0.000 A 
ATOM     26  O   UNL     1      10.253  11.628  20.985  0.00  0.00    +0.000 OA
ATOM     27  C   UNL     1      10.340  13.048  20.746  0.00  0.00    +0.000 C 
ATOM     28  O   UNL     1       9.651  13.471  19.552  0.00  0.00    +0.000 OA
ENDBRANCH  17  20
ENDBRANCH  15  16
ENDBRANCH   2  15
TORSDOF 4
ENDMDL
MODEL 4
REMARK VINA RESULT:      -8.1      1.129      1.635
REMARK  Name = 
REMARK  4 active torsions:
REMARK  status: ('A' for Active; 'I' for Inactive)
REMARK    1  A    between atoms: C_2  and  C_3
REMARK    2  A    between atoms: C_3  and  N_4
REMARK    3  A    between atoms: C_5  and  C_7
REMARK    4  A    between atoms: N_16  and  C_17
REMARK                            x       y       z     vdW  Elec       q    Type
REMARK                         _______ _______ _______ _____ _____    ______ ____
ROOT
ATOM      1  O   UNL     1       6.185   5.547  19.123  0.00  0.00    +0.000 OA
ATOM      2  C   UNL     1       5.729   6.108  18.127  0.00  0.00    +0.000 C 
ATOM      3  N   UNL     1       4.385   6.255  17.831  0.00  0.00    +0.000 N 
ATOM      4  H   UNL     1       4.121   6.419  16.854  0.00  0.00    +0.000 HD
ENDROOT
BRANCH   3   5
ATOM      5  C   UNL     1       3.293   5.933  18.692  0.00  0.00    +0.000 A 
ATOM      6  C   UNL     1       2.760   6.869  19.592  0.00  0.00    +0.000 A 
ATOM      7  C   UNL     1       1.756   6.511  20.487  0.00  0.00    +0.000 A 
ATOM      8  C   UNL     1       1.253   5.216  20.474  0.00  0.00    +0.000 A 
ATOM      9  C   UNL     1       1.723   4.287  19.536  0.00  0.00    +0.000 A 
ATOM     10  C   UNL     1       1.191   2.994  19.494  0.00  0.00    +0.000 A 
ATOM     11  C   UNL     1       1.649   2.090  18.548  0.00  0.00    +0.000 A 
ATOM     12  C   UNL     1       2.633   2.513  17.675  0.00  0.00    +0.000 A 
ATOM     13  N   UNL     1       3.186   3.748  17.695  0.00  0.00    +0.000 NA
ATOM     14  C   UNL     1       2.745   4.638  18.614  0.00  0.00    +0.000 A 
ENDBRANCH   3   5
BRANCH   2  15
ATOM     15  C   UNL     1       6.688   6.652  17.061  0.00  0.00    +0.000 C 
BRANCH  15  16
ATOM     16  N   UNL     1       7.116   8.017  17.318  0.00  0.00    +0.000 N 
ATOM     17  C   UNL     1       8.118   8.261  18.224  0.00  0.00    +0.000 C 
ATOM     18  O   UNL     1       8.656   7.364  18.870  0.00  0.00    +0.000 OA
ATOM     19  H   UNL     1       6.740   8.751  16.731  0.00  0.00    +0.000 HD
BRANCH  17  20
ATOM     20  C   UNL     1       8.568   9.666  18.387  0.00  0.00    +0.000 A 
ATOM     21  C   UNL     1       8.130  10.686  17.515  0.00  0.00    +0.000 A 
ATOM     22  C   UNL     1       8.537  12.010  17.712  0.00  0.00    +0.000 A 
ATOM     23  C   UNL     1       9.379  12.273  18.771  0.00  0.00    +0.000 A 
ATOM     24  C   UNL     1       9.804  11.281  19.624  0.00  0.00    +0.000 A 
ATOM     25  C   UNL     1       9.411   9.970  19.467  0.00  0.00    +0.000 A 
ATOM     26  O   UNL     1      10.626  11.755  20.600  0.00  0.00    +0.000 OA
ATOM     27  C   UNL     1      10.717  13.146  20.225  0.00  0.00    +0.000 C 
ATOM     28  O   UNL     1       9.875  13.493  19.106  0.00  0.00    +0.000 OA
ENDBRANCH  17  20
ENDBRANCH  15  16
ENDBRANCH   2  15
TORSDOF 4
ENDMDL
MODEL 5
REMARK VINA RESULT:      -8.0      6.621      8.836
REMARK  Name = 
REMARK  4 active torsions:
REMARK  status: ('A' for Active; 'I' for Inactive)
REMARK    1  A    between atoms: C_2  and  C_3
REMARK    2  A    between atoms: C_3  and  N_4
REMARK    3  A    between atoms: C_5  and  C_7
REMARK    4  A    between atoms: N_16  and  C_17
REMARK                            x       y       z     vdW  Elec       q    Type
REMARK                         _______ _______ _______ _____ _____    ______ ____
ROOT
ATOM      1  O   UNL     1       1.496   8.711  19.179  0.00  0.00    +0.000 OA
ATOM      2  C   UNL     1       1.716   8.142  20.248  0.00  0.00    +0.000 C 
ATOM      3  N   UNL     1       2.229   6.864  20.389  0.00  0.00    +0.000 N 
ATOM      4  H   UNL     1       2.056   6.368  21.269  0.00  0.00    +0.000 HD
ENDROOT
BRANCH   3   5
ATOM      5  C   UNL     1       2.745   6.044  19.341  0.00  0.00    +0.000 A 
ATOM      6  C   UNL     1       3.764   6.492  18.485  0.00  0.00    +0.000 A 
ATOM      7  C   UNL     1       4.192   5.714  17.412  0.00  0.00    +0.000 A 
ATOM      8  C   UNL     1       3.623   4.465  17.198  0.00  0.00    +0.000 A 
ATOM      9  C   UNL     1       2.654   3.971  18.083  0.00  0.00    +0.000 A 
ATOM     10  C   UNL     1       2.108   2.697  17.893  0.00  0.00    +0.000 A 
ATOM     11  C   UNL     1       1.166   2.211  18.787  0.00  0.00    +0.000 A 
ATOM     12  C   UNL     1       0.798   3.023  19.842  0.00  0.00    +0.000 A 
ATOM     13  N   UNL     1       1.289   4.268  20.049  0.00  0.00    +0.000 NA
ATOM     14  C   UNL     1       2.209   4.751  19.183  0.00  0.00    +0.000 A 
ENDBRANCH   3   5
BRANCH   2  15
ATOM     15  C   UNL     1       1.347   8.838  21.563  0.00  0.00    +0.000 C 
BRANCH  15  16
ATOM     16  N   UNL     1       0.268   9.802  21.418  0.00  0.00    +0.000 N 
ATOM     17  C   UNL     1      -0.320  10.343  22.534  0.00  0.00    +0.000 C 
ATOM     18  O   UNL     1       0.003  10.016  23.675  0.00  0.00    +0.000 OA
ATOM     19  H   UNL     1       0.055  10.141  20.488  0.00  0.00    +0.000 HD
BRANCH  17  20
ATOM     20  C   UNL     1      -1.361  11.380  22.325  0.00  0.00    +0.000 A 
ATOM     21  C   UNL     1      -1.522  12.022  21.079  0.00  0.00    +0.000 A 
ATOM     22  C   UNL     1      -2.535  12.969  20.895  0.00  0.00    +0.000 A 
ATOM     23  C   UNL     1      -3.352  13.253  21.969  0.00  0.00    +0.000 A 
ATOM     24  C   UNL     1      -3.198  12.627  23.184  0.00  0.00    +0.000 A 
ATOM     25  C   UNL     1      -2.220  11.679  23.394  0.00  0.00    +0.000 A 
ATOM     26  O   UNL     1      -4.107  13.052  24.103  0.00  0.00    +0.000 OA
ATOM     27  C   UNL     1      -4.808  14.061  23.345  0.00  0.00    +0.000 C 
ATOM     28  O   UNL     1      -4.377  14.146  21.971  0.00  0.00    +0.000 OA
ENDBRANCH  17  20
ENDBRANCH  15  16
ENDBRANCH   2  15
TORSDOF 4
ENDMDL
MODEL 6
REMARK VINA RESULT:      -7.9      1.139      1.302
REMARK  Name = 
REMARK  4 active torsions:
REMARK  status: ('A' for Active; 'I' for Inactive)
REMARK    1  A    between atoms: C_2  and  C_3
REMARK    2  A    between atoms: C_3  and  N_4
REMARK    3  A    between atoms: C_5  and  C_7
REMARK    4  A    between atoms: N_16  and  C_17
REMARK                            x       y       z     vdW  Elec       q    Type
REMARK                         _______ _______ _______ _____ _____    ______ ____
ROOT
ATOM      1  O   UNL     1       4.510   6.622  16.355  0.00  0.00    +0.000 OA
ATOM      2  C   UNL     1       5.375   6.374  17.195  0.00  0.00    +0.000 C 
ATOM      3  N   UNL     1       5.141   5.924  18.483  0.00  0.00    +0.000 N 
ATOM      4  H   UNL     1       5.870   6.074  19.187  0.00  0.00    +0.000 HD
ENDROOT
BRANCH   3   5
ATOM      5  C   UNL     1       3.882   5.514  19.015  0.00  0.00    +0.000 A 
ATOM      6  C   UNL     1       3.052   6.401  19.718  0.00  0.00    +0.000 A 
ATOM      7  C   UNL     1       1.870   5.962  20.309  0.00  0.00    +0.000 A 
ATOM      8  C   UNL     1       1.490   4.632  20.179  0.00  0.00    +0.000 A 
ATOM      9  C   UNL     1       2.270   3.747  19.422  0.00  0.00    +0.000 A 
ATOM     10  C   UNL     1       1.870   2.416  19.257  0.00  0.00    +0.000 A 
ATOM     11  C   UNL     1       2.638   1.555  18.488  0.00  0.00    +0.000 A 
ATOM     12  C   UNL     1       3.789   2.058  17.912  0.00  0.00    +0.000 A 
ATOM     13  N   UNL     1       4.220   3.332  18.064  0.00  0.00    +0.000 NA
ATOM     14  C   UNL     1       3.476   4.180  18.811  0.00  0.00    +0.000 A 
ENDBRANCH   3   5
BRANCH   2  15
ATOM     15  C   UNL     1       6.849   6.630  16.859  0.00  0.00    +0.000 C 
BRANCH  15  16
ATOM     16  N   UNL     1       7.284   7.980  17.179  0.00  0.00    +0.000 N 
ATOM     17  C   UNL     1       8.135   8.191  18.235  0.00  0.00    +0.000 C 
ATOM     18  O   UNL     1       8.525   7.278  18.961  0.00  0.00    +0.000 OA
ATOM     19  H   UNL     1       7.039   8.723  16.538  0.00  0.00    +0.000 HD
BRANCH  17  20
ATOM     20  C   UNL     1       8.608   9.579  18.467  0.00  0.00    +0.000 A 
ATOM     21  C   UNL     1       9.574   9.872  19.454  0.00  0.00    +0.000 A 
ATOM     22  C   UNL     1      10.033  11.182  19.628  0.00  0.00    +0.000 A 
ATOM     23  C   UNL     1       9.505  12.162  18.816  0.00  0.00    +0.000 A 
ATOM     24  C   UNL     1       8.566  11.878  17.852  0.00  0.00    +0.000 A 
ATOM     25  C   UNL     1       8.103  10.597  17.644  0.00  0.00    +0.000 A 
ATOM     26  O   UNL     1       8.180  12.986  17.163  0.00  0.00    +0.000 OA
ATOM     27  C   UNL     1       8.938  14.007  17.846  0.00  0.00    +0.000 C 
ATOM     28  O   UNL     1       9.830  13.481  18.850  0.00  0.00    +0.000 OA
ENDBRANCH  17  20
ENDBRANCH  15  16
ENDBRANCH   2  15
TORSDOF 4
ENDMDL
MODEL 7
REMARK VINA RESULT:      -7.8      2.541      9.529
REMARK  Name = 
REMARK  4 active torsions:
REMARK  status: ('A' for Active; 'I' for Inactive)
REMARK    1  A    between atoms: C_2  and  C_3
REMARK    2  A    between atoms: C_3  and  N_4
REMARK    3  A    between atoms: C_5  and  C_7
REMARK    4  A    between atoms: N_16  and  C_17
REMARK                            x       y       z     vdW  Elec       q    Type
REMARK                         _______ _______ _______ _____ _____    ______ ____
ROOT
ATOM      1  O   UNL     1       7.785  10.558  17.675  0.00  0.00    +0.000 OA
ATOM      2  C   UNL     1       8.392   9.617  18.187  0.00  0.00    +0.000 C 
ATOM      3  N   UNL     1       9.279   9.711  19.245  0.00  0.00    +0.000 N 
ATOM      4  H   UNL     1       9.967   8.962  19.368  0.00  0.00    +0.000 HD
ENDROOT
BRANCH   3   5
ATOM      5  C   UNL     1       9.527  10.874  20.034  0.00  0.00    +0.000 A 
ATOM      6  C   UNL     1       8.883  11.085  21.264  0.00  0.00    +0.000 A 
ATOM      7  C   UNL     1       9.068  12.267  21.976  0.00  0.00    +0.000 A 
ATOM      8  C   UNL     1       9.923  13.243  21.480  0.00  0.00    +0.000 A 
ATOM      9  C   UNL     1      10.629  13.021  20.289  0.00  0.00    +0.000 A 
ATOM     10  C   UNL     1      11.521  13.985  19.806  0.00  0.00    +0.000 A 
ATOM     11  C   UNL     1      12.230  13.746  18.639  0.00  0.00    +0.000 A 
ATOM     12  C   UNL     1      12.016  12.545  17.989  0.00  0.00    +0.000 A 
ATOM     13  N   UNL     1      11.149  11.596  18.413  0.00  0.00    +0.000 NA
ATOM     14  C   UNL     1      10.453  11.820  19.552  0.00  0.00    +0.000 A 
ENDBRANCH   3   5
BRANCH   2  15
ATOM     15  C   UNL     1       8.237   8.209  17.599  0.00  0.00    +0.000 C 
BRANCH  15  16
ATOM     16  N   UNL     1       6.881   7.694  17.698  0.00  0.00    +0.000 N 
ATOM     17  C   UNL     1       6.624   6.381  17.390  0.00  0.00    +0.000 C 
ATOM     18  O   UNL     1       7.499   5.614  16.990  0.00  0.00    +0.000 OA
ATOM     19  H   UNL     1       6.174   8.291  18.109  0.00  0.00    +0.000 HD
BRANCH  17  20
ATOM     20  C   UNL     1       5.238   5.889  17.587  0.00  0.00    +0.000 A 
ATOM     21  C   UNL     1       4.160   6.780  17.779  0.00  0.00    +0.000 A 
ATOM     22  C   UNL     1       2.856   6.294  17.923  0.00  0.00    +0.000 A 
ATOM     23  C   UNL     1       2.671   4.929  17.881  0.00  0.00    +0.000 A 
ATOM     24  C   UNL     1       3.719   4.059  17.691  0.00  0.00    +0.000 A 
ATOM     25  C   UNL     1       5.013   4.505  17.531  0.00  0.00    +0.000 A 
ATOM     26  O   UNL     1       3.316   2.759  17.680  0.00  0.00    +0.000 OA
ATOM     27  C   UNL     1       1.906   2.909  17.947  0.00  0.00    +0.000 C 
ATOM     28  O   UNL     1       1.480   4.286  18.009  0.00  0.00    +0.000 OA
ENDBRANCH  17  20
ENDBRANCH  15  16
ENDBRANCH   2  15
TORSDOF 4
ENDMDL
MODEL 8
REMARK VINA RESULT:      -7.8      6.272      9.029
REMARK  Name = 
REMARK  4 active torsions:
REMARK  status: ('A' for Active; 'I' for Inactive)
REMARK    1  A    between atoms: C_2  and  C_3
REMARK    2  A    between atoms: C_3  and  N_4
REMARK    3  A    between atoms: C_5  and  C_7
REMARK    4  A    between atoms: N_16  and  C_17
REMARK                            x       y       z     vdW  Elec       q    Type
REMARK                         _______ _______ _______ _____ _____    ______ ____
ROOT
ATOM      1  O   UNL     1       1.955   8.008  19.617  0.00  0.00    +0.000 OA
ATOM      2  C   UNL     1       2.272   8.379  18.487  0.00  0.00    +0.000 C 
ATOM      3  N   UNL     1       3.034   7.655  17.587  0.00  0.00    +0.000 N 
ATOM      4  H   UNL     1       3.518   8.166  16.841  0.00  0.00    +0.000 HD
ENDROOT
BRANCH   3   5
ATOM      5  C   UNL     1       3.449   6.298  17.736  0.00  0.00    +0.000 A 
ATOM      6  C   UNL     1       2.524   5.256  17.911  0.00  0.00    +0.000 A 
ATOM      7  C   UNL     1       2.950   3.952  18.146  0.00  0.00    +0.000 A 
ATOM      8  C   UNL     1       4.309   3.667  18.181  0.00  0.00    +0.000 A 
ATOM      9  C   UNL     1       5.247   4.681  17.938  0.00  0.00    +0.000 A 
ATOM     10  C   UNL     1       6.616   4.390  17.934  0.00  0.00    +0.000 A 
ATOM     11  C   UNL     1       7.534   5.396  17.672  0.00  0.00    +0.000 A 
ATOM     12  C   UNL     1       7.046   6.666  17.427  0.00  0.00    +0.000 A 
ATOM     13  N   UNL     1       5.732   6.991  17.441  0.00  0.00    +0.000 NA
ATOM     14  C   UNL     1       4.829   6.015  17.695  0.00  0.00    +0.000 A 
ENDBRANCH   3   5
BRANCH   2  15
ATOM     15  C   UNL     1       1.870   9.780  18.011  0.00  0.00    +0.000 C 
BRANCH  15  16
ATOM     16  N   UNL     1       0.445   9.908  17.748  0.00  0.00    +0.000 N 
ATOM     17  C   UNL     1      -0.316  10.764  18.504  0.00  0.00    +0.000 C 
ATOM     18  O   UNL     1       0.152  11.413  19.437  0.00  0.00    +0.000 OA
ATOM     19  H   UNL     1       0.070   9.445  16.929  0.00  0.00    +0.000 HD
BRANCH  17  20
ATOM     20  C   UNL     1      -1.747  10.913  18.138  0.00  0.00    +0.000 A 
ATOM     21  C   UNL     1      -2.286  10.279  16.999  0.00  0.00    +0.000 A 
ATOM     22  C   UNL     1      -3.646  10.403  16.696  0.00  0.00    +0.000 A 
ATOM     23  C   UNL     1      -4.425  11.168  17.538  0.00  0.00    +0.000 A 
ATOM     24  C   UNL     1      -3.902  11.785  18.651  0.00  0.00    +0.000 A 
ATOM     25  C   UNL     1      -2.570  11.671  18.986  0.00  0.00    +0.000 A 
ATOM     26  O   UNL     1      -4.841  12.486  19.343  0.00  0.00    +0.000 OA
ATOM     27  C   UNL     1      -5.998  12.290  18.503  0.00  0.00    +0.000 C 
ATOM     28  O   UNL     1      -5.756  11.400  17.394  0.00  0.00    +0.000 OA
ENDBRANCH  17  20
ENDBRANCH  15  16
ENDBRANCH   2  15
TORSDOF 4
ENDMDL
MODEL 9
REMARK VINA RESULT:      -7.8      5.558      9.179
REMARK  Name = 
REMARK  4 active torsions:
REMARK  status: ('A' for Active; 'I' for Inactive)
REMARK    1  A    between atoms: C_2  and  C_3
REMARK    2  A    between atoms: C_3  and  N_4
REMARK    3  A    between atoms: C_5  and  C_7
REMARK    4  A    between atoms: N_16  and  C_17
REMARK                            x       y       z     vdW  Elec       q    Type
REMARK                         _______ _______ _______ _____ _____    ______ ____
ROOT
ATOM      1  O   UNL     1      -0.520   8.746  21.460  0.00  0.00    +0.000 OA
ATOM      2  C   UNL     1       0.333   9.320  20.781  0.00  0.00    +0.000 C 
ATOM      3  N   UNL     1       0.098  10.380  19.924  0.00  0.00    +0.000 N 
ATOM      4  H   UNL     1       0.775  10.554  19.174  0.00  0.00    +0.000 HD
ENDROOT
BRANCH   3   5
ATOM      5  C   UNL     1      -1.125  11.102  19.793  0.00  0.00    +0.000 A 
ATOM      6  C   UNL     1      -1.561  12.005  20.776  0.00  0.00    +0.000 A 
ATOM      7  C   UNL     1      -2.800  12.632  20.676  0.00  0.00    +0.000 A 
ATOM      8  C   UNL     1      -3.608  12.384  19.574  0.00  0.00    +0.000 A 
ATOM      9  C   UNL     1      -3.161  11.541  18.547  0.00  0.00    +0.000 A 
ATOM     10  C   UNL     1      -3.956  11.320  17.417  0.00  0.00    +0.000 A 
ATOM     11  C   UNL     1      -3.494  10.501  16.398  0.00  0.00    +0.000 A 
ATOM     12  C   UNL     1      -2.248   9.924  16.549  0.00  0.00    +0.000 A 
ATOM     13  N   UNL     1      -1.457  10.098  17.634  0.00  0.00    +0.000 NA
ATOM     14  C   UNL     1      -1.899  10.896  18.634  0.00  0.00    +0.000 A 
ENDBRANCH   3   5
BRANCH   2  15
ATOM     15  C   UNL     1       1.780   8.813  20.801  0.00  0.00    +0.000 C 
BRANCH  15  16
ATOM     16  N   UNL     1       1.901   7.411  20.434  0.00  0.00    +0.000 N 
ATOM     17  C   UNL     1       2.426   7.067  19.214  0.00  0.00    +0.000 C 
ATOM     18  O   UNL     1       2.772   7.906  18.383  0.00  0.00    +0.000 OA
ATOM     19  H   UNL     1       1.702   6.716  21.141  0.00  0.00    +0.000 HD
BRANCH  17  20
ATOM     20  C   UNL     1       2.600   5.621  18.925  0.00  0.00    +0.000 A 
ATOM     21  C   UNL     1       1.818   4.966  17.950  0.00  0.00    +0.000 A 
ATOM     22  C   UNL     1       2.027   3.612  17.668  0.00  0.00    +0.000 A 
ATOM     23  C   UNL     1       3.005   2.951  18.377  0.00  0.00    +0.000 A 
ATOM     24  C   UNL     1       3.770   3.588  19.327  0.00  0.00    +0.000 A 
ATOM     25  C   UNL     1       3.601   4.924  19.618  0.00  0.00    +0.000 A 
ATOM     26  O   UNL     1       4.677   2.754  19.906  0.00  0.00    +0.000 OA
ATOM     27  C   UNL     1       4.351   1.507  19.257  0.00  0.00    +0.000 C 
ATOM     28  O   UNL     1       3.337   1.640  18.239  0.00  0.00    +0.000 OA
ENDBRANCH  17  20
ENDBRANCH  15  16
ENDBRANCH   2  15
TORSDOF 4
ENDMDL
