MODEL 1
REMARK VINA RESULT:      -8.7      0.000      0.000
REMARK  Name = 
REMARK  7 active torsions:
REMARK  status: ('A' for Active; 'I' for Inactive)
REMARK    1  A    between atoms: C_1  and  C_2
REMARK    2  A    between atoms: C_4  and  N_5
REMARK    3  A    between atoms: C_12  and  N_13
REMARK    4  A    between atoms: N_16  and  C_17
REMARK    5  A    between atoms: N_20  and  C_21
REMARK    6  A    between atoms: C_21  and  C_22
REMARK    7  A    between atoms: C_22  and  N_23
REMARK                            x       y       z     vdW  Elec       q    Type
REMARK                         _______ _______ _______ _____ _____    ______ ____
ROOT
ATOM      1  N   UNL     1       9.373   9.476  19.342  0.00  0.00    +0.000 N 
ATOM      2  C   UNL     1       8.496   8.684  18.610  0.00  0.00    +0.000 C 
ATOM      3  O   UNL     1       7.753   9.131  17.740  0.00  0.00    +0.000 OA
ATOM      4  N   UNL     1       8.466   7.350  18.963  0.00  0.00    +0.000 N 
ATOM      5  H   UNL     1       9.902   9.055  20.086  0.00  0.00    +0.000 HD
ATOM      6  H   UNL     1       8.716   7.086  19.905  0.00  0.00    +0.000 HD
ENDROOT
BRANCH   1  13
ATOM      7  C   UNL     1       8.892  11.495  21.594  0.00  0.00    +0.000 C 
ATOM      8  C   UNL     1       9.300  11.819  20.187  0.00  0.00    +0.000 A 
ATOM      9  C   UNL     1       9.451  13.194  19.911  0.00  0.00    +0.000 A 
ATOM     10  C   UNL     1       9.732  13.665  18.637  0.00  0.00    +0.000 A 
ATOM     11  C   UNL     1       9.907  12.760  17.597  0.00  0.00    +0.000 A 
ATOM     12  C   UNL     1       9.813  11.397  17.872  0.00  0.00    +0.000 A 
ATOM     13  C   UNL     1       9.491  10.887  19.149  0.00  0.00    +0.000 A 
BRANCH  10  14
ATOM     14  N   UNL     1       9.886  15.059  18.415  0.00  0.00    +0.000 N 
ATOM     15  C   UNL     1       8.926  15.966  18.012  0.00  0.00    +0.000 A 
ATOM     16  C   UNL     1       9.568  17.166  17.824  0.00  0.00    +0.000 A 
ATOM     17  C   UNL     1      10.903  16.917  18.161  0.00  0.00    +0.000 A 
ATOM     18  N   UNL     1      11.096  15.656  18.557  0.00  0.00    +0.000 NA
ENDBRANCH  10  14
ENDBRANCH   1  13
BRANCH   4  19
ATOM     19  C   UNL     1       7.600   6.494  18.278  0.00  0.00    +0.000 A 
ATOM     20  C   UNL     1       7.352   6.387  16.883  0.00  0.00    +0.000 A 
ATOM     21  N   UNL     1       6.362   5.541  16.600  0.00  0.00    +0.000 NA
ATOM     22  N   UNL     1       5.961   5.122  17.809  0.00  0.00    +0.000 N 
ATOM     23  C   UNL     1       6.723   5.597  18.844  0.00  0.00    +0.000 A 
BRANCH  22  24
ATOM     24  C   UNL     1       4.762   4.312  17.885  0.00  0.00    +0.000 C 
BRANCH  24  25
ATOM     25  C   UNL     1       3.508   5.152  17.629  0.00  0.00    +0.000 C 
BRANCH  25  26
ATOM     26  N   UNL     1       2.312   4.666  18.351  0.00  0.00    +0.000 NA
ATOM     27  C   UNL     1       2.124   3.223  18.116  0.00  0.00    +0.000 C 
ATOM     28  C   UNL     1       0.889   2.690  18.831  0.00  0.00    +0.000 C 
ATOM     29  C   UNL     1       0.963   2.962  20.324  0.00  0.00    +0.000 C 
ATOM     30  C   UNL     1       1.237   4.439  20.584  0.00  0.00    +0.000 C 
ATOM     31  C   UNL     1       2.456   4.930  19.797  0.00  0.00    +0.000 C 
ENDBRANCH  25  26
ENDBRANCH  24  25
ENDBRANCH  22  24
ENDBRANCH   4  19
TORSDOF 6
ENDMDL
MODEL 2
REMARK VINA RESULT:      -8.5      0.893      1.040
REMARK  Name = 
REMARK  7 active torsions:
REMARK  status: ('A' for Active; 'I' for Inactive)
REMARK    1  A    between atoms: C_1  and  C_2
REMARK    2  A    between atoms: C_4  and  N_5
REMARK    3  A    between atoms: C_12  and  N_13
REMARK    4  A    between atoms: N_16  and  C_17
REMARK    5  A    between atoms: N_20  and  C_21
REMARK    6  A    between atoms: C_21  and  C_22
REMARK    7  A    between atoms: C_22  and  N_23
REMARK                            x       y       z     vdW  Elec       q    Type
REMARK                         _______ _______ _______ _____ _____    ______ ____
ROOT
ATOM      1  N   UNL     1       9.333   9.369  19.277  0.00  0.00    +0.000 N 
ATOM      2  C   UNL     1       8.415   8.669  18.505  0.00  0.00    +0.000 C 
ATOM      3  O   UNL     1       7.701   9.202  17.659  0.00  0.00    +0.000 OA
ATOM      4  N   UNL     1       8.308   7.322  18.787  0.00  0.00    +0.000 N 
ATOM      5  H   UNL     1       9.835   8.879  19.998  0.00  0.00    +0.000 HD
ATOM      6  H   UNL     1       8.539   6.994  19.713  0.00  0.00    +0.000 HD
ENDROOT
BRANCH   1  13
ATOM      7  C   UNL     1       8.847  11.304  21.602  0.00  0.00    +0.000 C 
ATOM      8  C   UNL     1       9.339  11.671  20.232  0.00  0.00    +0.000 A 
ATOM      9  C   UNL     1       9.573  13.047  20.032  0.00  0.00    +0.000 A 
ATOM     10  C   UNL     1       9.939  13.561  18.797  0.00  0.00    +0.000 A 
ATOM     11  C   UNL     1      10.117  12.697  17.722  0.00  0.00    +0.000 A 
ATOM     12  C   UNL     1       9.941  11.330  17.925  0.00  0.00    +0.000 A 
ATOM     13  C   UNL     1       9.532  10.779  19.160  0.00  0.00    +0.000 A 
BRANCH  10  14
ATOM     14  N   UNL     1      10.175  14.954  18.650  0.00  0.00    +0.000 N 
ATOM     15  C   UNL     1       9.837  15.765  17.585  0.00  0.00    +0.000 A 
ATOM     16  C   UNL     1      10.367  17.005  17.846  0.00  0.00    +0.000 A 
ATOM     17  C   UNL     1      10.983  16.877  19.096  0.00  0.00    +0.000 A 
ATOM     18  N   UNL     1      10.837  15.651  19.607  0.00  0.00    +0.000 NA
ENDBRANCH  10  14
ENDBRANCH   1  13
BRANCH   4  19
ATOM     19  C   UNL     1       7.396   6.554  18.056  0.00  0.00    +0.000 A 
ATOM     20  C   UNL     1       7.352   6.289  16.661  0.00  0.00    +0.000 A 
ATOM     21  N   UNL     1       6.261   5.614  16.300  0.00  0.00    +0.000 NA
ATOM     22  N   UNL     1       5.596   5.465  17.455  0.00  0.00    +0.000 N 
ATOM     23  C   UNL     1       6.271   5.935  18.551  0.00  0.00    +0.000 A 
BRANCH  22  24
ATOM     24  C   UNL     1       4.255   4.919  17.402  0.00  0.00    +0.000 C 
BRANCH  24  25
ATOM     25  C   UNL     1       4.147   3.630  18.220  0.00  0.00    +0.000 C 
BRANCH  25  26
ATOM     26  N   UNL     1       3.308   3.765  19.430  0.00  0.00    +0.000 NA
ATOM     27  C   UNL     1       1.889   3.910  19.055  0.00  0.00    +0.000 C 
ATOM     28  C   UNL     1       0.995   4.069  20.278  0.00  0.00    +0.000 C 
ATOM     29  C   UNL     1       1.157   2.896  21.229  0.00  0.00    +0.000 C 
ATOM     30  C   UNL     1       2.628   2.682  21.565  0.00  0.00    +0.000 C 
ATOM     31  C   UNL     1       3.485   2.584  20.299  0.00  0.00    +0.000 C 
ENDBRANCH  25  26
ENDBRANCH  24  25
ENDBRANCH  22  24
ENDBRANCH   4  19
TORSDOF 6
ENDMDL
MODEL 3
REMARK VINA RESULT:      -8.3      6.390      9.346
REMARK  Name = 
REMARK  7 active torsions:
REMARK  status: ('A' for Active; 'I' for Inactive)
REMARK    1  A    between atoms: C_1  and  C_2
REMARK    2  A    between atoms: C_4  and  N_5
REMARK    3  A    between atoms: C_12  and  N_13
REMARK    4  A    between atoms: N_16  and  C_17
REMARK    5  A    between atoms: N_20  and  C_21
REMARK    6  A    between atoms: C_21  and  C_22
REMARK    7  A    between atoms: C_22  and  N_23
REMARK                            x       y       z     vdW  Elec       q    Type
REMARK                         _______ _______ _______ _____ _____    ______ ____
ROOT
ATOM      1  N   UNL     1       3.275   6.189  19.687  0.00  0.00    +0.000 N 
ATOM      2  C   UNL     1       2.383   7.251  19.773  0.00  0.00    +0.000 C 
ATOM      3  O   UNL     1       2.076   7.951  18.812  0.00  0.00    +0.000 OA
ATOM      4  N   UNL     1       1.897   7.517  21.037  0.00  0.00    +0.000 N 
ATOM      5  H   UNL     1       3.533   5.703  20.528  0.00  0.00    +0.000 HD
ATOM      6  H   UNL     1       2.452   7.260  21.841  0.00  0.00    +0.000 HD
ENDROOT
BRANCH   1  13
ATOM      7  C   UNL     1       2.448   3.715  18.083  0.00  0.00    +0.000 C 
ATOM      8  C   UNL     1       3.525   4.692  17.711  0.00  0.00    +0.000 A 
ATOM      9  C   UNL     1       4.207   4.400  16.511  0.00  0.00    +0.000 A 
ATOM     10  C   UNL     1       5.289   5.151  16.077  0.00  0.00    +0.000 A 
ATOM     11  C   UNL     1       5.702   6.249  16.821  0.00  0.00    +0.000 A 
ATOM     12  C   UNL     1       5.000   6.577  17.979  0.00  0.00    +0.000 A 
ATOM     13  C   UNL     1       3.918   5.811  18.468  0.00  0.00    +0.000 A 
BRANCH  10  14
ATOM     14  N   UNL     1       5.934   4.822  14.855  0.00  0.00    +0.000 N 
ATOM     15  C   UNL     1       5.485   3.981  13.857  0.00  0.00    +0.000 A 
ATOM     16  C   UNL     1       6.496   3.888  12.931  0.00  0.00    +0.000 A 
ATOM     17  C   UNL     1       7.509   4.721  13.418  0.00  0.00    +0.000 A 
ATOM     18  N   UNL     1       7.162   5.320  14.562  0.00  0.00    +0.000 NA
ENDBRANCH  10  14
ENDBRANCH   1  13
BRANCH   4  19
ATOM     19  C   UNL     1       1.003   8.578  21.204  0.00  0.00    +0.000 A 
ATOM     20  C   UNL     1      -0.340   8.564  21.667  0.00  0.00    +0.000 A 
ATOM     21  N   UNL     1      -0.929   9.756  21.574  0.00  0.00    +0.000 NA
ATOM     22  N   UNL     1       0.025  10.528  21.033  0.00  0.00    +0.000 N 
ATOM     23  C   UNL     1       1.228   9.894  20.868  0.00  0.00    +0.000 A 
BRANCH  22  24
ATOM     24  C   UNL     1      -0.338  11.870  20.623  0.00  0.00    +0.000 C 
BRANCH  24  25
ATOM     25  C   UNL     1      -0.087  12.081  19.128  0.00  0.00    +0.000 C 
BRANCH  25  26
ATOM     26  N   UNL     1      -1.237  11.708  18.276  0.00  0.00    +0.000 NA
ATOM     27  C   UNL     1      -1.103  10.312  17.819  0.00  0.00    +0.000 C 
ATOM     28  C   UNL     1      -2.263   9.899  16.922  0.00  0.00    +0.000 C 
ATOM     29  C   UNL     1      -3.594  10.081  17.632  0.00  0.00    +0.000 C 
ATOM     30  C   UNL     1      -3.715  11.498  18.181  0.00  0.00    +0.000 C 
ATOM     31  C   UNL     1      -2.496  11.877  19.028  0.00  0.00    +0.000 C 
ENDBRANCH  25  26
ENDBRANCH  24  25
ENDBRANCH  22  24
ENDBRANCH   4  19
TORSDOF 6
ENDMDL
MODEL 4
REMARK VINA RESULT:      -8.0      6.544      9.533
REMARK  Name = 
REMARK  7 active torsions:
REMARK  status: ('A' for Active; 'I' for Inactive)
REMARK    1  A    between atoms: C_1  and  C_2
REMARK    2  A    between atoms: C_4  and  N_5
REMARK    3  A    between atoms: C_12  and  N_13
REMARK    4  A    between atoms: N_16  and  C_17
REMARK    5  A    between atoms: N_20  and  C_21
REMARK    6  A    between atoms: C_21  and  C_22
REMARK    7  A    between atoms: C_22  and  N_23
REMARK                            x       y       z     vdW  Elec       q    Type
REMARK                         _______ _______ _______ _____ _____    ______ ____
ROOT
ATOM      1  N   UNL     1       3.556   5.943  19.258  0.00  0.00    +0.000 N 
ATOM      2  C   UNL     1       2.670   7.005  19.380  0.00  0.00    +0.000 C 
ATOM      3  O   UNL     1       2.355   7.730  18.440  0.00  0.00    +0.000 OA
ATOM      4  N   UNL     1       2.198   7.240  20.656  0.00  0.00    +0.000 N 
ATOM      5  H   UNL     1       3.822   5.434  20.084  0.00  0.00    +0.000 HD
ATOM      6  H   UNL     1       2.760   6.962  21.447  0.00  0.00    +0.000 HD
ENDROOT
BRANCH   1  13
ATOM      7  C   UNL     1       3.127   3.233  17.897  0.00  0.00    +0.000 C 
ATOM      8  C   UNL     1       3.971   4.361  17.378  0.00  0.00    +0.000 A 
ATOM      9  C   UNL     1       4.622   4.104  16.153  0.00  0.00    +0.000 A 
ATOM     10  C   UNL     1       5.511   5.006  15.588  0.00  0.00    +0.000 A 
ATOM     11  C   UNL     1       5.749   6.220  16.221  0.00  0.00    +0.000 A 
ATOM     12  C   UNL     1       5.068   6.505  17.402  0.00  0.00    +0.000 A 
ATOM     13  C   UNL     1       4.186   5.593  18.024  0.00  0.00    +0.000 A 
BRANCH  10  14
ATOM     14  N   UNL     1       6.132   4.705  14.346  0.00  0.00    +0.000 N 
ATOM     15  C   UNL     1       5.729   3.790  13.395  0.00  0.00    +0.000 A 
ATOM     16  C   UNL     1       6.702   3.770  12.425  0.00  0.00    +0.000 A 
ATOM     17  C   UNL     1       7.644   4.718  12.841  0.00  0.00    +0.000 A 
ATOM     18  N   UNL     1       7.287   5.316  13.982  0.00  0.00    +0.000 NA
ENDBRANCH  10  14
ENDBRANCH   1  13
BRANCH   4  19
ATOM     19  C   UNL     1       1.310   8.301  20.858  0.00  0.00    +0.000 A 
ATOM     20  C   UNL     1       0.470   8.575  21.971  0.00  0.00    +0.000 A 
ATOM     21  N   UNL     1      -0.340   9.613  21.760  0.00  0.00    +0.000 NA
ATOM     22  N   UNL     1      -0.036   9.990  20.509  0.00  0.00    +0.000 N 
ATOM     23  C   UNL     1       1.004   9.292  19.954  0.00  0.00    +0.000 A 
BRANCH  22  24
ATOM     24  C   UNL     1      -0.866  11.000  19.883  0.00  0.00    +0.000 C 
BRANCH  24  25
ATOM     25  C   UNL     1      -1.023  10.737  18.383  0.00  0.00    +0.000 C 
BRANCH  25  26
ATOM     26  N   UNL     1      -2.432  10.663  17.939  0.00  0.00    +0.000 NA
ATOM     27  C   UNL     1      -3.249  11.656  18.661  0.00  0.00    +0.000 C 
ATOM     28  C   UNL     1      -4.712  11.596  18.241  0.00  0.00    +0.000 C 
ATOM     29  C   UNL     1      -4.859  11.802  16.744  0.00  0.00    +0.000 C 
ATOM     30  C   UNL     1      -3.959  10.835  15.982  0.00  0.00    +0.000 C 
ATOM     31  C   UNL     1      -2.513  10.900  16.484  0.00  0.00    +0.000 C 
ENDBRANCH  25  26
ENDBRANCH  24  25
ENDBRANCH  22  24
ENDBRANCH   4  19
TORSDOF 6
ENDMDL
MODEL 5
REMARK VINA RESULT:      -7.8      5.968      8.367
REMARK  Name = 
REMARK  7 active torsions:
REMARK  status: ('A' for Active; 'I' for Inactive)
REMARK    1  A    between atoms: C_1  and  C_2
REMARK    2  A    between atoms: C_4  and  N_5
REMARK    3  A    between atoms: C_12  and  N_13
REMARK    4  A    between atoms: N_16  and  C_17
REMARK    5  A    between atoms: N_20  and  C_21
REMARK    6  A    between atoms: C_21  and  C_22
REMARK    7  A    between atoms: C_22  and  N_23
REMARK                            x       y       z     vdW  Elec       q    Type
REMARK                         _______ _______ _______ _____ _____    ______ ____
ROOT
ATOM      1  N   UNL     1       1.398   9.798  17.840  0.00  0.00    +0.000 N 
ATOM      2  C   UNL     1       2.148   8.675  18.168  0.00  0.00    +0.000 C 
ATOM      3  O   UNL     1       2.078   8.115  19.258  0.00  0.00    +0.000 OA
ATOM      4  N   UNL     1       3.035   8.252  17.199  0.00  0.00    +0.000 N 
ATOM      5  H   UNL     1       1.557  10.247  16.954  0.00  0.00    +0.000 HD
ATOM      6  H   UNL     1       3.398   8.922  16.538  0.00  0.00    +0.000 HD
ENDROOT
BRANCH   1  13
ATOM      7  C   UNL     1      -1.610   9.938  17.279  0.00  0.00    +0.000 C 
ATOM      8  C   UNL     1      -0.913  10.449  18.507  0.00  0.00    +0.000 A 
ATOM      9  C   UNL     1      -1.755  11.057  19.461  0.00  0.00    +0.000 A 
ATOM     10  C   UNL     1      -1.257  11.663  20.605  0.00  0.00    +0.000 A 
ATOM     11  C   UNL     1       0.111  11.646  20.847  0.00  0.00    +0.000 A 
ATOM     12  C   UNL     1       0.945  11.000  19.937  0.00  0.00    +0.000 A 
ATOM     13  C   UNL     1       0.474  10.407  18.745  0.00  0.00    +0.000 A 
BRANCH  10  14
ATOM     14  N   UNL     1      -2.149  12.251  21.540  0.00  0.00    +0.000 N 
ATOM     15  C   UNL     1      -2.225  12.025  22.900  0.00  0.00    +0.000 A 
ATOM     16  C   UNL     1      -3.310  12.731  23.361  0.00  0.00    +0.000 A 
ATOM     17  C   UNL     1      -3.821  13.382  22.233  0.00  0.00    +0.000 A 
ATOM     18  N   UNL     1      -3.102  13.129  21.135  0.00  0.00    +0.000 NA
ENDBRANCH  10  14
ENDBRANCH   1  13
BRANCH   4  19
ATOM     19  C   UNL     1       3.832   7.134  17.462  0.00  0.00    +0.000 A 
ATOM     20  C   UNL     1       5.248   7.026  17.517  0.00  0.00    +0.000 A 
ATOM     21  N   UNL     1       5.662   5.769  17.670  0.00  0.00    +0.000 NA
ATOM     22  N   UNL     1       4.518   5.069  17.692  0.00  0.00    +0.000 N 
ATOM     23  C   UNL     1       3.390   5.845  17.655  0.00  0.00    +0.000 A 
BRANCH  22  24
ATOM     24  C   UNL     1       4.606   3.622  17.668  0.00  0.00    +0.000 C 
BRANCH  24  25
ATOM     25  C   UNL     1       4.622   3.045  19.086  0.00  0.00    +0.000 C 
BRANCH  25  26
ATOM     26  N   UNL     1       3.282   2.667  19.586  0.00  0.00    +0.000 NA
ATOM     27  C   UNL     1       2.785   3.681  20.533  0.00  0.00    +0.000 C 
ATOM     28  C   UNL     1       1.412   3.315  21.084  0.00  0.00    +0.000 C 
ATOM     29  C   UNL     1       0.407   3.127  19.961  0.00  0.00    +0.000 C 
ATOM     30  C   UNL     1       0.940   2.139  18.929  0.00  0.00    +0.000 C 
ATOM     31  C   UNL     1       2.344   2.528  18.454  0.00  0.00    +0.000 C 
ENDBRANCH  25  26
ENDBRANCH  24  25
ENDBRANCH  22  24
ENDBRANCH   4  19
TORSDOF 6
ENDMDL
MODEL 6
REMARK VINA RESULT:      -7.8      1.081      1.877
REMARK  Name = 
REMARK  7 active torsions:
REMARK  status: ('A' for Active; 'I' for Inactive)
REMARK    1  A    between atoms: C_1  and  C_2
REMARK    2  A    between atoms: C_4  and  N_5
REMARK    3  A    between atoms: C_12  and  N_13
REMARK    4  A    between atoms: N_16  and  C_17
REMARK    5  A    between atoms: N_20  and  C_21
REMARK    6  A    between atoms: C_21  and  C_22
REMARK    7  A    between atoms: C_22  and  N_23
REMARK                            x       y       z     vdW  Elec       q    Type
REMARK                         _______ _______ _______ _____ _____    ______ ____
ROOT
ATOM      1  N   UNL     1       9.603  10.483  19.376  0.00  0.00    +0.000 N 
ATOM      2  C   UNL     1       8.788   9.625  18.648  0.00  0.00    +0.000 C 
ATOM      3  O   UNL     1       8.034  10.007  17.757  0.00  0.00    +0.000 OA
ATOM      4  N   UNL     1       8.832   8.299  19.030  0.00  0.00    +0.000 N 
ATOM      5  H   UNL     1      10.144  10.110  20.137  0.00  0.00    +0.000 HD
ATOM      6  H   UNL     1       9.081   8.070  19.981  0.00  0.00    +0.000 HD
ENDROOT
BRANCH   1  13
ATOM      7  C   UNL     1      11.549  11.794  17.407  0.00  0.00    +0.000 C 
ATOM      8  C   UNL     1      10.511  12.501  18.230  0.00  0.00    +0.000 A 
ATOM      9  C   UNL     1      10.471  13.901  18.064  0.00  0.00    +0.000 A 
ATOM     10  C   UNL     1       9.635  14.709  18.820  0.00  0.00    +0.000 A 
ATOM     11  C   UNL     1       8.780  14.129  19.749  0.00  0.00    +0.000 A 
ATOM     12  C   UNL     1       8.775  12.742  19.881  0.00  0.00    +0.000 A 
ATOM     13  C   UNL     1       9.640  11.895  19.154  0.00  0.00    +0.000 A 
BRANCH  10  14
ATOM     14  N   UNL     1       9.623  16.113  18.606  0.00  0.00    +0.000 N 
ATOM     15  C   UNL     1       8.578  16.994  18.802  0.00  0.00    +0.000 A 
ATOM     16  C   UNL     1       9.003  18.221  18.354  0.00  0.00    +0.000 A 
ATOM     17  C   UNL     1      10.321  18.014  17.932  0.00  0.00    +0.000 A 
ATOM     18  N   UNL     1      10.717  16.750  18.117  0.00  0.00    +0.000 NA
ENDBRANCH  10  14
ENDBRANCH   1  13
BRANCH   4  19
ATOM     19  C   UNL     1       8.030   7.378  18.350  0.00  0.00    +0.000 A 
ATOM     20  C   UNL     1       7.306   7.533  17.138  0.00  0.00    +0.000 A 
ATOM     21  N   UNL     1       6.545   6.476  16.854  0.00  0.00    +0.000 NA
ATOM     22  N   UNL     1       6.764   5.654  17.891  0.00  0.00    +0.000 N 
ATOM     23  C   UNL     1       7.708   6.109  18.774  0.00  0.00    +0.000 A 
BRANCH  22  24
ATOM     24  C   UNL     1       5.946   4.462  17.998  0.00  0.00    +0.000 C 
BRANCH  24  25
ATOM     25  C   UNL     1       4.464   4.786  17.791  0.00  0.00    +0.000 C 
BRANCH  25  26
ATOM     26  N   UNL     1       3.592   4.292  18.878  0.00  0.00    +0.000 NA
ATOM     27  C   UNL     1       3.080   5.421  19.676  0.00  0.00    +0.000 C 
ATOM     28  C   UNL     1       2.190   4.947  20.819  0.00  0.00    +0.000 C 
ATOM     29  C   UNL     1       1.028   4.119  20.298  0.00  0.00    +0.000 C 
ATOM     30  C   UNL     1       1.535   2.993  19.404  0.00  0.00    +0.000 C 
ATOM     31  C   UNL     1       2.467   3.522  18.309  0.00  0.00    +0.000 C 
ENDBRANCH  25  26
ENDBRANCH  24  25
ENDBRANCH  22  24
ENDBRANCH   4  19
TORSDOF 6
ENDMDL
MODEL 7
REMARK VINA RESULT:      -7.7      5.669      9.757
REMARK  Name = 
REMARK  7 active torsions:
REMARK  status: ('A' for Active; 'I' for Inactive)
REMARK    1  A    between atoms: C_1  and  C_2
REMARK    2  A    between atoms: C_4  and  N_5
REMARK    3  A    between atoms: C_12  and  N_13
REMARK    4  A    between atoms: N_16  and  C_17
REMARK    5  A    between atoms: N_20  and  C_21
REMARK    6  A    between atoms: C_21  and  C_22
REMARK    7  A    between atoms: C_22  and  N_23
REMARK                            x       y       z     vdW  Elec       q    Type
REMARK                         _______ _______ _______ _____ _____    ______ ____
ROOT
ATOM      1  N   UNL     1       2.926   5.907  19.319  0.00  0.00    +0.000 N 
ATOM      2  C   UNL     1       2.404   7.171  19.564  0.00  0.00    +0.000 C 
ATOM      3  O   UNL     1       2.555   8.121  18.800  0.00  0.00    +0.000 OA
ATOM      4  N   UNL     1       1.743   7.317  20.767  0.00  0.00    +0.000 N 
ATOM      5  H   UNL     1       2.822   5.194  20.021  0.00  0.00    +0.000 HD
ATOM      6  H   UNL     1       1.992   6.718  21.540  0.00  0.00    +0.000 HD
ENDROOT
BRANCH   1  13
ATOM      7  C   UNL     1       2.988   3.101  18.093  0.00  0.00    +0.000 C 
ATOM      8  C   UNL     1       3.698   4.313  17.566  0.00  0.00    +0.000 A 
ATOM      9  C   UNL     1       4.468   4.095  16.404  0.00  0.00    +0.000 A 
ATOM     10  C   UNL     1       5.259   5.089  15.847  0.00  0.00    +0.000 A 
ATOM     11  C   UNL     1       5.275   6.354  16.421  0.00  0.00    +0.000 A 
ATOM     12  C   UNL     1       4.475   6.593  17.537  0.00  0.00    +0.000 A 
ATOM     13  C   UNL     1       3.688   5.593  18.151  0.00  0.00    +0.000 A 
BRANCH  10  14
ATOM     14  N   UNL     1       6.007   4.821  14.669  0.00  0.00    +0.000 N 
ATOM     15  C   UNL     1       5.688   3.961  13.637  0.00  0.00    +0.000 A 
ATOM     16  C   UNL     1       6.762   3.952  12.781  0.00  0.00    +0.000 A 
ATOM     17  C   UNL     1       7.677   4.851  13.341  0.00  0.00    +0.000 A 
ATOM     18  N   UNL     1       7.211   5.410  14.462  0.00  0.00    +0.000 NA
ENDBRANCH  10  14
ENDBRANCH   1  13
BRANCH   4  19
ATOM     19  C   UNL     1       1.201   8.565  21.088  0.00  0.00    +0.000 A 
ATOM     20  C   UNL     1       1.295   9.307  22.296  0.00  0.00    +0.000 A 
ATOM     21  N   UNL     1       0.541  10.406  22.284  0.00  0.00    +0.000 NA
ATOM     22  N   UNL     1      -0.051  10.359  21.081  0.00  0.00    +0.000 N 
ATOM     23  C   UNL     1       0.372   9.322  20.292  0.00  0.00    +0.000 A 
BRANCH  22  24
ATOM     24  C   UNL     1      -1.093  11.327  20.799  0.00  0.00    +0.000 C 
BRANCH  24  25
ATOM     25  C   UNL     1      -0.808  12.085  19.500  0.00  0.00    +0.000 C 
BRANCH  25  26
ATOM     26  N   UNL     1       0.389  12.950  19.569  0.00  0.00    +0.000 NA
ATOM     27  C   UNL     1       1.428  12.461  18.645  0.00  0.00    +0.000 C 
ATOM     28  C   UNL     1       2.685  13.320  18.703  0.00  0.00    +0.000 C 
ATOM     29  C   UNL     1       2.368  14.774  18.395  0.00  0.00    +0.000 C 
ATOM     30  C   UNL     1       1.239  15.273  19.289  0.00  0.00    +0.000 C 
ATOM     31  C   UNL     1       0.024  14.341  19.232  0.00  0.00    +0.000 C 
ENDBRANCH  25  26
ENDBRANCH  24  25
ENDBRANCH  22  24
ENDBRANCH   4  19
TORSDOF 6
ENDMDL
MODEL 8
REMARK VINA RESULT:      -7.7      1.113      1.527
REMARK  Name = 
REMARK  7 active torsions:
REMARK  status: ('A' for Active; 'I' for Inactive)
REMARK    1  A    between atoms: C_1  and  C_2
REMARK    2  A    between atoms: C_4  and  N_5
REMARK    3  A    between atoms: C_12  and  N_13
REMARK    4  A    between atoms: N_16  and  C_17
REMARK    5  A    between atoms: N_20  and  C_21
REMARK    6  A    between atoms: C_21  and  C_22
REMARK    7  A    between atoms: C_22  and  N_23
REMARK                            x       y       z     vdW  Elec       q    Type
REMARK                         _______ _______ _______ _____ _____    ______ ____
ROOT
ATOM      1  N   UNL     1       9.304   9.703  18.906  0.00  0.00    +0.000 N 
ATOM      2  C   UNL     1       8.369   8.893  18.275  0.00  0.00    +0.000 C 
ATOM      3  O   UNL     1       7.548   9.318  17.465  0.00  0.00    +0.000 OA
ATOM      4  N   UNL     1       8.376   7.568  18.660  0.00  0.00    +0.000 N 
ATOM      5  H   UNL     1       9.899   9.301  19.609  0.00  0.00    +0.000 HD
ATOM      6  H   UNL     1       8.710   7.325  19.581  0.00  0.00    +0.000 HD
ENDROOT
BRANCH   1  13
ATOM      7  C   UNL     1      11.528  11.431  20.109  0.00  0.00    +0.000 C 
ATOM      8  C   UNL     1      10.434  11.905  19.198  0.00  0.00    +0.000 A 
ATOM      9  C   UNL     1      10.458  13.284  18.903  0.00  0.00    +0.000 A 
ATOM     10  C   UNL     1       9.465  13.896  18.153  0.00  0.00    +0.000 A 
ATOM     11  C   UNL     1       8.425  13.130  17.641  0.00  0.00    +0.000 A 
ATOM     12  C   UNL     1       8.423  11.757  17.881  0.00  0.00    +0.000 A 
ATOM     13  C   UNL     1       9.398  11.110  18.672  0.00  0.00    +0.000 A 
BRANCH  10  14
ATOM     14  N   UNL     1       9.542  15.287  17.875  0.00  0.00    +0.000 N 
ATOM     15  C   UNL     1      10.530  15.962  17.187  0.00  0.00    +0.000 A 
ATOM     16  C   UNL     1      10.231  17.300  17.272  0.00  0.00    +0.000 A 
ATOM     17  C   UNL     1       9.036  17.356  17.997  0.00  0.00    +0.000 A 
ATOM     18  N   UNL     1       8.592  16.140  18.332  0.00  0.00    +0.000 NA
ENDBRANCH  10  14
ENDBRANCH   1  13
BRANCH   4  19
ATOM     19  C   UNL     1       7.455   6.694  18.075  0.00  0.00    +0.000 A 
ATOM     20  C   UNL     1       7.409   6.186  16.748  0.00  0.00    +0.000 A 
ATOM     21  N   UNL     1       6.309   5.472  16.509  0.00  0.00    +0.000 NA
ATOM     22  N   UNL     1       5.642   5.538  17.671  0.00  0.00    +0.000 N 
ATOM     23  C   UNL     1       6.322   6.186  18.668  0.00  0.00    +0.000 A 
BRANCH  22  24
ATOM     24  C   UNL     1       4.294   5.007  17.711  0.00  0.00    +0.000 C 
BRANCH  24  25
ATOM     25  C   UNL     1       4.299   3.477  17.704  0.00  0.00    +0.000 C 
BRANCH  25  26
ATOM     26  N   UNL     1       3.282   2.877  18.594  0.00  0.00    +0.000 NA
ATOM     27  C   UNL     1       3.442   3.383  19.969  0.00  0.00    +0.000 C 
ATOM     28  C   UNL     1       2.419   2.771  20.919  0.00  0.00    +0.000 C 
ATOM     29  C   UNL     1       1.003   3.034  20.437  0.00  0.00    +0.000 C 
ATOM     30  C   UNL     1       0.841   2.588  18.989  0.00  0.00    +0.000 C 
ATOM     31  C   UNL     1       1.928   3.190  18.092  0.00  0.00    +0.000 C 
ENDBRANCH  25  26
ENDBRANCH  24  25
ENDBRANCH  22  24
ENDBRANCH   4  19
TORSDOF 6
ENDMDL
MODEL 9
REMARK VINA RESULT:      -7.7      1.229      1.788
REMARK  Name = 
REMARK  7 active torsions:
REMARK  status: ('A' for Active; 'I' for Inactive)
REMARK    1  A    between atoms: C_1  and  C_2
REMARK    2  A    between atoms: C_4  and  N_5
REMARK    3  A    between atoms: C_12  and  N_13
REMARK    4  A    between atoms: N_16  and  C_17
REMARK    5  A    between atoms: N_20  and  C_21
REMARK    6  A    between atoms: C_21  and  C_22
REMARK    7  A    between atoms: C_22  and  N_23
REMARK                            x       y       z     vdW  Elec       q    Type
REMARK                         _______ _______ _______ _____ _____    ______ ____
ROOT
ATOM      1  N   UNL     1       9.536   9.992  19.662  0.00  0.00    +0.000 N 
ATOM      2  C   UNL     1       8.688   9.267  18.835  0.00  0.00    +0.000 C 
ATOM      3  O   UNL     1       7.919   9.793  18.033  0.00  0.00    +0.000 OA
ATOM      4  N   UNL     1       8.716   7.898  19.009  0.00  0.00    +0.000 N 
ATOM      5  H   UNL     1      10.088   9.499  20.343  0.00  0.00    +0.000 HD
ATOM      6  H   UNL     1       8.983   7.522  19.906  0.00  0.00    +0.000 HD
ENDROOT
BRANCH   1  13
ATOM      7  C   UNL     1      11.122  11.572  17.573  0.00  0.00    +0.000 C 
ATOM      8  C   UNL     1      10.297  12.153  18.684  0.00  0.00    +0.000 A 
ATOM      9  C   UNL     1      10.290  13.562  18.747  0.00  0.00    +0.000 A 
ATOM     10  C   UNL     1       9.653  14.251  19.769  0.00  0.00    +0.000 A 
ATOM     11  C   UNL     1       8.969  13.543  20.749  0.00  0.00    +0.000 A 
ATOM     12  C   UNL     1       8.926  12.153  20.663  0.00  0.00    +0.000 A 
ATOM     13  C   UNL     1       9.594  11.420  19.658  0.00  0.00    +0.000 A 
BRANCH  10  14
ATOM     14  N   UNL     1       9.665  15.672  19.780  0.00  0.00    +0.000 N 
ATOM     15  C   UNL     1      10.101  16.525  18.786  0.00  0.00    +0.000 A 
ATOM     16  C   UNL     1      10.024  17.799  19.295  0.00  0.00    +0.000 A 
ATOM     17  C   UNL     1       9.505  17.641  20.585  0.00  0.00    +0.000 A 
ATOM     18  N   UNL     1       9.249  16.361  20.872  0.00  0.00    +0.000 NA
ENDBRANCH  10  14
ENDBRANCH   1  13
BRANCH   4  19
ATOM     19  C   UNL     1       7.881   7.104  18.218  0.00  0.00    +0.000 A 
ATOM     20  C   UNL     1       7.491   7.274  16.862  0.00  0.00    +0.000 A 
ATOM     21  N   UNL     1       6.578   6.384  16.474  0.00  0.00    +0.000 NA
ATOM     22  N   UNL     1       6.366   5.658  17.582  0.00  0.00    +0.000 N 
ATOM     23  C   UNL     1       7.181   5.993  18.631  0.00  0.00    +0.000 A 
BRANCH  22  24
ATOM     24  C   UNL     1       5.283   4.695  17.567  0.00  0.00    +0.000 C 
BRANCH  24  25
ATOM     25  C   UNL     1       4.911   4.257  18.985  0.00  0.00    +0.000 C 
BRANCH  25  26
ATOM     26  N   UNL     1       3.465   4.001  19.166  0.00  0.00    +0.000 NA
ATOM     27  C   UNL     1       3.235   2.586  19.507  0.00  0.00    +0.000 C 
ATOM     28  C   UNL     1       1.753   2.281  19.683  0.00  0.00    +0.000 C 
ATOM     29  C   UNL     1       1.135   3.172  20.747  0.00  0.00    +0.000 C 
ATOM     30  C   UNL     1       1.433   4.638  20.453  0.00  0.00    +0.000 C 
ATOM     31  C   UNL     1       2.930   4.873  20.231  0.00  0.00    +0.000 C 
ENDBRANCH  25  26
ENDBRANCH  24  25
ENDBRANCH  22  24
ENDBRANCH   4  19
TORSDOF 6
ENDMDL
