MODEL 1
REMARK VINA RESULT:      -8.4      0.000      0.000
REMARK  Name = 
REMARK  7 active torsions:
REMARK  status: ('A' for Active; 'I' for Inactive)
REMARK    1  A    between atoms: C_1  and  C_2
REMARK    2  A    between atoms: C_7  and  C_9
REMARK    3  A    between atoms: C_13  and  S_14
REMARK    4  A    between atoms: S_14  and  N_17
REMARK    5  A    between atoms: N_17  and  C_18
REMARK    6  A    between atoms: N_17  and  C_25
REMARK    7  A    between atoms: C_18  and  C_19
REMARK                            x       y       z     vdW  Elec       q    Type
REMARK                         _______ _______ _______ _____ _____    ______ ____
ROOT
ATOM      1  S   UNL     1       0.437  12.885  21.275  0.00  0.00    +0.000 S 
ATOM      2  O   UNL     1      -0.579  13.495  22.109  0.00  0.00    +0.000 OA
ATOM      3  O   UNL     1       1.846  13.130  21.506  0.00  0.00    +0.000 OA
ENDROOT
BRANCH   1   8
ATOM      4  C   UNL     1       0.984   8.890  20.905  0.00  0.00    +0.000 A 
ATOM      5  C   UNL     1       0.226   8.381  21.972  0.00  0.00    +0.000 A 
ATOM      6  C   UNL     1      -0.572   9.224  22.746  0.00  0.00    +0.000 A 
ATOM      7  C   UNL     1      -0.592  10.595  22.495  0.00  0.00    +0.000 A 
ATOM      8  C   UNL     1       0.235  11.123  21.505  0.00  0.00    +0.000 A 
ATOM      9  C   UNL     1       0.986  10.271  20.671  0.00  0.00    +0.000 A 
BRANCH   4  16
ATOM     10  C   UNL     1       3.446   2.050  19.020  0.00  0.00    +0.000 C 
ATOM     11  C   UNL     1       3.247   3.506  19.222  0.00  0.00    +0.000 A 
ATOM     12  N   UNL     1       3.634   4.441  18.380  0.00  0.00    +0.000 NA
ATOM     13  N   UNL     1       3.218   5.697  18.777  0.00  0.00    +0.000 NA
ATOM     14  C   UNL     1       2.551   5.660  19.903  0.00  0.00    +0.000 A 
ATOM     15  N   UNL     1       1.925   6.655  20.612  0.00  0.00    +0.000 N 
ATOM     16  C   UNL     1       1.742   7.907  20.067  0.00  0.00    +0.000 C 
ATOM     17  O   UNL     1       2.097   8.266  18.949  0.00  0.00    +0.000 OA
ATOM     18  S   UNL     1       2.427   4.106  20.610  0.00  0.00    +0.000 S 
ATOM     19  H   UNL     1       1.487   6.383  21.476  0.00  0.00    +0.000 HD
ENDBRANCH   4  16
ENDBRANCH   1   8
BRANCH   1  20
ATOM     20  N   UNL     1       0.061  13.199  19.639  0.00  0.00    +0.000 N 
BRANCH  20  21
ATOM     21  C   UNL     1       0.962  14.138  19.002  0.00  0.00    +0.000 A 
ATOM     22  C   UNL     1       0.604  15.488  19.107  0.00  0.00    +0.000 A 
ATOM     23  C   UNL     1       1.440  16.487  18.611  0.00  0.00    +0.000 A 
ATOM     24  C   UNL     1       2.643  16.146  17.997  0.00  0.00    +0.000 A 
ATOM     25  C   UNL     1       2.985  14.803  17.836  0.00  0.00    +0.000 A 
ATOM     26  C   UNL     1       2.138  13.795  18.312  0.00  0.00    +0.000 A 
ATOM     27 CL   UNL     1       2.617  12.163  18.011  0.00  0.00    +0.000 Cl
ENDBRANCH  20  21
BRANCH  20  28
ATOM     28  C   UNL     1      -1.384  13.298  19.263  0.00  0.00    +0.000 C 
BRANCH  28  29
ATOM     29  C   UNL     1      -1.923  12.045  18.586  0.00  0.00    +0.000 A 
ATOM     30  C   UNL     1      -3.307  11.808  18.537  0.00  0.00    +0.000 A 
ATOM     31  C   UNL     1      -3.813  10.648  17.947  0.00  0.00    +0.000 A 
ATOM     32  C   UNL     1      -2.946   9.709  17.392  0.00  0.00    +0.000 A 
ATOM     33  C   UNL     1      -1.575   9.946  17.400  0.00  0.00    +0.000 A 
ATOM     34  C   UNL     1      -1.069  11.112  17.976  0.00  0.00    +0.000 A 
ENDBRANCH  28  29
ENDBRANCH  20  28
ENDBRANCH   1  20
TORSDOF 6
ENDMDL
MODEL 2
REMARK VINA RESULT:      -7.8      2.058      2.464
REMARK  Name = 
REMARK  7 active torsions:
REMARK  status: ('A' for Active; 'I' for Inactive)
REMARK    1  A    between atoms: C_1  and  C_2
REMARK    2  A    between atoms: C_7  and  C_9
REMARK    3  A    between atoms: C_13  and  S_14
REMARK    4  A    between atoms: S_14  and  N_17
REMARK    5  A    between atoms: N_17  and  C_18
REMARK    6  A    between atoms: N_17  and  C_25
REMARK    7  A    between atoms: C_18  and  C_19
REMARK                            x       y       z     vdW  Elec       q    Type
REMARK                         _______ _______ _______ _____ _____    ______ ____
ROOT
ATOM      1  S   UNL     1       0.053  11.435  21.229  0.00  0.00    +0.000 S 
ATOM      2  O   UNL     1      -0.988  11.312  22.229  0.00  0.00    +0.000 OA
ATOM      3  O   UNL     1       1.301  12.109  21.521  0.00  0.00    +0.000 OA
ENDROOT
BRANCH   1   8
ATOM      4  C   UNL     1       1.848   8.287  19.420  0.00  0.00    +0.000 A 
ATOM      5  C   UNL     1       1.552   7.228  20.294  0.00  0.00    +0.000 A 
ATOM      6  C   UNL     1       0.695   7.415  21.379  0.00  0.00    +0.000 A 
ATOM      7  C   UNL     1       0.154   8.674  21.634  0.00  0.00    +0.000 A 
ATOM      8  C   UNL     1       0.521   9.754  20.832  0.00  0.00    +0.000 A 
ATOM      9  C   UNL     1       1.326   9.559  19.693  0.00  0.00    +0.000 A 
BRANCH   4  16
ATOM     10  C   UNL     1       6.279   3.957  15.176  0.00  0.00    +0.000 C 
ATOM     11  C   UNL     1       5.574   5.073  15.854  0.00  0.00    +0.000 A 
ATOM     12  N   UNL     1       5.339   6.250  15.315  0.00  0.00    +0.000 NA
ATOM     13  N   UNL     1       4.571   7.051  16.138  0.00  0.00    +0.000 NA
ATOM     14  C   UNL     1       4.270   6.451  17.264  0.00  0.00    +0.000 A 
ATOM     15  N   UNL     1       3.496   6.858  18.321  0.00  0.00    +0.000 N 
ATOM     16  C   UNL     1       2.704   7.981  18.230  0.00  0.00    +0.000 C 
ATOM     17  O   UNL     1       2.601   8.715  17.252  0.00  0.00    +0.000 OA
ATOM     18  S   UNL     1       4.950   4.891  17.447  0.00  0.00    +0.000 S 
ATOM     19  H   UNL     1       3.427   6.222  19.098  0.00  0.00    +0.000 HD
ENDBRANCH   4  16
ENDBRANCH   1   8
BRANCH   1  20
ATOM     20  N   UNL     1      -0.632  12.087  19.807  0.00  0.00    +0.000 N 
BRANCH  20  21
ATOM     21  C   UNL     1      -0.060  13.359  19.412  0.00  0.00    +0.000 A 
ATOM     22  C   UNL     1      -0.809  14.491  19.756  0.00  0.00    +0.000 A 
ATOM     23  C   UNL     1      -0.316  15.773  19.509  0.00  0.00    +0.000 A 
ATOM     24  C   UNL     1       0.929  15.935  18.908  0.00  0.00    +0.000 A 
ATOM     25  C   UNL     1       1.660  14.815  18.510  0.00  0.00    +0.000 A 
ATOM     26  C   UNL     1       1.161  13.526  18.735  0.00  0.00    +0.000 A 
ATOM     27 CL   UNL     1       2.108  12.205  18.153  0.00  0.00    +0.000 Cl
ENDBRANCH  20  21
BRANCH  20  28
ATOM     28  C   UNL     1      -2.105  11.925  19.604  0.00  0.00    +0.000 C 
BRANCH  28  29
ATOM     29  C   UNL     1      -2.468  11.249  18.288  0.00  0.00    +0.000 A 
ATOM     30  C   UNL     1      -1.621  10.273  17.738  0.00  0.00    +0.000 A 
ATOM     31  C   UNL     1      -1.926   9.668  16.517  0.00  0.00    +0.000 A 
ATOM     32  C   UNL     1      -3.084  10.023  15.829  0.00  0.00    +0.000 A 
ATOM     33  C   UNL     1      -3.952  10.962  16.378  0.00  0.00    +0.000 A 
ATOM     34  C   UNL     1      -3.656  11.556  17.606  0.00  0.00    +0.000 A 
ENDBRANCH  28  29
ENDBRANCH  20  28
ENDBRANCH   1  20
TORSDOF 6
ENDMDL
MODEL 3
REMARK VINA RESULT:      -7.7      0.995      1.546
REMARK  Name = 
REMARK  7 active torsions:
REMARK  status: ('A' for Active; 'I' for Inactive)
REMARK    1  A    between atoms: C_1  and  C_2
REMARK    2  A    between atoms: C_7  and  C_9
REMARK    3  A    between atoms: C_13  and  S_14
REMARK    4  A    between atoms: S_14  and  N_17
REMARK    5  A    between atoms: N_17  and  C_18
REMARK    6  A    between atoms: N_17  and  C_25
REMARK    7  A    between atoms: C_18  and  C_19
REMARK                            x       y       z     vdW  Elec       q    Type
REMARK                         _______ _______ _______ _____ _____    ______ ____
ROOT
ATOM      1  S   UNL     1       0.603  12.962  21.272  0.00  0.00    +0.000 S 
ATOM      2  O   UNL     1      -0.400  13.586  22.112  0.00  0.00    +0.000 OA
ATOM      3  O   UNL     1       2.018  13.144  21.527  0.00  0.00    +0.000 OA
ENDROOT
BRANCH   1   8
ATOM      4  C   UNL     1       1.008   8.961  20.796  0.00  0.00    +0.000 A 
ATOM      5  C   UNL     1       0.204   8.452  21.829  0.00  0.00    +0.000 A 
ATOM      6  C   UNL     1      -0.580   9.302  22.609  0.00  0.00    +0.000 A 
ATOM      7  C   UNL     1      -0.542  10.679  22.398  0.00  0.00    +0.000 A 
ATOM      8  C   UNL     1       0.329  11.203  21.444  0.00  0.00    +0.000 A 
ATOM      9  C   UNL     1       1.068  10.348  20.603  0.00  0.00    +0.000 A 
BRANCH   4  16
ATOM     10  C   UNL     1       3.554   2.135  18.975  0.00  0.00    +0.000 C 
ATOM     11  C   UNL     1       3.326   3.591  19.147  0.00  0.00    +0.000 A 
ATOM     12  N   UNL     1       3.645   4.510  18.262  0.00  0.00    +0.000 NA
ATOM     13  N   UNL     1       3.217   5.767  18.645  0.00  0.00    +0.000 NA
ATOM     14  C   UNL     1       2.608   5.745  19.804  0.00  0.00    +0.000 A 
ATOM     15  N   UNL     1       1.993   6.744  20.517  0.00  0.00    +0.000 N 
ATOM     16  C   UNL     1       1.749   7.974  19.948  0.00  0.00    +0.000 C 
ATOM     17  O   UNL     1       2.038   8.311  18.804  0.00  0.00    +0.000 OA
ATOM     18  S   UNL     1       2.561   4.208  20.558  0.00  0.00    +0.000 S 
ATOM     19  H   UNL     1       1.605   6.485  21.409  0.00  0.00    +0.000 HD
ENDBRANCH   4  16
ENDBRANCH   1   8
BRANCH   1  20
ATOM     20  N   UNL     1       0.262  13.341  19.642  0.00  0.00    +0.000 N 
BRANCH  20  21
ATOM     21  C   UNL     1       1.168  14.314  19.066  0.00  0.00    +0.000 A 
ATOM     22  C   UNL     1       2.245  13.785  18.343  0.00  0.00    +0.000 A 
ATOM     23  C   UNL     1       3.131  14.625  17.668  0.00  0.00    +0.000 A 
ATOM     24  C   UNL     1       2.952  16.005  17.715  0.00  0.00    +0.000 A 
ATOM     25  C   UNL     1       1.916  16.548  18.477  0.00  0.00    +0.000 A 
ATOM     26  C   UNL     1       1.038  15.710  19.174  0.00  0.00    +0.000 A 
ATOM     27 CL   UNL     1      -0.175  16.474  20.138  0.00  0.00    +0.000 Cl
ENDBRANCH  20  21
BRANCH  20  28
ATOM     28  C   UNL     1      -1.174  13.442  19.235  0.00  0.00    +0.000 C 
BRANCH  28  29
ATOM     29  C   UNL     1      -1.729  12.155  18.639  0.00  0.00    +0.000 A 
ATOM     30  C   UNL     1      -0.861  11.202  18.082  0.00  0.00    +0.000 A 
ATOM     31  C   UNL     1      -1.360  10.032  17.504  0.00  0.00    +0.000 A 
ATOM     32  C   UNL     1      -2.732   9.793  17.478  0.00  0.00    +0.000 A 
ATOM     33  C   UNL     1      -3.603  10.710  18.058  0.00  0.00    +0.000 A 
ATOM     34  C   UNL     1      -3.105  11.873  18.649  0.00  0.00    +0.000 A 
ENDBRANCH  28  29
ENDBRANCH  20  28
ENDBRANCH   1  20
TORSDOF 6
ENDMDL
MODEL 4
REMARK VINA RESULT:      -7.6      2.123      2.917
REMARK  Name = 
REMARK  7 active torsions:
REMARK  status: ('A' for Active; 'I' for Inactive)
REMARK    1  A    between atoms: C_1  and  C_2
REMARK    2  A    between atoms: C_7  and  C_9
REMARK    3  A    between atoms: C_13  and  S_14
REMARK    4  A    between atoms: S_14  and  N_17
REMARK    5  A    between atoms: N_17  and  C_18
REMARK    6  A    between atoms: N_17  and  C_25
REMARK    7  A    between atoms: C_18  and  C_19
REMARK                            x       y       z     vdW  Elec       q    Type
REMARK                         _______ _______ _______ _____ _____    ______ ____
ROOT
ATOM      1  S   UNL     1      -0.075  11.682  20.897  0.00  0.00    +0.000 S 
ATOM      2  O   UNL     1      -0.855  10.818  21.760  0.00  0.00    +0.000 OA
ATOM      3  O   UNL     1       0.885  12.621  21.439  0.00  0.00    +0.000 OA
ENDROOT
BRANCH   1   8
ATOM      4  C   UNL     1       1.631   8.294  19.480  0.00  0.00    +0.000 A 
ATOM      5  C   UNL     1       2.116   8.702  18.226  0.00  0.00    +0.000 A 
ATOM      6  C   UNL     1       2.053  10.040  17.837  0.00  0.00    +0.000 A 
ATOM      7  C   UNL     1       1.467  10.986  18.676  0.00  0.00    +0.000 A 
ATOM      8  C   UNL     1       0.892  10.575  19.878  0.00  0.00    +0.000 A 
ATOM      9  C   UNL     1       1.016   9.240  20.311  0.00  0.00    +0.000 A 
BRANCH   4  16
ATOM     10  C   UNL     1       3.894   1.220  18.368  0.00  0.00    +0.000 C 
ATOM     11  C   UNL     1       3.220   2.467  18.806  0.00  0.00    +0.000 A 
ATOM     12  N   UNL     1       2.690   2.655  19.997  0.00  0.00    +0.000 NA
ATOM     13  N   UNL     1       2.229   3.947  20.158  0.00  0.00    +0.000 NA
ATOM     14  C   UNL     1       2.417   4.673  19.084  0.00  0.00    +0.000 A 
ATOM     15  N   UNL     1       2.160   5.998  18.836  0.00  0.00    +0.000 N 
ATOM     16  C   UNL     1       1.818   6.857  19.857  0.00  0.00    +0.000 C 
ATOM     17  O   UNL     1       1.705   6.561  21.042  0.00  0.00    +0.000 OA
ATOM     18  S   UNL     1       3.109   3.830  17.764  0.00  0.00    +0.000 S 
ATOM     19  H   UNL     1       2.375   6.332  17.911  0.00  0.00    +0.000 HD
ENDBRANCH   4  16
ENDBRANCH   1   8
BRANCH   1  20
ATOM     20  N   UNL     1      -1.139  12.497  19.838  0.00  0.00    +0.000 N 
BRANCH  20  21
ATOM     21  C   UNL     1      -0.982  13.938  19.847  0.00  0.00    +0.000 A 
ATOM     22  C   UNL     1      -0.257  14.475  18.775  0.00  0.00    +0.000 A 
ATOM     23  C   UNL     1      -0.118  15.855  18.629  0.00  0.00    +0.000 A 
ATOM     24  C   UNL     1      -0.698  16.714  19.559  0.00  0.00    +0.000 A 
ATOM     25  C   UNL     1      -1.376  16.191  20.662  0.00  0.00    +0.000 A 
ATOM     26  C   UNL     1      -1.499  14.806  20.825  0.00  0.00    +0.000 A 
ATOM     27 CL   UNL     1      -2.300  14.253  22.251  0.00  0.00    +0.000 Cl
ENDBRANCH  20  21
BRANCH  20  28
ATOM     28  C   UNL     1      -2.537  11.978  19.717  0.00  0.00    +0.000 C 
BRANCH  28  29
ATOM     29  C   UNL     1      -2.839  11.356  18.360  0.00  0.00    +0.000 A 
ATOM     30  C   UNL     1      -1.933  10.454  17.778  0.00  0.00    +0.000 A 
ATOM     31  C   UNL     1      -2.184   9.901  16.520  0.00  0.00    +0.000 A 
ATOM     32  C   UNL     1      -3.344  10.235  15.826  0.00  0.00    +0.000 A 
ATOM     33  C   UNL     1      -4.270  11.099  16.404  0.00  0.00    +0.000 A 
ATOM     34  C   UNL     1      -4.027  11.641  17.668  0.00  0.00    +0.000 A 
ENDBRANCH  28  29
ENDBRANCH  20  28
ENDBRANCH   1  20
TORSDOF 6
ENDMDL
MODEL 5
REMARK VINA RESULT:      -7.6      1.749      2.138
REMARK  Name = 
REMARK  7 active torsions:
REMARK  status: ('A' for Active; 'I' for Inactive)
REMARK    1  A    between atoms: C_1  and  C_2
REMARK    2  A    between atoms: C_7  and  C_9
REMARK    3  A    between atoms: C_13  and  S_14
REMARK    4  A    between atoms: S_14  and  N_17
REMARK    5  A    between atoms: N_17  and  C_18
REMARK    6  A    between atoms: N_17  and  C_25
REMARK    7  A    between atoms: C_18  and  C_19
REMARK                            x       y       z     vdW  Elec       q    Type
REMARK                         _______ _______ _______ _____ _____    ______ ____
ROOT
ATOM      1  S   UNL     1       0.851  12.665  20.486  0.00  0.00    +0.000 S 
ATOM      2  O   UNL     1       0.899  13.338  21.769  0.00  0.00    +0.000 OA
ATOM      3  O   UNL     1       1.947  12.760  19.544  0.00  0.00    +0.000 OA
ENDROOT
BRANCH   1   8
ATOM      4  C   UNL     1       1.415   8.658  20.318  0.00  0.00    +0.000 A 
ATOM      5  C   UNL     1       0.869   8.225  21.537  0.00  0.00    +0.000 A 
ATOM      6  C   UNL     1       0.202   9.116  22.378  0.00  0.00    +0.000 A 
ATOM      7  C   UNL     1       0.107  10.464  22.035  0.00  0.00    +0.000 A 
ATOM      8  C   UNL     1       0.733  10.923  20.877  0.00  0.00    +0.000 A 
ATOM      9  C   UNL     1       1.343  10.018  19.987  0.00  0.00    +0.000 A 
BRANCH   4  16
ATOM     10  C   UNL     1       3.479   1.686  18.442  0.00  0.00    +0.000 C 
ATOM     11  C   UNL     1       3.334   3.154  18.600  0.00  0.00    +0.000 A 
ATOM     12  N   UNL     1       3.619   4.040  17.670  0.00  0.00    +0.000 NA
ATOM     13  N   UNL     1       3.283   5.323  18.060  0.00  0.00    +0.000 NA
ATOM     14  C   UNL     1       2.775   5.351  19.267  0.00  0.00    +0.000 A 
ATOM     15  N   UNL     1       2.269   6.391  20.006  0.00  0.00    +0.000 N 
ATOM     16  C   UNL     1       2.035   7.621  19.432  0.00  0.00    +0.000 C 
ATOM     17  O   UNL     1       2.239   7.922  18.261  0.00  0.00    +0.000 OA
ATOM     18  S   UNL     1       2.722   3.833  20.057  0.00  0.00    +0.000 S 
ATOM     19  H   UNL     1       1.947   6.168  20.933  0.00  0.00    +0.000 HD
ENDBRANCH   4  16
ENDBRANCH   1   8
BRANCH   1  20
ATOM     20  N   UNL     1      -0.612  13.079  19.708  0.00  0.00    +0.000 N 
BRANCH  20  21
ATOM     21  C   UNL     1      -0.862  14.505  19.653  0.00  0.00    +0.000 A 
ATOM     22  C   UNL     1      -0.222  15.192  18.614  0.00  0.00    +0.000 A 
ATOM     23  C   UNL     1      -0.459  16.551  18.406  0.00  0.00    +0.000 A 
ATOM     24  C   UNL     1      -1.334  17.239  19.242  0.00  0.00    +0.000 A 
ATOM     25  C   UNL     1      -1.934  16.580  20.316  0.00  0.00    +0.000 A 
ATOM     26  C   UNL     1      -1.683  15.221  20.542  0.00  0.00    +0.000 A 
ATOM     27 CL   UNL     1      -2.423  14.508  21.929  0.00  0.00    +0.000 Cl
ENDBRANCH  20  21
BRANCH  20  28
ATOM     28  C   UNL     1      -1.801  12.201  19.944  0.00  0.00    +0.000 C 
BRANCH  28  29
ATOM     29  C   UNL     1      -2.288  11.486  18.691  0.00  0.00    +0.000 A 
ATOM     30  C   UNL     1      -3.571  11.746  18.182  0.00  0.00    +0.000 A 
ATOM     31  C   UNL     1      -4.041  11.074  17.052  0.00  0.00    +0.000 A 
ATOM     32  C   UNL     1      -3.236  10.138  16.408  0.00  0.00    +0.000 A 
ATOM     33  C   UNL     1      -1.949   9.895  16.877  0.00  0.00    +0.000 A 
ATOM     34  C   UNL     1      -1.472  10.577  17.999  0.00  0.00    +0.000 A 
ENDBRANCH  28  29
ENDBRANCH  20  28
ENDBRANCH   1  20
TORSDOF 6
ENDMDL
MODEL 6
REMARK VINA RESULT:      -7.6      2.529      2.976
REMARK  Name = 
REMARK  7 active torsions:
REMARK  status: ('A' for Active; 'I' for Inactive)
REMARK    1  A    between atoms: C_1  and  C_2
REMARK    2  A    between atoms: C_7  and  C_9
REMARK    3  A    between atoms: C_13  and  S_14
REMARK    4  A    between atoms: S_14  and  N_17
REMARK    5  A    between atoms: N_17  and  C_18
REMARK    6  A    between atoms: N_17  and  C_25
REMARK    7  A    between atoms: C_18  and  C_19
REMARK                            x       y       z     vdW  Elec       q    Type
REMARK                         _______ _______ _______ _____ _____    ______ ____
ROOT
ATOM      1  S   UNL     1       0.257  10.693  21.222  0.00  0.00    +0.000 S 
ATOM      2  O   UNL     1      -0.878  10.448  22.088  0.00  0.00    +0.000 OA
ATOM      3  O   UNL     1       1.451  11.350  21.713  0.00  0.00    +0.000 OA
ENDROOT
BRANCH   1   8
ATOM      4  C   UNL     1       2.202   7.783  19.185  0.00  0.00    +0.000 A 
ATOM      5  C   UNL     1       1.960   6.648  19.976  0.00  0.00    +0.000 A 
ATOM      6  C   UNL     1       1.097   6.711  21.071  0.00  0.00    +0.000 A 
ATOM      7  C   UNL     1       0.495   7.919  21.419  0.00  0.00    +0.000 A 
ATOM      8  C   UNL     1       0.807   9.073  20.701  0.00  0.00    +0.000 A 
ATOM      9  C   UNL     1       1.618   9.003  19.552  0.00  0.00    +0.000 A 
BRANCH   4  16
ATOM     10  C   UNL     1       6.396   3.865  14.343  0.00  0.00    +0.000 C 
ATOM     11  C   UNL     1       5.764   4.906  15.190  0.00  0.00    +0.000 A 
ATOM     12  N   UNL     1       5.648   6.174  14.858  0.00  0.00    +0.000 NA
ATOM     13  N   UNL     1       4.921   6.887  15.792  0.00  0.00    +0.000 NA
ATOM     14  C   UNL     1       4.534   6.134  16.791  0.00  0.00    +0.000 A 
ATOM     15  N   UNL     1       3.760   6.422  17.888  0.00  0.00    +0.000 N 
ATOM     16  C   UNL     1       3.069   7.610  17.976  0.00  0.00    +0.000 C 
ATOM     17  O   UNL     1       3.061   8.505  17.138  0.00  0.00    +0.000 OA
ATOM     18  S   UNL     1       5.074   4.511  16.715  0.00  0.00    +0.000 S 
ATOM     19  H   UNL     1       3.612   5.671  18.541  0.00  0.00    +0.000 HD
ENDBRANCH   4  16
ENDBRANCH   1   8
BRANCH   1  20
ATOM     20  N   UNL     1      -0.294  11.485  19.812  0.00  0.00    +0.000 N 
BRANCH  20  21
ATOM     21  C   UNL     1       0.520  12.618  19.422  0.00  0.00    +0.000 A 
ATOM     22  C   UNL     1       1.567  12.334  18.535  0.00  0.00    +0.000 A 
ATOM     23  C   UNL     1       2.360  13.358  18.019  0.00  0.00    +0.000 A 
ATOM     24  C   UNL     1       2.120  14.678  18.391  0.00  0.00    +0.000 A 
ATOM     25  C   UNL     1       1.118  14.969  19.317  0.00  0.00    +0.000 A 
ATOM     26  C   UNL     1       0.332  13.942  19.855  0.00  0.00    +0.000 A 
ATOM     27 CL   UNL     1      -0.842  14.392  21.039  0.00  0.00    +0.000 Cl
ENDBRANCH  20  21
BRANCH  20  28
ATOM     28  C   UNL     1      -1.772  11.628  19.625  0.00  0.00    +0.000 C 
BRANCH  28  29
ATOM     29  C   UNL     1      -2.270  11.098  18.287  0.00  0.00    +0.000 A 
ATOM     30  C   UNL     1      -3.469  11.581  17.738  0.00  0.00    +0.000 A 
ATOM     31  C   UNL     1      -3.952  11.080  16.527  0.00  0.00    +0.000 A 
ATOM     32  C   UNL     1      -3.244  10.095  15.843  0.00  0.00    +0.000 A 
ATOM     33  C   UNL     1      -2.036   9.632  16.356  0.00  0.00    +0.000 A 
ATOM     34  C   UNL     1      -1.544  10.142  17.559  0.00  0.00    +0.000 A 
ENDBRANCH  28  29
ENDBRANCH  20  28
ENDBRANCH   1  20
TORSDOF 6
ENDMDL
MODEL 7
REMARK VINA RESULT:      -7.5      1.876      2.282
REMARK  Name = 
REMARK  7 active torsions:
REMARK  status: ('A' for Active; 'I' for Inactive)
REMARK    1  A    between atoms: C_1  and  C_2
REMARK    2  A    between atoms: C_7  and  C_9
REMARK    3  A    between atoms: C_13  and  S_14
REMARK    4  A    between atoms: S_14  and  N_17
REMARK    5  A    between atoms: N_17  and  C_18
REMARK    6  A    between atoms: N_17  and  C_25
REMARK    7  A    between atoms: C_18  and  C_19
REMARK                            x       y       z     vdW  Elec       q    Type
REMARK                         _______ _______ _______ _____ _____    ______ ____
ROOT
ATOM      1  S   UNL     1       0.252  13.450  21.228  0.00  0.00    +0.000 S 
ATOM      2  O   UNL     1      -0.915  14.210  21.629  0.00  0.00    +0.000 OA
ATOM      3  O   UNL     1       1.564  13.745  21.766  0.00  0.00    +0.000 OA
ENDROOT
BRANCH   1   8
ATOM      4  C   UNL     1       0.480   9.417  21.510  0.00  0.00    +0.000 A 
ATOM      5  C   UNL     1      -0.305   9.149  22.644  0.00  0.00    +0.000 A 
ATOM      6  C   UNL     1      -1.026  10.166  23.270  0.00  0.00    +0.000 A 
ATOM      7  C   UNL     1      -0.941  11.476  22.800  0.00  0.00    +0.000 A 
ATOM      8  C   UNL     1      -0.086  11.770  21.739  0.00  0.00    +0.000 A 
ATOM      9  C   UNL     1       0.588  10.738  21.056  0.00  0.00    +0.000 A 
BRANCH   4  16
ATOM     10  C   UNL     1       4.921   6.147  16.413  0.00  0.00    +0.000 C 
ATOM     11  C   UNL     1       3.889   6.480  17.425  0.00  0.00    +0.000 A 
ATOM     12  N   UNL     1       3.375   5.624  18.282  0.00  0.00    +0.000 NA
ATOM     13  N   UNL     1       2.517   6.238  19.174  0.00  0.00    +0.000 NA
ATOM     14  C   UNL     1       2.409   7.523  18.945  0.00  0.00    +0.000 A 
ATOM     15  N   UNL     1       1.716   8.502  19.613  0.00  0.00    +0.000 N 
ATOM     16  C   UNL     1       1.149   8.254  20.844  0.00  0.00    +0.000 C 
ATOM     17  O   UNL     1       1.188   7.193  21.457  0.00  0.00    +0.000 OA
ATOM     18  S   UNL     1       3.289   8.084  17.588  0.00  0.00    +0.000 S 
ATOM     19  H   UNL     1       1.771   9.431  19.231  0.00  0.00    +0.000 HD
ENDBRANCH   4  16
ENDBRANCH   1   8
BRANCH   1  20
ATOM     20  N   UNL     1       0.325  13.424  19.522  0.00  0.00    +0.000 N 
BRANCH  20  21
ATOM     21  C   UNL     1       1.458  14.143  18.974  0.00  0.00    +0.000 A 
ATOM     22  C   UNL     1       2.547  13.352  18.587  0.00  0.00    +0.000 A 
ATOM     23  C   UNL     1       3.656  13.924  17.964  0.00  0.00    +0.000 A 
ATOM     24  C   UNL     1       3.691  15.295  17.727  0.00  0.00    +0.000 A 
ATOM     25  C   UNL     1       2.637  16.102  18.158  0.00  0.00    +0.000 A 
ATOM     26  C   UNL     1       1.531  15.537  18.804  0.00  0.00    +0.000 A 
ATOM     27 CL   UNL     1       0.305  16.622  19.354  0.00  0.00    +0.000 Cl
ENDBRANCH  20  21
BRANCH  20  28
ATOM     28  C   UNL     1      -0.962  13.530  18.767  0.00  0.00    +0.000 C 
BRANCH  28  29
ATOM     29  C   UNL     1      -1.551  12.181  18.376  0.00  0.00    +0.000 A 
ATOM     30  C   UNL     1      -0.709  11.135  17.964  0.00  0.00    +0.000 A 
ATOM     31  C   UNL     1      -1.238   9.903  17.573  0.00  0.00    +0.000 A 
ATOM     32  C   UNL     1      -2.615   9.693  17.593  0.00  0.00    +0.000 A 
ATOM     33  C   UNL     1      -3.461  10.707  18.033  0.00  0.00    +0.000 A 
ATOM     34  C   UNL     1      -2.932  11.934  18.438  0.00  0.00    +0.000 A 
ENDBRANCH  28  29
ENDBRANCH  20  28
ENDBRANCH   1  20
TORSDOF 6
ENDMDL
MODEL 8
REMARK VINA RESULT:      -7.5      2.157      2.629
REMARK  Name = 
REMARK  7 active torsions:
REMARK  status: ('A' for Active; 'I' for Inactive)
REMARK    1  A    between atoms: C_1  and  C_2
REMARK    2  A    between atoms: C_7  and  C_9
REMARK    3  A    between atoms: C_13  and  S_14
REMARK    4  A    between atoms: S_14  and  N_17
REMARK    5  A    between atoms: N_17  and  C_18
REMARK    6  A    between atoms: N_17  and  C_25
REMARK    7  A    between atoms: C_18  and  C_19
REMARK                            x       y       z     vdW  Elec       q    Type
REMARK                         _______ _______ _______ _____ _____    ______ ____
ROOT
ATOM      1  S   UNL     1       0.330  11.492  21.228  0.00  0.00    +0.000 S 
ATOM      2  O   UNL     1      -0.392  11.418  22.482  0.00  0.00    +0.000 OA
ATOM      3  O   UNL     1       1.582  12.212  21.122  0.00  0.00    +0.000 OA
ENDROOT
BRANCH   1   8
ATOM      4  C   UNL     1       1.988   8.291  19.384  0.00  0.00    +0.000 A 
ATOM      5  C   UNL     1       1.681   7.242  20.266  0.00  0.00    +0.000 A 
ATOM      6  C   UNL     1       0.855   7.456  21.370  0.00  0.00    +0.000 A 
ATOM      7  C   UNL     1       0.357   8.730  21.635  0.00  0.00    +0.000 A 
ATOM      8  C   UNL     1       0.738   9.798  20.824  0.00  0.00    +0.000 A 
ATOM      9  C   UNL     1       1.511   9.578  19.666  0.00  0.00    +0.000 A 
BRANCH   4  16
ATOM     10  C   UNL     1       6.207   3.833  15.057  0.00  0.00    +0.000 C 
ATOM     11  C   UNL     1       5.546   4.969  15.746  0.00  0.00    +0.000 A 
ATOM     12  N   UNL     1       5.327   6.149  15.206  0.00  0.00    +0.000 NA
ATOM     13  N   UNL     1       4.598   6.972  16.043  0.00  0.00    +0.000 NA
ATOM     14  C   UNL     1       4.312   6.386  17.179  0.00  0.00    +0.000 A 
ATOM     15  N   UNL     1       3.573   6.817  18.253  0.00  0.00    +0.000 N 
ATOM     16  C   UNL     1       2.806   7.958  18.174  0.00  0.00    +0.000 C 
ATOM     17  O   UNL     1       2.697   8.688  17.195  0.00  0.00    +0.000 OA
ATOM     18  S   UNL     1       4.958   4.810  17.354  0.00  0.00    +0.000 S 
ATOM     19  H   UNL     1       3.508   6.186  19.035  0.00  0.00    +0.000 HD
ENDBRANCH   4  16
ENDBRANCH   1   8
BRANCH   1  20
ATOM     20  N   UNL     1      -0.744  12.027  20.011  0.00  0.00    +0.000 N 
BRANCH  20  21
ATOM     21  C   UNL     1      -0.727  13.461  19.806  0.00  0.00    +0.000 A 
ATOM     22  C   UNL     1      -1.713  14.182  20.489  0.00  0.00    +0.000 A 
ATOM     23  C   UNL     1      -1.739  15.576  20.440  0.00  0.00    +0.000 A 
ATOM     24  C   UNL     1      -0.782  16.263  19.699  0.00  0.00    +0.000 A 
ATOM     25  C   UNL     1       0.173  15.555  18.968  0.00  0.00    +0.000 A 
ATOM     26  C   UNL     1       0.190  14.155  18.996  0.00  0.00    +0.000 A 
ATOM     27 CL   UNL     1       1.369  13.366  18.012  0.00  0.00    +0.000 Cl
ENDBRANCH  20  21
BRANCH  20  28
ATOM     28  C   UNL     1      -2.076  11.353  19.911  0.00  0.00    +0.000 C 
BRANCH  28  29
ATOM     29  C   UNL     1      -2.510  11.074  18.479  0.00  0.00    +0.000 A 
ATOM     30  C   UNL     1      -3.673  11.670  17.964  0.00  0.00    +0.000 A 
ATOM     31  C   UNL     1      -4.099  11.397  16.662  0.00  0.00    +0.000 A 
ATOM     32  C   UNL     1      -3.368  10.531  15.852  0.00  0.00    +0.000 A 
ATOM     33  C   UNL     1      -2.194   9.961  16.335  0.00  0.00    +0.000 A 
ATOM     34  C   UNL     1      -1.759  10.244  17.631  0.00  0.00    +0.000 A 
ENDBRANCH  28  29
ENDBRANCH  20  28
ENDBRANCH   1  20
TORSDOF 6
ENDMDL
MODEL 9
REMARK VINA RESULT:      -7.4      1.965      2.500
REMARK  Name = 
REMARK  7 active torsions:
REMARK  status: ('A' for Active; 'I' for Inactive)
REMARK    1  A    between atoms: C_1  and  C_2
REMARK    2  A    between atoms: C_7  and  C_9
REMARK    3  A    between atoms: C_13  and  S_14
REMARK    4  A    between atoms: S_14  and  N_17
REMARK    5  A    between atoms: N_17  and  C_18
REMARK    6  A    between atoms: N_17  and  C_25
REMARK    7  A    between atoms: C_18  and  C_19
REMARK                            x       y       z     vdW  Elec       q    Type
REMARK                         _______ _______ _______ _____ _____    ______ ____
ROOT
ATOM      1  S   UNL     1       0.434  12.668  20.304  0.00  0.00    +0.000 S 
ATOM      2  O   UNL     1       0.855  13.423  21.466  0.00  0.00    +0.000 OA
ATOM      3  O   UNL     1       1.180  12.718  19.063  0.00  0.00    +0.000 OA
ENDROOT
BRANCH   1   8
ATOM      4  C   UNL     1       1.366   8.727  20.360  0.00  0.00    +0.000 A 
ATOM      5  C   UNL     1       0.925   8.331  21.633  0.00  0.00    +0.000 A 
ATOM      6  C   UNL     1       0.219   9.214  22.452  0.00  0.00    +0.000 A 
ATOM      7  C   UNL     1      -0.020  10.520  22.029  0.00  0.00    +0.000 A 
ATOM      8  C   UNL     1       0.501  10.954  20.810  0.00  0.00    +0.000 A 
ATOM      9  C   UNL     1       1.150  10.049  19.947  0.00  0.00    +0.000 A 
BRANCH   4  16
ATOM     10  C   UNL     1       3.461   1.749  18.543  0.00  0.00    +0.000 C 
ATOM     11  C   UNL     1       3.327   3.216  18.712  0.00  0.00    +0.000 A 
ATOM     12  N   UNL     1       3.696   4.111  17.820  0.00  0.00    +0.000 NA
ATOM     13  N   UNL     1       3.352   5.393  18.203  0.00  0.00    +0.000 NA
ATOM     14  C   UNL     1       2.752   5.414  19.367  0.00  0.00    +0.000 A 
ATOM     15  N   UNL     1       2.206   6.451  20.081  0.00  0.00    +0.000 N 
ATOM     16  C   UNL     1       2.036   7.693  19.509  0.00  0.00    +0.000 C 
ATOM     17  O   UNL     1       2.336   8.007  18.362  0.00  0.00    +0.000 OA
ATOM     18  S   UNL     1       2.614   3.885  20.127  0.00  0.00    +0.000 S 
ATOM     19  H   UNL     1       1.810   6.220  20.977  0.00  0.00    +0.000 HD
ENDBRANCH   4  16
ENDBRANCH   1   8
BRANCH   1  20
ATOM     20  N   UNL     1      -1.211  13.010  19.998  0.00  0.00    +0.000 N 
BRANCH  20  21
ATOM     21  C   UNL     1      -1.658  14.273  20.551  0.00  0.00    +0.000 A 
ATOM     22  C   UNL     1      -2.527  14.181  21.645  0.00  0.00    +0.000 A 
ATOM     23  C   UNL     1      -2.951  15.328  22.316  0.00  0.00    +0.000 A 
ATOM     24  C   UNL     1      -2.515  16.582  21.894  0.00  0.00    +0.000 A 
ATOM     25  C   UNL     1      -1.694  16.691  20.770  0.00  0.00    +0.000 A 
ATOM     26  C   UNL     1      -1.284  15.544  20.080  0.00  0.00    +0.000 A 
ATOM     27 CL   UNL     1      -0.320  15.783  18.667  0.00  0.00    +0.000 Cl
ENDBRANCH  20  21
BRANCH  20  28
ATOM     28  C   UNL     1      -2.183  11.874  20.057  0.00  0.00    +0.000 C 
BRANCH  28  29
ATOM     29  C   UNL     1      -2.565  11.329  18.687  0.00  0.00    +0.000 A 
ATOM     30  C   UNL     1      -3.796  11.675  18.107  0.00  0.00    +0.000 A 
ATOM     31  C   UNL     1      -4.172  11.157  16.866  0.00  0.00    +0.000 A 
ATOM     32  C   UNL     1      -3.322  10.291  16.181  0.00  0.00    +0.000 A 
ATOM     33  C   UNL     1      -2.083   9.967  16.725  0.00  0.00    +0.000 A 
ATOM     34  C   UNL     1      -1.700  10.495  17.960  0.00  0.00    +0.000 A 
ENDBRANCH  28  29
ENDBRANCH  20  28
ENDBRANCH   1  20
TORSDOF 6
ENDMDL
