MODEL 1
REMARK VINA RESULT:      -7.7      0.000      0.000
REMARK  Name = 
REMARK  8 active torsions:
REMARK  status: ('A' for Active; 'I' for Inactive)
REMARK    1  A    between atoms: C_1  and  N_2
REMARK    2  A    between atoms: C_4  and  C_5
REMARK    3  A    between atoms: N_7  and  C_8
REMARK    4  A    between atoms: N_7  and  C_23
REMARK    5  A    between atoms: C_8  and  C_9
REMARK    6  A    between atoms: C_12  and  O_13
REMARK    7  A    between atoms: O_13  and  C_14
REMARK    8  A    between atoms: C_14  and  C_15
REMARK                            x       y       z     vdW  Elec       q    Type
REMARK                         _______ _______ _______ _____ _____    ______ ____
ROOT
ATOM      1  C   UNL     1       3.697   7.346  17.809  0.00  0.00    +0.000 C 
ATOM      2  O   UNL     1       3.867   8.492  17.399  0.00  0.00    +0.000 OA
ATOM      3  N   UNL     1       2.557   6.892  18.491  0.00  0.00    +0.000 N 
ENDROOT
BRANCH   1   7
ATOM      4  C   UNL     1       7.959   5.445  19.126  0.00  0.00    +0.000 C 
ATOM      5  N   UNL     1       6.850   5.391  18.194  0.00  0.00    +0.000 N 
ATOM      6  N   UNL     1       5.756   6.179  18.502  0.00  0.00    +0.000 NA
ATOM      7  C   UNL     1       4.865   6.367  17.582  0.00  0.00    +0.000 A 
ATOM      8  C   UNL     1       4.879   5.692  16.265  0.00  0.00    +0.000 A 
ATOM      9  C   UNL     1       5.924   4.904  16.000  0.00  0.00    +0.000 A 
ATOM     10  C   UNL     1       7.032   4.762  16.970  0.00  0.00    +0.000 A 
ATOM     11  O   UNL     1       8.033   4.129  16.644  0.00  0.00    +0.000 OA
ENDBRANCH   1   7
BRANCH   3  12
ATOM     12  C   UNL     1       2.424   5.523  18.880  0.00  0.00    +0.000 A 
ATOM     13  C   UNL     1       1.887   4.601  17.973  0.00  0.00    +0.000 A 
ATOM     14  C   UNL     1       1.669   3.276  18.361  0.00  0.00    +0.000 A 
ATOM     15  C   UNL     1       1.988   2.862  19.653  0.00  0.00    +0.000 A 
ATOM     16  C   UNL     1       2.545   3.768  20.555  0.00  0.00    +0.000 A 
ATOM     17  C   UNL     1       2.777   5.093  20.169  0.00  0.00    +0.000 A 
ENDBRANCH   3  12
BRANCH   3  18
ATOM     18  C   UNL     1       1.341   7.701  18.666  0.00  0.00    +0.000 C 
BRANCH  18  19
ATOM     19  C   UNL     1       1.230   8.770  19.741  0.00  0.00    +0.000 A 
ATOM     20  C   UNL     1       0.959  10.104  19.388  0.00  0.00    +0.000 A 
ATOM     21  C   UNL     1       0.541  11.041  20.350  0.00  0.00    +0.000 A 
ATOM     22  C   UNL     1       0.380  10.653  21.679  0.00  0.00    +0.000 A 
ATOM     23  C   UNL     1       0.793   9.376  22.061  0.00  0.00    +0.000 A 
ATOM     24  C   UNL     1       1.211   8.438  21.102  0.00  0.00    +0.000 A 
BRANCH  22  25
ATOM     25  O   UNL     1      -0.172  11.425  22.673  0.00  0.00    +0.000 OA
BRANCH  25  26
ATOM     26  C   UNL     1      -1.458  10.996  23.150  0.00  0.00    +0.000 C 
BRANCH  26  27
ATOM     27  C   UNL     1      -2.551  12.020  22.876  0.00  0.00    +0.000 A 
ATOM     28  C   UNL     1      -3.406  12.423  23.917  0.00  0.00    +0.000 A 
ATOM     29  C   UNL     1      -4.377  13.407  23.713  0.00  0.00    +0.000 A 
ATOM     30  C   UNL     1      -4.504  14.016  22.467  0.00  0.00    +0.000 A 
ATOM     31  C   UNL     1      -3.649  13.646  21.430  0.00  0.00    +0.000 A 
ATOM     32  C   UNL     1      -2.675  12.660  21.633  0.00  0.00    +0.000 A 
ENDBRANCH  26  27
ENDBRANCH  25  26
ENDBRANCH  22  25
ENDBRANCH  18  19
ENDBRANCH   3  18
TORSDOF 7
ENDMDL
MODEL 2
REMARK VINA RESULT:      -7.5      1.106      1.532
REMARK  Name = 
REMARK  8 active torsions:
REMARK  status: ('A' for Active; 'I' for Inactive)
REMARK    1  A    between atoms: C_1  and  N_2
REMARK    2  A    between atoms: C_4  and  C_5
REMARK    3  A    between atoms: N_7  and  C_8
REMARK    4  A    between atoms: N_7  and  C_23
REMARK    5  A    between atoms: C_8  and  C_9
REMARK    6  A    between atoms: C_12  and  O_13
REMARK    7  A    between atoms: O_13  and  C_14
REMARK    8  A    between atoms: C_14  and  C_15
REMARK                            x       y       z     vdW  Elec       q    Type
REMARK                         _______ _______ _______ _____ _____    ______ ____
ROOT
ATOM      1  C   UNL     1       3.722   7.350  17.584  0.00  0.00    +0.000 C 
ATOM      2  O   UNL     1       3.730   8.533  17.248  0.00  0.00    +0.000 OA
ATOM      3  N   UNL     1       2.713   6.731  18.338  0.00  0.00    +0.000 N 
ENDROOT
BRANCH   1   7
ATOM      4  C   UNL     1       5.930   4.235  14.596  0.00  0.00    +0.000 C 
ATOM      5  N   UNL     1       6.064   5.099  15.752  0.00  0.00    +0.000 N 
ATOM      6  N   UNL     1       4.994   5.934  16.016  0.00  0.00    +0.000 NA
ATOM      7  C   UNL     1       4.953   6.522  17.169  0.00  0.00    +0.000 A 
ATOM      8  C   UNL     1       6.040   6.456  18.171  0.00  0.00    +0.000 A 
ATOM      9  C   UNL     1       7.084   5.676  17.882  0.00  0.00    +0.000 A 
ATOM     10  C   UNL     1       7.114   4.881  16.633  0.00  0.00    +0.000 A 
ATOM     11  O   UNL     1       8.029   4.081  16.458  0.00  0.00    +0.000 OA
ENDBRANCH   1   7
BRANCH   3  12
ATOM     12  C   UNL     1       2.762   5.332  18.632  0.00  0.00    +0.000 A 
ATOM     13  C   UNL     1       2.248   4.418  17.704  0.00  0.00    +0.000 A 
ATOM     14  C   UNL     1       2.208   3.054  18.008  0.00  0.00    +0.000 A 
ATOM     15  C   UNL     1       2.683   2.594  19.235  0.00  0.00    +0.000 A 
ATOM     16  C   UNL     1       3.218   3.495  20.154  0.00  0.00    +0.000 A 
ATOM     17  C   UNL     1       3.272   4.861  19.852  0.00  0.00    +0.000 A 
ENDBRANCH   3  12
BRANCH   3  18
ATOM     18  C   UNL     1       1.446   7.389  18.694  0.00  0.00    +0.000 C 
BRANCH  18  19
ATOM     19  C   UNL     1       1.363   8.445  19.783  0.00  0.00    +0.000 A 
ATOM     20  C   UNL     1       1.098   9.786  19.452  0.00  0.00    +0.000 A 
ATOM     21  C   UNL     1       0.705  10.714  20.433  0.00  0.00    +0.000 A 
ATOM     22  C   UNL     1       0.563  10.311  21.760  0.00  0.00    +0.000 A 
ATOM     23  C   UNL     1       0.971   9.025  22.118  0.00  0.00    +0.000 A 
ATOM     24  C   UNL     1       1.364   8.096  21.140  0.00  0.00    +0.000 A 
BRANCH  22  25
ATOM     25  O   UNL     1       0.035  11.075  22.772  0.00  0.00    +0.000 OA
BRANCH  25  26
ATOM     26  C   UNL     1      -1.385  10.960  22.960  0.00  0.00    +0.000 C 
BRANCH  26  27
ATOM     27  C   UNL     1      -2.035  12.291  23.314  0.00  0.00    +0.000 A 
ATOM     28  C   UNL     1      -3.354  12.315  23.799  0.00  0.00    +0.000 A 
ATOM     29  C   UNL     1      -3.956  13.513  24.194  0.00  0.00    +0.000 A 
ATOM     30  C   UNL     1      -3.246  14.709  24.120  0.00  0.00    +0.000 A 
ATOM     31  C   UNL     1      -1.929  14.700  23.664  0.00  0.00    +0.000 A 
ATOM     32  C   UNL     1      -1.324  13.500  23.270  0.00  0.00    +0.000 A 
ENDBRANCH  26  27
ENDBRANCH  25  26
ENDBRANCH  22  25
ENDBRANCH  18  19
ENDBRANCH   3  18
TORSDOF 7
ENDMDL
MODEL 3
REMARK VINA RESULT:      -7.5      0.862      1.384
REMARK  Name = 
REMARK  8 active torsions:
REMARK  status: ('A' for Active; 'I' for Inactive)
REMARK    1  A    between atoms: C_1  and  N_2
REMARK    2  A    between atoms: C_4  and  C_5
REMARK    3  A    between atoms: N_7  and  C_8
REMARK    4  A    between atoms: N_7  and  C_23
REMARK    5  A    between atoms: C_8  and  C_9
REMARK    6  A    between atoms: C_12  and  O_13
REMARK    7  A    between atoms: O_13  and  C_14
REMARK    8  A    between atoms: C_14  and  C_15
REMARK                            x       y       z     vdW  Elec       q    Type
REMARK                         _______ _______ _______ _____ _____    ______ ____
ROOT
ATOM      1  C   UNL     1       3.750   7.315  17.719  0.00  0.00    +0.000 C 
ATOM      2  O   UNL     1       3.949   8.463  17.327  0.00  0.00    +0.000 OA
ATOM      3  N   UNL     1       2.578   6.866  18.347  0.00  0.00    +0.000 N 
ENDROOT
BRANCH   1   7
ATOM      4  C   UNL     1       7.952   5.390  19.185  0.00  0.00    +0.000 C 
ATOM      5  N   UNL     1       6.875   5.340  18.217  0.00  0.00    +0.000 N 
ATOM      6  N   UNL     1       5.776   6.137  18.485  0.00  0.00    +0.000 NA
ATOM      7  C   UNL     1       4.918   6.327  17.535  0.00  0.00    +0.000 A 
ATOM      8  C   UNL     1       4.972   5.647  16.222  0.00  0.00    +0.000 A 
ATOM      9  C   UNL     1       6.019   4.851  15.995  0.00  0.00    +0.000 A 
ATOM     10  C   UNL     1       7.094   4.705  17.002  0.00  0.00    +0.000 A 
ATOM     11  O   UNL     1       8.101   4.064  16.712  0.00  0.00    +0.000 OA
ENDBRANCH   1   7
BRANCH   3  12
ATOM     12  C   UNL     1       2.416   5.495  18.718  0.00  0.00    +0.000 A 
ATOM     13  C   UNL     1       2.789   5.084  20.003  0.00  0.00    +0.000 A 
ATOM     14  C   UNL     1       2.719   3.734  20.358  0.00  0.00    +0.000 A 
ATOM     15  C   UNL     1       2.274   2.787  19.437  0.00  0.00    +0.000 A 
ATOM     16  C   UNL     1       1.878   3.192  18.163  0.00  0.00    +0.000 A 
ATOM     17  C   UNL     1       1.934   4.544  17.805  0.00  0.00    +0.000 A 
ENDBRANCH   3  12
BRANCH   3  18
ATOM     18  C   UNL     1       1.363   7.685  18.476  0.00  0.00    +0.000 C 
BRANCH  18  19
ATOM     19  C   UNL     1       1.221   8.760  19.542  0.00  0.00    +0.000 A 
ATOM     20  C   UNL     1       0.733  10.034  19.203  0.00  0.00    +0.000 A 
ATOM     21  C   UNL     1       0.296  10.932  20.193  0.00  0.00    +0.000 A 
ATOM     22  C   UNL     1       0.334  10.565  21.537  0.00  0.00    +0.000 A 
ATOM     23  C   UNL     1       0.958   9.366  21.887  0.00  0.00    +0.000 A 
ATOM     24  C   UNL     1       1.395   8.467  20.901  0.00  0.00    +0.000 A 
BRANCH  22  25
ATOM     25  O   UNL     1      -0.209  11.283  22.575  0.00  0.00    +0.000 OA
BRANCH  25  26
ATOM     26  C   UNL     1      -0.542  12.648  22.277  0.00  0.00    +0.000 C 
BRANCH  26  27
ATOM     27  C   UNL     1      -1.674  13.174  23.150  0.00  0.00    +0.000 A 
ATOM     28  C   UNL     1      -2.853  12.422  23.291  0.00  0.00    +0.000 A 
ATOM     29  C   UNL     1      -3.883  12.846  24.136  0.00  0.00    +0.000 A 
ATOM     30  C   UNL     1      -3.748  14.025  24.864  0.00  0.00    +0.000 A 
ATOM     31  C   UNL     1      -2.576  14.771  24.754  0.00  0.00    +0.000 A 
ATOM     32  C   UNL     1      -1.542  14.347  23.910  0.00  0.00    +0.000 A 
ENDBRANCH  26  27
ENDBRANCH  25  26
ENDBRANCH  22  25
ENDBRANCH  18  19
ENDBRANCH   3  18
TORSDOF 7
ENDMDL
MODEL 4
REMARK VINA RESULT:      -7.5      3.466      9.828
REMARK  Name = 
REMARK  8 active torsions:
REMARK  status: ('A' for Active; 'I' for Inactive)
REMARK    1  A    between atoms: C_1  and  N_2
REMARK    2  A    between atoms: C_4  and  C_5
REMARK    3  A    between atoms: N_7  and  C_8
REMARK    4  A    between atoms: N_7  and  C_23
REMARK    5  A    between atoms: C_8  and  C_9
REMARK    6  A    between atoms: C_12  and  O_13
REMARK    7  A    between atoms: O_13  and  C_14
REMARK    8  A    between atoms: C_14  and  C_15
REMARK                            x       y       z     vdW  Elec       q    Type
REMARK                         _______ _______ _______ _____ _____    ______ ____
ROOT
ATOM      1  C   UNL     1       1.660  12.289  18.851  0.00  0.00    +0.000 C 
ATOM      2  O   UNL     1       2.489  12.072  17.970  0.00  0.00    +0.000 OA
ATOM      3  N   UNL     1       0.595  11.438  19.187  0.00  0.00    +0.000 N 
ENDROOT
BRANCH   1   7
ATOM      4  C   UNL     1       1.115  17.102  19.067  0.00  0.00    +0.000 C 
ATOM      5  N   UNL     1       1.510  15.899  19.774  0.00  0.00    +0.000 N 
ATOM      6  N   UNL     1       1.240  14.702  19.137  0.00  0.00    +0.000 NA
ATOM      7  C   UNL     1       1.802  13.630  19.596  0.00  0.00    +0.000 A 
ATOM      8  C   UNL     1       2.615  13.586  20.833  0.00  0.00    +0.000 A 
ATOM      9  C   UNL     1       2.832  14.746  21.456  0.00  0.00    +0.000 A 
ATOM     10  C   UNL     1       2.318  16.016  20.896  0.00  0.00    +0.000 A 
ATOM     11  O   UNL     1       2.641  17.076  21.427  0.00  0.00    +0.000 OA
ENDBRANCH   1   7
BRANCH   3  12
ATOM     12  C   UNL     1      -0.286  11.749  20.269  0.00  0.00    +0.000 A 
ATOM     13  C   UNL     1      -0.003  11.255  21.548  0.00  0.00    +0.000 A 
ATOM     14  C   UNL     1      -0.895  11.474  22.601  0.00  0.00    +0.000 A 
ATOM     15  C   UNL     1      -2.072  12.190  22.387  0.00  0.00    +0.000 A 
ATOM     16  C   UNL     1      -2.350  12.705  21.121  0.00  0.00    +0.000 A 
ATOM     17  C   UNL     1      -1.455  12.500  20.066  0.00  0.00    +0.000 A 
ENDBRANCH   3  12
BRANCH   3  18
ATOM     18  C   UNL     1       0.425  10.090  18.624  0.00  0.00    +0.000 C 
BRANCH  18  19
ATOM     19  C   UNL     1       1.427   8.975  18.879  0.00  0.00    +0.000 A 
ATOM     20  C   UNL     1       1.418   8.281  20.101  0.00  0.00    +0.000 A 
ATOM     21  C   UNL     1       2.101   7.060  20.249  0.00  0.00    +0.000 A 
ATOM     22  C   UNL     1       2.795   6.512  19.172  0.00  0.00    +0.000 A 
ATOM     23  C   UNL     1       2.934   7.270  18.007  0.00  0.00    +0.000 A 
ATOM     24  C   UNL     1       2.254   8.489  17.857  0.00  0.00    +0.000 A 
BRANCH  22  25
ATOM     25  O   UNL     1       3.362   5.260  19.142  0.00  0.00    +0.000 OA
BRANCH  25  26
ATOM     26  C   UNL     1       4.794   5.225  19.251  0.00  0.00    +0.000 C 
BRANCH  26  27
ATOM     27  C   UNL     1       5.475   5.024  17.904  0.00  0.00    +0.000 A 
ATOM     28  C   UNL     1       4.869   4.211  16.930  0.00  0.00    +0.000 A 
ATOM     29  C   UNL     1       5.436   4.059  15.662  0.00  0.00    +0.000 A 
ATOM     30  C   UNL     1       6.614   4.727  15.339  0.00  0.00    +0.000 A 
ATOM     31  C   UNL     1       7.216   5.556  16.284  0.00  0.00    +0.000 A 
ATOM     32  C   UNL     1       6.648   5.710  17.555  0.00  0.00    +0.000 A 
ENDBRANCH  26  27
ENDBRANCH  25  26
ENDBRANCH  22  25
ENDBRANCH  18  19
ENDBRANCH   3  18
TORSDOF 7
ENDMDL
MODEL 5
REMARK VINA RESULT:      -7.5      3.356      9.206
REMARK  Name = 
REMARK  8 active torsions:
REMARK  status: ('A' for Active; 'I' for Inactive)
REMARK    1  A    between atoms: C_1  and  N_2
REMARK    2  A    between atoms: C_4  and  C_5
REMARK    3  A    between atoms: N_7  and  C_8
REMARK    4  A    between atoms: N_7  and  C_23
REMARK    5  A    between atoms: C_8  and  C_9
REMARK    6  A    between atoms: C_12  and  O_13
REMARK    7  A    between atoms: O_13  and  C_14
REMARK    8  A    between atoms: C_14  and  C_15
REMARK                            x       y       z     vdW  Elec       q    Type
REMARK                         _______ _______ _______ _____ _____    ______ ____
ROOT
ATOM      1  C   UNL     1       1.576  12.188  18.847  0.00  0.00    +0.000 C 
ATOM      2  O   UNL     1       2.379  12.082  17.922  0.00  0.00    +0.000 OA
ATOM      3  N   UNL     1       0.603  11.235  19.186  0.00  0.00    +0.000 N 
ENDROOT
BRANCH   1   7
ATOM      4  C   UNL     1       0.614  16.917  19.323  0.00  0.00    +0.000 C 
ATOM      5  N   UNL     1       1.152  15.726  19.950  0.00  0.00    +0.000 N 
ATOM      6  N   UNL     1       0.957  14.538  19.269  0.00  0.00    +0.000 NA
ATOM      7  C   UNL     1       1.637  13.503  19.647  0.00  0.00    +0.000 A 
ATOM      8  C   UNL     1       2.516  13.480  20.838  0.00  0.00    +0.000 A 
ATOM      9  C   UNL     1       2.661  14.626  21.506  0.00  0.00    +0.000 A 
ATOM     10  C   UNL     1       2.007  15.867  21.034  0.00  0.00    +0.000 A 
ATOM     11  O   UNL     1       2.262  16.928  21.599  0.00  0.00    +0.000 OA
ENDBRANCH   1   7
BRANCH   3  12
ATOM     12  C   UNL     1      -0.252  11.420  20.316  0.00  0.00    +0.000 A 
ATOM     13  C   UNL     1      -1.423  12.174  20.174  0.00  0.00    +0.000 A 
ATOM     14  C   UNL     1      -2.228  12.440  21.285  0.00  0.00    +0.000 A 
ATOM     15  C   UNL     1      -1.874  11.953  22.542  0.00  0.00    +0.000 A 
ATOM     16  C   UNL     1      -0.722  11.181  22.688  0.00  0.00    +0.000 A 
ATOM     17  C   UNL     1       0.083  10.901  21.577  0.00  0.00    +0.000 A 
ENDBRANCH   3  12
BRANCH   3  18
ATOM     18  C   UNL     1       0.523   9.903  18.567  0.00  0.00    +0.000 C 
BRANCH  18  19
ATOM     19  C   UNL     1       1.666   8.904  18.647  0.00  0.00    +0.000 A 
ATOM     20  C   UNL     1       1.763   8.025  19.740  0.00  0.00    +0.000 A 
ATOM     21  C   UNL     1       2.603   6.898  19.694  0.00  0.00    +0.000 A 
ATOM     22  C   UNL     1       3.351   6.629  18.549  0.00  0.00    +0.000 A 
ATOM     23  C   UNL     1       3.375   7.577  17.525  0.00  0.00    +0.000 A 
ATOM     24  C   UNL     1       2.537   8.704  17.568  0.00  0.00    +0.000 A 
BRANCH  22  25
ATOM     25  O   UNL     1       4.077   5.484  18.322  0.00  0.00    +0.000 OA
BRANCH  25  26
ATOM     26  C   UNL     1       3.312   4.329  17.947  0.00  0.00    +0.000 C 
BRANCH  26  27
ATOM     27  C   UNL     1       2.610   3.684  19.134  0.00  0.00    +0.000 A 
ATOM     28  C   UNL     1       3.367   3.218  20.223  0.00  0.00    +0.000 A 
ATOM     29  C   UNL     1       2.749   2.681  21.355  0.00  0.00    +0.000 A 
ATOM     30  C   UNL     1       1.360   2.611  21.426  0.00  0.00    +0.000 A 
ATOM     31  C   UNL     1       0.592   3.091  20.366  0.00  0.00    +0.000 A 
ATOM     32  C   UNL     1       1.211   3.630  19.231  0.00  0.00    +0.000 A 
ENDBRANCH  26  27
ENDBRANCH  25  26
ENDBRANCH  22  25
ENDBRANCH  18  19
ENDBRANCH   3  18
TORSDOF 7
ENDMDL
MODEL 6
REMARK VINA RESULT:      -7.4      3.528     10.024
REMARK  Name = 
REMARK  8 active torsions:
REMARK  status: ('A' for Active; 'I' for Inactive)
REMARK    1  A    between atoms: C_1  and  N_2
REMARK    2  A    between atoms: C_4  and  C_5
REMARK    3  A    between atoms: N_7  and  C_8
REMARK    4  A    between atoms: N_7  and  C_23
REMARK    5  A    between atoms: C_8  and  C_9
REMARK    6  A    between atoms: C_12  and  O_13
REMARK    7  A    between atoms: O_13  and  C_14
REMARK    8  A    between atoms: C_14  and  C_15
REMARK                            x       y       z     vdW  Elec       q    Type
REMARK                         _______ _______ _______ _____ _____    ______ ____
ROOT
ATOM      1  C   UNL     1       1.217  12.645  19.023  0.00  0.00    +0.000 C 
ATOM      2  O   UNL     1       2.056  12.539  18.131  0.00  0.00    +0.000 OA
ATOM      3  N   UNL     1       0.212  11.706  19.303  0.00  0.00    +0.000 N 
ENDROOT
BRANCH   1   7
ATOM      4  C   UNL     1       0.188  17.345  19.624  0.00  0.00    +0.000 C 
ATOM      5  N   UNL     1       0.758  16.150  20.213  0.00  0.00    +0.000 N 
ATOM      6  N   UNL     1       0.569  14.974  19.511  0.00  0.00    +0.000 NA
ATOM      7  C   UNL     1       1.273  13.943  19.852  0.00  0.00    +0.000 A 
ATOM      8  C   UNL     1       2.174  13.907  21.026  0.00  0.00    +0.000 A 
ATOM      9  C   UNL     1       2.314  15.041  21.716  0.00  0.00    +0.000 A 
ATOM     10  C   UNL     1       1.630  16.281  21.285  0.00  0.00    +0.000 A 
ATOM     11  O   UNL     1       1.879  17.333  21.868  0.00  0.00    +0.000 OA
ENDBRANCH   1   7
BRANCH   3  12
ATOM     12  C   UNL     1      -0.685  11.888  20.401  0.00  0.00    +0.000 A 
ATOM     13  C   UNL     1      -1.922  12.507  20.181  0.00  0.00    +0.000 A 
ATOM     14  C   UNL     1      -2.777  12.772  21.254  0.00  0.00    +0.000 A 
ATOM     15  C   UNL     1      -2.408  12.419  22.551  0.00  0.00    +0.000 A 
ATOM     16  C   UNL     1      -1.188  11.781  22.775  0.00  0.00    +0.000 A 
ATOM     17  C   UNL     1      -0.332  11.502  21.704  0.00  0.00    +0.000 A 
ENDBRANCH   3  12
BRANCH   3  18
ATOM     18  C   UNL     1       0.130  10.388  18.655  0.00  0.00    +0.000 C 
BRANCH  18  19
ATOM     19  C   UNL     1       1.165   9.302  18.896  0.00  0.00    +0.000 A 
ATOM     20  C   UNL     1       1.228   8.647  20.138  0.00  0.00    +0.000 A 
ATOM     21  C   UNL     1       1.943   7.445  20.291  0.00  0.00    +0.000 A 
ATOM     22  C   UNL     1       2.599   6.878  19.200  0.00  0.00    +0.000 A 
ATOM     23  C   UNL     1       2.667   7.601  18.008  0.00  0.00    +0.000 A 
ATOM     24  C   UNL     1       1.955   8.802  17.852  0.00  0.00    +0.000 A 
BRANCH  22  25
ATOM     25  O   UNL     1       3.190   5.637  19.182  0.00  0.00    +0.000 OA
BRANCH  25  26
ATOM     26  C   UNL     1       3.292   5.018  17.890  0.00  0.00    +0.000 C 
BRANCH  26  27
ATOM     27  C   UNL     1       4.734   4.875  17.425  0.00  0.00    +0.000 A 
ATOM     28  C   UNL     1       5.785   5.109  18.329  0.00  0.00    +0.000 A 
ATOM     29  C   UNL     1       7.117   4.924  17.951  0.00  0.00    +0.000 A 
ATOM     30  C   UNL     1       7.425   4.490  16.664  0.00  0.00    +0.000 A 
ATOM     31  C   UNL     1       6.395   4.230  15.761  0.00  0.00    +0.000 A 
ATOM     32  C   UNL     1       5.059   4.414  16.139  0.00  0.00    +0.000 A 
ENDBRANCH  26  27
ENDBRANCH  25  26
ENDBRANCH  22  25
ENDBRANCH  18  19
ENDBRANCH   3  18
TORSDOF 7
ENDMDL
MODEL 7
REMARK VINA RESULT:      -7.4      0.623      1.050
REMARK  Name = 
REMARK  8 active torsions:
REMARK  status: ('A' for Active; 'I' for Inactive)
REMARK    1  A    between atoms: C_1  and  N_2
REMARK    2  A    between atoms: C_4  and  C_5
REMARK    3  A    between atoms: N_7  and  C_8
REMARK    4  A    between atoms: N_7  and  C_23
REMARK    5  A    between atoms: C_8  and  C_9
REMARK    6  A    between atoms: C_12  and  O_13
REMARK    7  A    between atoms: O_13  and  C_14
REMARK    8  A    between atoms: C_14  and  C_15
REMARK                            x       y       z     vdW  Elec       q    Type
REMARK                         _______ _______ _______ _____ _____    ______ ____
ROOT
ATOM      1  C   UNL     1       3.791   7.297  17.611  0.00  0.00    +0.000 C 
ATOM      2  O   UNL     1       3.985   8.409  17.126  0.00  0.00    +0.000 OA
ATOM      3  N   UNL     1       2.605   6.883  18.237  0.00  0.00    +0.000 N 
ENDROOT
BRANCH   1   7
ATOM      4  C   UNL     1       7.957   5.566  19.389  0.00  0.00    +0.000 C 
ATOM      5  N   UNL     1       6.920   5.421  18.386  0.00  0.00    +0.000 N 
ATOM      6  N   UNL     1       5.801   6.217  18.547  0.00  0.00    +0.000 NA
ATOM      7  C   UNL     1       4.979   6.318  17.552  0.00  0.00    +0.000 A 
ATOM      8  C   UNL     1       5.096   5.537  16.300  0.00  0.00    +0.000 A 
ATOM      9  C   UNL     1       6.162   4.743  16.178  0.00  0.00    +0.000 A 
ATOM     10  C   UNL     1       7.197   4.695  17.236  0.00  0.00    +0.000 A 
ATOM     11  O   UNL     1       8.223   4.051  17.037  0.00  0.00    +0.000 OA
ENDBRANCH   1   7
BRANCH   3  12
ATOM     12  C   UNL     1       2.451   5.548  18.722  0.00  0.00    +0.000 A 
ATOM     13  C   UNL     1       1.936   4.563  17.869  0.00  0.00    +0.000 A 
ATOM     14  C   UNL     1       1.698   3.272  18.347  0.00  0.00    +0.000 A 
ATOM     15  C   UNL     1       1.973   2.953  19.676  0.00  0.00    +0.000 A 
ATOM     16  C   UNL     1       2.508   3.921  20.525  0.00  0.00    +0.000 A 
ATOM     17  C   UNL     1       2.761   5.213  20.050  0.00  0.00    +0.000 A 
ENDBRANCH   3  12
BRANCH   3  18
ATOM     18  C   UNL     1       1.374   7.689  18.255  0.00  0.00    +0.000 C 
BRANCH  18  19
ATOM     19  C   UNL     1       1.143   8.791  19.276  0.00  0.00    +0.000 A 
ATOM     20  C   UNL     1       0.790  10.085  18.855  0.00  0.00    +0.000 A 
ATOM     21  C   UNL     1       0.268  11.027  19.759  0.00  0.00    +0.000 A 
ATOM     22  C   UNL     1       0.083  10.684  21.097  0.00  0.00    +0.000 A 
ATOM     23  C   UNL     1       0.573   9.458  21.550  0.00  0.00    +0.000 A 
ATOM     24  C   UNL     1       1.095   8.515  20.649  0.00  0.00    +0.000 A 
BRANCH  22  25
ATOM     25  O   UNL     1      -0.562  11.454  22.036  0.00  0.00    +0.000 OA
BRANCH  25  26
ATOM     26  C   UNL     1      -1.374  12.517  21.513  0.00  0.00    +0.000 C 
BRANCH  26  27
ATOM     27  C   UNL     1      -2.687  12.672  22.270  0.00  0.00    +0.000 A 
ATOM     28  C   UNL     1      -3.873  12.933  21.562  0.00  0.00    +0.000 A 
ATOM     29  C   UNL     1      -5.103  13.016  22.220  0.00  0.00    +0.000 A 
ATOM     30  C   UNL     1      -5.172  12.828  23.598  0.00  0.00    +0.000 A 
ATOM     31  C   UNL     1      -4.009  12.544  24.312  0.00  0.00    +0.000 A 
ATOM     32  C   UNL     1      -2.776  12.460  23.654  0.00  0.00    +0.000 A 
ENDBRANCH  26  27
ENDBRANCH  25  26
ENDBRANCH  22  25
ENDBRANCH  18  19
ENDBRANCH   3  18
TORSDOF 7
ENDMDL
MODEL 8
REMARK VINA RESULT:      -7.4      3.654      9.840
REMARK  Name = 
REMARK  8 active torsions:
REMARK  status: ('A' for Active; 'I' for Inactive)
REMARK    1  A    between atoms: C_1  and  N_2
REMARK    2  A    between atoms: C_4  and  C_5
REMARK    3  A    between atoms: N_7  and  C_8
REMARK    4  A    between atoms: N_7  and  C_23
REMARK    5  A    between atoms: C_8  and  C_9
REMARK    6  A    between atoms: C_12  and  O_13
REMARK    7  A    between atoms: O_13  and  C_14
REMARK    8  A    between atoms: C_14  and  C_15
REMARK                            x       y       z     vdW  Elec       q    Type
REMARK                         _______ _______ _______ _____ _____    ______ ____
ROOT
ATOM      1  C   UNL     1       1.849  12.541  18.838  0.00  0.00    +0.000 C 
ATOM      2  O   UNL     1       2.683  12.198  18.002  0.00  0.00    +0.000 OA
ATOM      3  N   UNL     1       0.674  11.835  19.145  0.00  0.00    +0.000 N 
ENDROOT
BRANCH   1   7
ATOM      4  C   UNL     1       1.855  17.389  18.913  0.00  0.00    +0.000 C 
ATOM      5  N   UNL     1       2.084  16.170  19.664  0.00  0.00    +0.000 N 
ATOM      6  N   UNL     1       1.700  14.993  19.047  0.00  0.00    +0.000 NA
ATOM      7  C   UNL     1       2.119  13.878  19.553  0.00  0.00    +0.000 A 
ATOM      8  C   UNL     1       2.879  13.777  20.820  0.00  0.00    +0.000 A 
ATOM      9  C   UNL     1       3.208  14.922  21.422  0.00  0.00    +0.000 A 
ATOM     10  C   UNL     1       2.863  16.226  20.812  0.00  0.00    +0.000 A 
ATOM     11  O   UNL     1       3.288  17.257  21.327  0.00  0.00    +0.000 OA
ENDBRANCH   1   7
BRANCH   3  12
ATOM     12  C   UNL     1      -0.210  12.283  20.174  0.00  0.00    +0.000 A 
ATOM     13  C   UNL     1      -1.229  13.190  19.857  0.00  0.00    +0.000 A 
ATOM     14  C   UNL     1      -2.050  13.706  20.863  0.00  0.00    +0.000 A 
ATOM     15  C   UNL     1      -1.864  13.320  22.190  0.00  0.00    +0.000 A 
ATOM     16  C   UNL     1      -0.866  12.399  22.510  0.00  0.00    +0.000 A 
ATOM     17  C   UNL     1      -0.048  11.870  21.506  0.00  0.00    +0.000 A 
ENDBRANCH   3  12
BRANCH   3  18
ATOM     18  C   UNL     1       0.367  10.500  18.609  0.00  0.00    +0.000 C 
BRANCH  18  19
ATOM     19  C   UNL     1       1.285   9.309  18.831  0.00  0.00    +0.000 A 
ATOM     20  C   UNL     1       1.354   8.694  20.093  0.00  0.00    +0.000 A 
ATOM     21  C   UNL     1       1.935   7.423  20.251  0.00  0.00    +0.000 A 
ATOM     22  C   UNL     1       2.447   6.745  19.147  0.00  0.00    +0.000 A 
ATOM     23  C   UNL     1       2.518   7.413  17.923  0.00  0.00    +0.000 A 
ATOM     24  C   UNL     1       1.940   8.683  17.762  0.00  0.00    +0.000 A 
BRANCH  22  25
ATOM     25  O   UNL     1       2.888   5.443  19.144  0.00  0.00    +0.000 OA
BRANCH  25  26
ATOM     26  C   UNL     1       4.193   5.230  19.707  0.00  0.00    +0.000 C 
BRANCH  26  27
ATOM     27  C   UNL     1       5.250   4.967  18.643  0.00  0.00    +0.000 A 
ATOM     28  C   UNL     1       4.867   4.442  17.395  0.00  0.00    +0.000 A 
ATOM     29  C   UNL     1       5.804   4.250  16.376  0.00  0.00    +0.000 A 
ATOM     30  C   UNL     1       7.139   4.589  16.580  0.00  0.00    +0.000 A 
ATOM     31  C   UNL     1       7.531   5.132  17.802  0.00  0.00    +0.000 A 
ATOM     32  C   UNL     1       6.594   5.327  18.825  0.00  0.00    +0.000 A 
ENDBRANCH  26  27
ENDBRANCH  25  26
ENDBRANCH  22  25
ENDBRANCH  18  19
ENDBRANCH   3  18
TORSDOF 7
ENDMDL
MODEL 9
REMARK VINA RESULT:      -7.4      3.467      9.457
REMARK  Name = 
REMARK  8 active torsions:
REMARK  status: ('A' for Active; 'I' for Inactive)
REMARK    1  A    between atoms: C_1  and  N_2
REMARK    2  A    between atoms: C_4  and  C_5
REMARK    3  A    between atoms: N_7  and  C_8
REMARK    4  A    between atoms: N_7  and  C_23
REMARK    5  A    between atoms: C_8  and  C_9
REMARK    6  A    between atoms: C_12  and  O_13
REMARK    7  A    between atoms: O_13  and  C_14
REMARK    8  A    between atoms: C_14  and  C_15
REMARK                            x       y       z     vdW  Elec       q    Type
REMARK                         _______ _______ _______ _____ _____    ______ ____
ROOT
ATOM      1  C   UNL     1       0.952  12.570  19.143  0.00  0.00    +0.000 C 
ATOM      2  O   UNL     1       1.709  12.540  18.175  0.00  0.00    +0.000 OA
ATOM      3  N   UNL     1       0.054  11.552  19.499  0.00  0.00    +0.000 N 
ENDROOT
BRANCH   1   7
ATOM      4  C   UNL     1      -0.096  17.264  19.760  0.00  0.00    +0.000 C 
ATOM      5  N   UNL     1       0.458  16.063  20.354  0.00  0.00    +0.000 N 
ATOM      6  N   UNL     1       0.289  14.894  19.635  0.00  0.00    +0.000 NA
ATOM      7  C   UNL     1       0.984  13.860  19.986  0.00  0.00    +0.000 A 
ATOM      8  C   UNL     1       1.853  13.814  21.183  0.00  0.00    +0.000 A 
ATOM      9  C   UNL     1       1.973  14.941  21.888  0.00  0.00    +0.000 A 
ATOM     10  C   UNL     1       1.300  16.185  21.450  0.00  0.00    +0.000 A 
ATOM     11  O   UNL     1       1.532  17.231  22.050  0.00  0.00    +0.000 OA
ENDBRANCH   1   7
BRANCH   3  12
ATOM     12  C   UNL     1      -0.748  11.652  20.678  0.00  0.00    +0.000 A 
ATOM     13  C   UNL     1      -1.940  12.385  20.637  0.00  0.00    +0.000 A 
ATOM     14  C   UNL     1      -2.695  12.567  21.799  0.00  0.00    +0.000 A 
ATOM     15  C   UNL     1      -2.269  12.017  23.007  0.00  0.00    +0.000 A 
ATOM     16  C   UNL     1      -1.095  11.265  23.051  0.00  0.00    +0.000 A 
ATOM     17  C   UNL     1      -0.340  11.069  21.889  0.00  0.00    +0.000 A 
ENDBRANCH   3  12
BRANCH   3  18
ATOM     18  C   UNL     1       0.014  10.239  18.838  0.00  0.00    +0.000 C 
BRANCH  18  19
ATOM     19  C   UNL     1       1.206   9.296  18.841  0.00  0.00    +0.000 A 
ATOM     20  C   UNL     1       1.413   8.419  19.919  0.00  0.00    +0.000 A 
ATOM     21  C   UNL     1       2.302   7.333  19.814  0.00  0.00    +0.000 A 
ATOM     22  C   UNL     1       2.990   7.106  18.624  0.00  0.00    +0.000 A 
ATOM     23  C   UNL     1       2.904   8.058  17.607  0.00  0.00    +0.000 A 
ATOM     24  C   UNL     1       2.018   9.143  17.709  0.00  0.00    +0.000 A 
BRANCH  22  25
ATOM     25  O   UNL     1       3.755   5.999  18.344  0.00  0.00    +0.000 OA
BRANCH  25  26
ATOM     26  C   UNL     1       3.024   4.812  17.996  0.00  0.00    +0.000 C 
BRANCH  26  27
ATOM     27  C   UNL     1       2.528   4.054  19.219  0.00  0.00    +0.000 A 
ATOM     28  C   UNL     1       1.149   3.845  19.399  0.00  0.00    +0.000 A 
ATOM     29  C   UNL     1       0.667   3.097  20.476  0.00  0.00    +0.000 A 
ATOM     30  C   UNL     1       1.555   2.534  21.389  0.00  0.00    +0.000 A 
ATOM     31  C   UNL     1       2.926   2.711  21.214  0.00  0.00    +0.000 A 
ATOM     32  C   UNL     1       3.412   3.459  20.133  0.00  0.00    +0.000 A 
ENDBRANCH  26  27
ENDBRANCH  25  26
ENDBRANCH  22  25
ENDBRANCH  18  19
ENDBRANCH   3  18
TORSDOF 7
ENDMDL
