MODEL 1
REMARK VINA RESULT:      -8.0      0.000      0.000
REMARK  Name = 
REMARK  3 active torsions:
REMARK  status: ('A' for Active; 'I' for Inactive)
REMARK    1  A    between atoms: C_4  and  N_5
REMARK    2  A    between atoms: N_11  and  C_12
REMARK    3  A    between atoms: C_12  and  C_13
REMARK                            x       y       z     vdW  Elec       q    Type
REMARK                         _______ _______ _______ _____ _____    ______ ____
ROOT
ATOM      1  N   UNL     1      -1.032  10.910  18.407  0.00  0.00    +0.000 N 
ATOM      2  C   UNL     1      -0.014  11.936  18.566  0.00  0.00    +0.000 C 
ATOM      3  C   UNL     1       1.223  11.143  18.944  0.00  0.00    +0.000 C 
ATOM      4  C   UNL     1       0.696   9.898  19.674  0.00  0.00    +0.000 C 
ATOM      5  C   UNL     1       0.936   9.985  21.179  0.00  0.00    +0.000 C 
ATOM      6  C   UNL     1       1.190   8.546  21.583  0.00  0.00    +0.000 C 
ATOM      7  N   UNL     1       1.889   7.943  20.448  0.00  0.00    +0.000 NA
ATOM      8  C   UNL     1       1.384   8.598  19.230  0.00  0.00    +0.000 C 
ATOM      9  C   UNL     1      -0.815   9.839  19.370  0.00  0.00    +0.000 C 
ENDROOT
BRANCH   1  13
ATOM     10  O   UNL     1      -3.591  10.014  14.530  0.00  0.00    +0.000 OA
ATOM     11  C   UNL     1      -3.533  10.547  15.637  0.00  0.00    +0.000 A 
ATOM     12  C   UNL     1      -2.285  10.533  16.417  0.00  0.00    +0.000 A 
ATOM     13  C   UNL     1      -2.194  11.050  17.666  0.00  0.00    +0.000 A 
ATOM     14  C   UNL     1      -3.417  11.666  18.256  0.00  0.00    +0.000 A 
ATOM     15  N   UNL     1      -3.366  12.163  19.514  0.00  0.00    +0.000 NA
ATOM     16  C   UNL     1      -4.509  12.651  20.046  0.00  0.00    +0.000 A 
ATOM     17  C   UNL     1      -5.713  12.688  19.361  0.00  0.00    +0.000 A 
ATOM     18  C   UNL     1      -5.749  12.219  18.059  0.00  0.00    +0.000 A 
ATOM     19  C   UNL     1      -4.593  11.690  17.493  0.00  0.00    +0.000 A 
ATOM     20  N   UNL     1      -4.614  11.157  16.205  0.00  0.00    +0.000 N 
ATOM     21  H   UNL     1      -5.469  11.149  15.659  0.00  0.00    +0.000 HD
ENDBRANCH   1  13
BRANCH   7  22
ATOM     22  C   UNL     1       1.708   6.476  20.397  0.00  0.00    +0.000 C 
BRANCH  22  23
ATOM     23  C   UNL     1       2.525   5.813  19.301  0.00  0.00    +0.000 A 
ATOM     24  C   UNL     1       1.913   5.021  18.320  0.00  0.00    +0.000 A 
ATOM     25  C   UNL     1       2.675   4.202  17.486  0.00  0.00    +0.000 A 
ATOM     26  C   UNL     1       4.065   4.255  17.544  0.00  0.00    +0.000 A 
ATOM     27  C   UNL     1       4.687   5.145  18.416  0.00  0.00    +0.000 A 
ATOM     28  C   UNL     1       3.927   5.905  19.307  0.00  0.00    +0.000 A 
ENDBRANCH  22  23
ENDBRANCH   7  22
TORSDOF 3
ENDMDL
MODEL 2
REMARK VINA RESULT:      -7.9      0.936      1.155
REMARK  Name = 
REMARK  3 active torsions:
REMARK  status: ('A' for Active; 'I' for Inactive)
REMARK    1  A    between atoms: C_4  and  N_5
REMARK    2  A    between atoms: N_11  and  C_12
REMARK    3  A    between atoms: C_12  and  C_13
REMARK                            x       y       z     vdW  Elec       q    Type
REMARK                         _______ _______ _______ _____ _____    ______ ____
ROOT
ATOM      1  N   UNL     1      -1.159  10.929  18.174  0.00  0.00    +0.000 N 
ATOM      2  C   UNL     1      -0.338  12.026  18.659  0.00  0.00    +0.000 C 
ATOM      3  C   UNL     1       1.017  11.378  18.873  0.00  0.00    +0.000 C 
ATOM      4  C   UNL     1       0.712   9.910  19.209  0.00  0.00    +0.000 C 
ATOM      5  C   UNL     1       0.926   9.617  20.693  0.00  0.00    +0.000 C 
ATOM      6  C   UNL     1       1.426   8.186  20.705  0.00  0.00    +0.000 C 
ATOM      7  N   UNL     1       2.225   8.045  19.488  0.00  0.00    +0.000 NA
ATOM      8  C   UNL     1       1.621   8.917  18.467  0.00  0.00    +0.000 C 
ATOM      9  C   UNL     1      -0.763   9.686  18.821  0.00  0.00    +0.000 C 
ENDROOT
BRANCH   1  13
ATOM     10  O   UNL     1      -3.696  10.128  14.261  0.00  0.00    +0.000 OA
ATOM     11  C   UNL     1      -3.650  10.618  15.388  0.00  0.00    +0.000 A 
ATOM     12  C   UNL     1      -2.403  10.602  16.168  0.00  0.00    +0.000 A 
ATOM     13  C   UNL     1      -2.324  11.072  17.437  0.00  0.00    +0.000 A 
ATOM     14  C   UNL     1      -3.560  11.636  18.049  0.00  0.00    +0.000 A 
ATOM     15  N   UNL     1      -3.521  12.085  19.326  0.00  0.00    +0.000 NA
ATOM     16  C   UNL     1      -4.674  12.526  19.876  0.00  0.00    +0.000 A 
ATOM     17  C   UNL     1      -5.880  12.563  19.190  0.00  0.00    +0.000 A 
ATOM     18  C   UNL     1      -5.905  12.144  17.872  0.00  0.00    +0.000 A 
ATOM     19  C   UNL     1      -4.736  11.664  17.287  0.00  0.00    +0.000 A 
ATOM     20  N   UNL     1      -4.745  11.181  15.979  0.00  0.00    +0.000 N 
ATOM     21  H   UNL     1      -5.599  11.176  15.432  0.00  0.00    +0.000 HD
ENDBRANCH   1  13
BRANCH   7  22
ATOM     22  C   UNL     1       2.305   6.640  19.032  0.00  0.00    +0.000 C 
BRANCH  22  23
ATOM     23  C   UNL     1       3.700   6.238  18.583  0.00  0.00    +0.000 A 
ATOM     24  C   UNL     1       4.217   6.667  17.353  0.00  0.00    +0.000 A 
ATOM     25  C   UNL     1       5.369   6.088  16.823  0.00  0.00    +0.000 A 
ATOM     26  C   UNL     1       6.086   5.158  17.570  0.00  0.00    +0.000 A 
ATOM     27  C   UNL     1       5.661   4.829  18.855  0.00  0.00    +0.000 A 
ATOM     28  C   UNL     1       4.463   5.346  19.354  0.00  0.00    +0.000 A 
ENDBRANCH  22  23
ENDBRANCH   7  22
TORSDOF 3
ENDMDL
MODEL 3
REMARK VINA RESULT:      -7.7      0.978      1.528
REMARK  Name = 
REMARK  3 active torsions:
REMARK  status: ('A' for Active; 'I' for Inactive)
REMARK    1  A    between atoms: C_4  and  N_5
REMARK    2  A    between atoms: N_11  and  C_12
REMARK    3  A    between atoms: C_12  and  C_13
REMARK                            x       y       z     vdW  Elec       q    Type
REMARK                         _______ _______ _______ _____ _____    ______ ____
ROOT
ATOM      1  N   UNL     1      -0.913  10.738  18.091  0.00  0.00    +0.000 N 
ATOM      2  C   UNL     1      -0.020  11.768  18.595  0.00  0.00    +0.000 C 
ATOM      3  C   UNL     1       1.331  11.079  18.614  0.00  0.00    +0.000 C 
ATOM      4  C   UNL     1       1.021   9.591  18.838  0.00  0.00    +0.000 C 
ATOM      5  C   UNL     1       1.368   9.153  20.259  0.00  0.00    +0.000 C 
ATOM      6  C   UNL     1       1.829   7.718  20.087  0.00  0.00    +0.000 C 
ATOM      7  N   UNL     1       2.503   7.682  18.790  0.00  0.00    +0.000 NA
ATOM      8  C   UNL     1       1.827   8.658  17.920  0.00  0.00    +0.000 C 
ATOM      9  C   UNL     1      -0.490   9.431  18.576  0.00  0.00    +0.000 C 
ENDROOT
BRANCH   1  13
ATOM     10  O   UNL     1      -3.939  10.120  14.507  0.00  0.00    +0.000 OA
ATOM     11  C   UNL     1      -3.724  10.614  15.612  0.00  0.00    +0.000 A 
ATOM     12  C   UNL     1      -2.402  10.500  16.246  0.00  0.00    +0.000 A 
ATOM     13  C   UNL     1      -2.139  10.971  17.490  0.00  0.00    +0.000 A 
ATOM     14  C   UNL     1      -3.247  11.642  18.228  0.00  0.00    +0.000 A 
ATOM     15  N   UNL     1      -3.025  12.095  19.484  0.00  0.00    +0.000 NA
ATOM     16  C   UNL     1      -4.068  12.636  20.154  0.00  0.00    +0.000 A 
ATOM     17  C   UNL     1      -5.336  12.767  19.609  0.00  0.00    +0.000 A 
ATOM     18  C   UNL     1      -5.547  12.342  18.309  0.00  0.00    +0.000 A 
ATOM     19  C   UNL     1      -4.496  11.761  17.604  0.00  0.00    +0.000 A 
ATOM     20  N   UNL     1      -4.695  11.271  16.314  0.00  0.00    +0.000 N 
ATOM     21  H   UNL     1      -5.603  11.332  15.868  0.00  0.00    +0.000 HD
ENDBRANCH   1  13
BRANCH   7  22
ATOM     22  C   UNL     1       2.501   6.326  18.198  0.00  0.00    +0.000 C 
BRANCH  22  23
ATOM     23  C   UNL     1       3.881   5.691  18.158  0.00  0.00    +0.000 A 
ATOM     24  C   UNL     1       4.665   5.589  19.315  0.00  0.00    +0.000 A 
ATOM     25  C   UNL     1       6.018   5.261  19.233  0.00  0.00    +0.000 A 
ATOM     26  C   UNL     1       6.575   4.915  18.005  0.00  0.00    +0.000 A 
ATOM     27  C   UNL     1       5.771   4.873  16.868  0.00  0.00    +0.000 A 
ATOM     28  C   UNL     1       4.437   5.280  16.935  0.00  0.00    +0.000 A 
ENDBRANCH  22  23
ENDBRANCH   7  22
TORSDOF 3
ENDMDL
MODEL 4
REMARK VINA RESULT:      -7.6      2.544      8.519
REMARK  Name = 
REMARK  3 active torsions:
REMARK  status: ('A' for Active; 'I' for Inactive)
REMARK    1  A    between atoms: C_4  and  N_5
REMARK    2  A    between atoms: N_11  and  C_12
REMARK    3  A    between atoms: C_12  and  C_13
REMARK                            x       y       z     vdW  Elec       q    Type
REMARK                         _______ _______ _______ _____ _____    ______ ____
ROOT
ATOM      1  N   UNL     1       2.187   7.769  18.943  0.00  0.00    +0.000 N 
ATOM      2  C   UNL     1       2.084   7.714  20.391  0.00  0.00    +0.000 C 
ATOM      3  C   UNL     1       0.822   8.504  20.682  0.00  0.00    +0.000 C 
ATOM      4  C   UNL     1       0.718   9.529  19.542  0.00  0.00    +0.000 C 
ATOM      5  C   UNL     1       1.076  10.935  20.017  0.00  0.00    +0.000 C 
ATOM      6  C   UNL     1       0.172  11.831  19.192  0.00  0.00    +0.000 C 
ATOM      7  N   UNL     1      -1.066  11.073  19.014  0.00  0.00    +0.000 NA
ATOM      8  C   UNL     1      -0.700   9.648  18.961  0.00  0.00    +0.000 C 
ATOM      9  C   UNL     1       1.707   9.056  18.458  0.00  0.00    +0.000 C 
ENDROOT
BRANCH   1  13
ATOM     10  O   UNL     1       5.809   6.746  16.075  0.00  0.00    +0.000 OA
ATOM     11  C   UNL     1       4.815   6.345  16.678  0.00  0.00    +0.000 A 
ATOM     12  C   UNL     1       3.959   7.277  17.428  0.00  0.00    +0.000 A 
ATOM     13  C   UNL     1       2.893   6.871  18.160  0.00  0.00    +0.000 A 
ATOM     14  C   UNL     1       2.583   5.413  18.186  0.00  0.00    +0.000 A 
ATOM     15  N   UNL     1       1.544   4.972  18.934  0.00  0.00    +0.000 NA
ATOM     16  C   UNL     1       1.331   3.637  18.993  0.00  0.00    +0.000 A 
ATOM     17  C   UNL     1       2.106   2.711  18.311  0.00  0.00    +0.000 A 
ATOM     18  C   UNL     1       3.139   3.171  17.514  0.00  0.00    +0.000 A 
ATOM     19  C   UNL     1       3.395   4.538  17.451  0.00  0.00    +0.000 A 
ATOM     20  N   UNL     1       4.466   5.025  16.703  0.00  0.00    +0.000 N 
ATOM     21  H   UNL     1       5.072   4.394  16.190  0.00  0.00    +0.000 HD
ENDBRANCH   1  13
BRANCH   7  22
ATOM     22  C   UNL     1      -1.809  11.493  17.806  0.00  0.00    +0.000 C 
BRANCH  22  23
ATOM     23  C   UNL     1      -3.297  11.677  18.056  0.00  0.00    +0.000 A 
ATOM     24  C   UNL     1      -4.230  11.524  17.022  0.00  0.00    +0.000 A 
ATOM     25  C   UNL     1      -5.548  11.950  17.181  0.00  0.00    +0.000 A 
ATOM     26  C   UNL     1      -5.979  12.426  18.416  0.00  0.00    +0.000 A 
ATOM     27  C   UNL     1      -5.098  12.449  19.494  0.00  0.00    +0.000 A 
ATOM     28  C   UNL     1      -3.758  12.099  19.315  0.00  0.00    +0.000 A 
ENDBRANCH  22  23
ENDBRANCH   7  22
TORSDOF 3
ENDMDL
MODEL 5
REMARK VINA RESULT:      -7.6      2.496      8.247
REMARK  Name = 
REMARK  3 active torsions:
REMARK  status: ('A' for Active; 'I' for Inactive)
REMARK    1  A    between atoms: C_4  and  N_5
REMARK    2  A    between atoms: N_11  and  C_12
REMARK    3  A    between atoms: C_12  and  C_13
REMARK                            x       y       z     vdW  Elec       q    Type
REMARK                         _______ _______ _______ _____ _____    ______ ____
ROOT
ATOM      1  N   UNL     1       1.809   7.639  19.766  0.00  0.00    +0.000 N 
ATOM      2  C   UNL     1       1.533   7.591  21.192  0.00  0.00    +0.000 C 
ATOM      3  C   UNL     1       0.425   8.613  21.367  0.00  0.00    +0.000 C 
ATOM      4  C   UNL     1       0.654   9.649  20.255  0.00  0.00    +0.000 C 
ATOM      5  C   UNL     1       1.224  10.952  20.812  0.00  0.00    +0.000 C 
ATOM      6  C   UNL     1       0.612  12.016  19.921  0.00  0.00    +0.000 C 
ATOM      7  N   UNL     1      -0.721  11.520  19.584  0.00  0.00    +0.000 NA
ATOM      8  C   UNL     1      -0.637  10.051  19.526  0.00  0.00    +0.000 C 
ATOM      9  C   UNL     1       1.649   9.000  19.273  0.00  0.00    +0.000 C 
ENDROOT
BRANCH   1  13
ATOM     10  O   UNL     1       4.931   6.175  16.526  0.00  0.00    +0.000 OA
ATOM     11  C   UNL     1       4.073   5.873  17.354  0.00  0.00    +0.000 A 
ATOM     12  C   UNL     1       3.317   6.911  18.071  0.00  0.00    +0.000 A 
ATOM     13  C   UNL     1       2.411   6.626  19.038  0.00  0.00    +0.000 A 
ATOM     14  C   UNL     1       2.174   5.192  19.368  0.00  0.00    +0.000 A 
ATOM     15  N   UNL     1       1.299   4.875  20.350  0.00  0.00    +0.000 NA
ATOM     16  C   UNL     1       1.158   3.570  20.675  0.00  0.00    +0.000 A 
ATOM     17  C   UNL     1       1.845   2.548  20.036  0.00  0.00    +0.000 A 
ATOM     18  C   UNL     1       2.706   2.874  19.003  0.00  0.00    +0.000 A 
ATOM     19  C   UNL     1       2.888   4.212  18.663  0.00  0.00    +0.000 A 
ATOM     20  N   UNL     1       3.792   4.573  17.666  0.00  0.00    +0.000 N 
ATOM     21  H   UNL     1       4.330   3.870  17.171  0.00  0.00    +0.000 HD
ENDBRANCH   1  13
BRANCH   7  22
ATOM     22  C   UNL     1      -1.226  12.091  18.316  0.00  0.00    +0.000 C 
BRANCH  22  23
ATOM     23  C   UNL     1      -2.670  11.719  18.028  0.00  0.00    +0.000 A 
ATOM     24  C   UNL     1      -3.043  11.158  16.799  0.00  0.00    +0.000 A 
ATOM     25  C   UNL     1      -4.386  11.068  16.434  0.00  0.00    +0.000 A 
ATOM     26  C   UNL     1      -5.378  11.429  17.341  0.00  0.00    +0.000 A 
ATOM     27  C   UNL     1      -5.024  11.854  18.619  0.00  0.00    +0.000 A 
ATOM     28  C   UNL     1      -3.679  12.021  18.958  0.00  0.00    +0.000 A 
ENDBRANCH  22  23
ENDBRANCH   7  22
TORSDOF 3
ENDMDL
MODEL 6
REMARK VINA RESULT:      -7.6      2.411      8.433
REMARK  Name = 
REMARK  3 active torsions:
REMARK  status: ('A' for Active; 'I' for Inactive)
REMARK    1  A    between atoms: C_4  and  N_5
REMARK    2  A    between atoms: N_11  and  C_12
REMARK    3  A    between atoms: C_12  and  C_13
REMARK                            x       y       z     vdW  Elec       q    Type
REMARK                         _______ _______ _______ _____ _____    ______ ____
ROOT
ATOM      1  N   UNL     1       1.797   7.991  19.728  0.00  0.00    +0.000 N 
ATOM      2  C   UNL     1       1.727   8.096  21.176  0.00  0.00    +0.000 C 
ATOM      3  C   UNL     1       0.511   8.976  21.403  0.00  0.00    +0.000 C 
ATOM      4  C   UNL     1       0.429   9.877  20.162  0.00  0.00    +0.000 C 
ATOM      5  C   UNL     1       0.867  11.306  20.477  0.00  0.00    +0.000 C 
ATOM      6  C   UNL     1      -0.013  12.153  19.577  0.00  0.00    +0.000 C 
ATOM      7  N   UNL     1      -1.290  11.444  19.505  0.00  0.00    +0.000 NA
ATOM      8  C   UNL     1      -0.994  10.005  19.599  0.00  0.00    +0.000 C 
ATOM      9  C   UNL     1       1.368   9.242  19.117  0.00  0.00    +0.000 C 
ENDROOT
BRANCH   1  13
ATOM     10  O   UNL     1       4.881   6.553  16.441  0.00  0.00    +0.000 OA
ATOM     11  C   UNL     1       4.082   6.243  17.324  0.00  0.00    +0.000 A 
ATOM     12  C   UNL     1       3.282   7.268  18.012  0.00  0.00    +0.000 A 
ATOM     13  C   UNL     1       2.440   6.980  19.034  0.00  0.00    +0.000 A 
ATOM     14  C   UNL     1       2.322   5.556  19.457  0.00  0.00    +0.000 A 
ATOM     15  N   UNL     1       1.512   5.240  20.495  0.00  0.00    +0.000 NA
ATOM     16  C   UNL     1       1.480   3.951  20.901  0.00  0.00    +0.000 A 
ATOM     17  C   UNL     1       2.212   2.942  20.293  0.00  0.00    +0.000 A 
ATOM     18  C   UNL     1       3.004   3.263  19.204  0.00  0.00    +0.000 A 
ATOM     19  C   UNL     1       3.074   4.587  18.779  0.00  0.00    +0.000 A 
ATOM     20  N   UNL     1       3.909   4.949  17.723  0.00  0.00    +0.000 N 
ATOM     21  H   UNL     1       4.475   4.255  17.246  0.00  0.00    +0.000 HD
ENDBRANCH   1  13
BRANCH   7  22
ATOM     22  C   UNL     1      -2.041  11.771  18.273  0.00  0.00    +0.000 C 
BRANCH  22  23
ATOM     23  C   UNL     1      -3.543  11.844  18.493  0.00  0.00    +0.000 A 
ATOM     24  C   UNL     1      -4.078  12.429  19.648  0.00  0.00    +0.000 A 
ATOM     25  C   UNL     1      -5.422  12.258  19.978  0.00  0.00    +0.000 A 
ATOM     26  C   UNL     1      -6.275  11.599  19.096  0.00  0.00    +0.000 A 
ATOM     27  C   UNL     1      -5.785  11.138  17.876  0.00  0.00    +0.000 A 
ATOM     28  C   UNL     1      -4.423  11.237  17.582  0.00  0.00    +0.000 A 
ENDBRANCH  22  23
ENDBRANCH   7  22
TORSDOF 3
ENDMDL
MODEL 7
REMARK VINA RESULT:      -7.5      3.020      5.024
REMARK  Name = 
REMARK  3 active torsions:
REMARK  status: ('A' for Active; 'I' for Inactive)
REMARK    1  A    between atoms: C_4  and  N_5
REMARK    2  A    between atoms: N_11  and  C_12
REMARK    3  A    between atoms: C_12  and  C_13
REMARK                            x       y       z     vdW  Elec       q    Type
REMARK                         _______ _______ _______ _____ _____    ______ ____
ROOT
ATOM      1  N   UNL     1       1.747   8.515  19.435  0.00  0.00    +0.000 N 
ATOM      2  C   UNL     1       2.485   9.202  18.389  0.00  0.00    +0.000 C 
ATOM      3  C   UNL     1       2.726   8.113  17.360  0.00  0.00    +0.000 C 
ATOM      4  C   UNL     1       2.784   6.805  18.164  0.00  0.00    +0.000 C 
ATOM      5  C   UNL     1       4.214   6.281  18.280  0.00  0.00    +0.000 C 
ATOM      6  C   UNL     1       4.042   4.774  18.271  0.00  0.00    +0.000 C 
ATOM      7  N   UNL     1       2.905   4.520  17.386  0.00  0.00    +0.000 NA
ATOM      8  C   UNL     1       1.985   5.661  17.521  0.00  0.00    +0.000 C 
ATOM      9  C   UNL     1       2.218   7.142  19.558  0.00  0.00    +0.000 C 
ENDROOT
BRANCH   1  13
ATOM     10  O   UNL     1       0.588   9.460  23.924  0.00  0.00    +0.000 OA
ATOM     11  C   UNL     1       0.353   9.639  22.730  0.00  0.00    +0.000 A 
ATOM     12  C   UNL     1       1.110   8.917  21.695  0.00  0.00    +0.000 A 
ATOM     13  C   UNL     1       0.930   9.131  20.369  0.00  0.00    +0.000 A 
ATOM     14  C   UNL     1      -0.091  10.136  19.959  0.00  0.00    +0.000 A 
ATOM     15  N   UNL     1      -0.272  10.395  18.642  0.00  0.00    +0.000 NA
ATOM     16  C   UNL     1      -1.155  11.362  18.304  0.00  0.00    +0.000 A 
ATOM     17  C   UNL     1      -1.895  12.076  19.235  0.00  0.00    +0.000 A 
ATOM     18  C   UNL     1      -1.738  11.777  20.577  0.00  0.00    +0.000 A 
ATOM     19  C   UNL     1      -0.819  10.802  20.955  0.00  0.00    +0.000 A 
ATOM     20  N   UNL     1      -0.598  10.521  22.302  0.00  0.00    +0.000 N 
ATOM     21  H   UNL     1      -1.104  11.018  23.027  0.00  0.00    +0.000 HD
ENDBRANCH   1  13
BRANCH   7  22
ATOM     22  C   UNL     1       2.235   3.237  17.693  0.00  0.00    +0.000 C 
BRANCH  22  23
ATOM     23  C   UNL     1       2.177   2.936  19.181  0.00  0.00    +0.000 A 
ATOM     24  C   UNL     1       1.056   3.281  19.947  0.00  0.00    +0.000 A 
ATOM     25  C   UNL     1       1.107   3.254  21.340  0.00  0.00    +0.000 A 
ATOM     26  C   UNL     1       2.242   2.769  21.984  0.00  0.00    +0.000 A 
ATOM     27  C   UNL     1       3.311   2.288  21.231  0.00  0.00    +0.000 A 
ATOM     28  C   UNL     1       3.292   2.390  19.838  0.00  0.00    +0.000 A 
ENDBRANCH  22  23
ENDBRANCH   7  22
TORSDOF 3
ENDMDL
MODEL 8
REMARK VINA RESULT:      -7.4      1.851      2.829
REMARK  Name = 
REMARK  3 active torsions:
REMARK  status: ('A' for Active; 'I' for Inactive)
REMARK    1  A    between atoms: C_4  and  N_5
REMARK    2  A    between atoms: N_11  and  C_12
REMARK    3  A    between atoms: C_12  and  C_13
REMARK                            x       y       z     vdW  Elec       q    Type
REMARK                         _______ _______ _______ _____ _____    ______ ____
ROOT
ATOM      1  N   UNL     1      -0.977  11.116  19.548  0.00  0.00    +0.000 N 
ATOM      2  C   UNL     1       0.060  12.026  20.003  0.00  0.00    +0.000 C 
ATOM      3  C   UNL     1       1.341  11.258  19.730  0.00  0.00    +0.000 C 
ATOM      4  C   UNL     1       0.954   9.776  19.847  0.00  0.00    +0.000 C 
ATOM      5  C   UNL     1       1.482   9.158  21.140  0.00  0.00    +0.000 C 
ATOM      6  C   UNL     1       1.797   7.728  20.748  0.00  0.00    +0.000 C 
ATOM      7  N   UNL     1       2.257   7.799  19.361  0.00  0.00    +0.000 NA
ATOM      8  C   UNL     1       1.533   8.908  18.719  0.00  0.00    +0.000 C 
ATOM      9  C   UNL     1      -0.587   9.739  19.820  0.00  0.00    +0.000 C 
ENDROOT
BRANCH   1  13
ATOM     10  O   UNL     1      -4.958  13.547  20.344  0.00  0.00    +0.000 OA
ATOM     11  C   UNL     1      -4.330  12.794  19.601  0.00  0.00    +0.000 A 
ATOM     12  C   UNL     1      -3.014  12.268  19.994  0.00  0.00    +0.000 A 
ATOM     13  C   UNL     1      -2.260  11.490  19.181  0.00  0.00    +0.000 A 
ATOM     14  C   UNL     1      -2.807  11.154  17.836  0.00  0.00    +0.000 A 
ATOM     15  N   UNL     1      -2.064  10.405  16.988  0.00  0.00    +0.000 NA
ATOM     16  C   UNL     1      -2.558  10.175  15.750  0.00  0.00    +0.000 A 
ATOM     17  C   UNL     1      -3.790  10.646  15.322  0.00  0.00    +0.000 A 
ATOM     18  C   UNL     1      -4.565  11.374  16.208  0.00  0.00    +0.000 A 
ATOM     19  C   UNL     1      -4.072  11.645  17.482  0.00  0.00    +0.000 A 
ATOM     20  N   UNL     1      -4.805  12.425  18.374  0.00  0.00    +0.000 N 
ATOM     21  H   UNL     1      -5.709  12.804  18.113  0.00  0.00    +0.000 HD
ENDBRANCH   1  13
BRANCH   7  22
ATOM     22  C   UNL     1       2.058   6.523  18.641  0.00  0.00    +0.000 C 
BRANCH  22  23
ATOM     23  C   UNL     1       3.289   6.075  17.871  0.00  0.00    +0.000 A 
ATOM     24  C   UNL     1       4.201   7.007  17.357  0.00  0.00    +0.000 A 
ATOM     25  C   UNL     1       5.171   6.621  16.432  0.00  0.00    +0.000 A 
ATOM     26  C   UNL     1       5.317   5.277  16.099  0.00  0.00    +0.000 A 
ATOM     27  C   UNL     1       4.510   4.322  16.712  0.00  0.00    +0.000 A 
ATOM     28  C   UNL     1       3.485   4.715  17.576  0.00  0.00    +0.000 A 
ENDBRANCH  22  23
ENDBRANCH   7  22
TORSDOF 3
ENDMDL
MODEL 9
REMARK VINA RESULT:      -7.3      3.070      5.383
REMARK  Name = 
REMARK  3 active torsions:
REMARK  status: ('A' for Active; 'I' for Inactive)
REMARK    1  A    between atoms: C_4  and  N_5
REMARK    2  A    between atoms: N_11  and  C_12
REMARK    3  A    between atoms: C_12  and  C_13
REMARK                            x       y       z     vdW  Elec       q    Type
REMARK                         _______ _______ _______ _____ _____    ______ ____
ROOT
ATOM      1  N   UNL     1       2.357   7.896  19.019  0.00  0.00    +0.000 N 
ATOM      2  C   UNL     1       3.065   8.533  17.922  0.00  0.00    +0.000 C 
ATOM      3  C   UNL     1       3.434   7.368  17.022  0.00  0.00    +0.000 C 
ATOM      4  C   UNL     1       3.581   6.163  17.964  0.00  0.00    +0.000 C 
ATOM      5  C   UNL     1       5.047   5.786  18.168  0.00  0.00    +0.000 C 
ATOM      6  C   UNL     1       5.008   4.277  18.317  0.00  0.00    +0.000 C 
ATOM      7  N   UNL     1       3.927   3.829  17.440  0.00  0.00    +0.000 NA
ATOM      8  C   UNL     1       2.907   4.890  17.430  0.00  0.00    +0.000 C 
ATOM      9  C   UNL     1       2.943   6.592  19.300  0.00  0.00    +0.000 C 
ENDROOT
BRANCH   1  13
ATOM     10  O   UNL     1       1.004   9.248  23.347  0.00  0.00    +0.000 OA
ATOM     11  C   UNL     1       0.779   9.256  22.138  0.00  0.00    +0.000 A 
ATOM     12  C   UNL     1       1.630   8.499  21.207  0.00  0.00    +0.000 A 
ATOM     13  C   UNL     1       1.460   8.530  19.863  0.00  0.00    +0.000 A 
ATOM     14  C   UNL     1       0.349   9.364  19.322  0.00  0.00    +0.000 A 
ATOM     15  N   UNL     1       0.172   9.442  17.982  0.00  0.00    +0.000 NA
ATOM     16  C   UNL     1      -0.799  10.261  17.520  0.00  0.00    +0.000 A 
ATOM     17  C   UNL     1      -1.630  11.000  18.349  0.00  0.00    +0.000 A 
ATOM     18  C   UNL     1      -1.474  10.884  19.719  0.00  0.00    +0.000 A 
ATOM     19  C   UNL     1      -0.467  10.064  20.222  0.00  0.00    +0.000 A 
ATOM     20  N   UNL     1      -0.248   9.973  21.596  0.00  0.00    +0.000 N 
ATOM     21  H   UNL     1      -0.819  10.498  22.250  0.00  0.00    +0.000 HD
ENDBRANCH   1  13
BRANCH   7  22
ATOM     22  C   UNL     1       3.363   2.530  17.867  0.00  0.00    +0.000 C 
BRANCH  22  23
ATOM     23  C   UNL     1       2.609   2.613  19.184  0.00  0.00    +0.000 A 
ATOM     24  C   UNL     1       1.240   2.909  19.217  0.00  0.00    +0.000 A 
ATOM     25  C   UNL     1       0.612   3.249  20.415  0.00  0.00    +0.000 A 
ATOM     26  C   UNL     1       1.319   3.181  21.613  0.00  0.00    +0.000 A 
ATOM     27  C   UNL     1       2.643   2.748  21.610  0.00  0.00    +0.000 A 
ATOM     28  C   UNL     1       3.295   2.486  20.403  0.00  0.00    +0.000 A 
ENDBRANCH  22  23
ENDBRANCH   7  22
TORSDOF 3
ENDMDL
