MODEL 1
REMARK VINA RESULT:      -8.9      0.000      0.000
REMARK  Name = 
REMARK  2 active torsions:
REMARK  status: ('A' for Active; 'I' for Inactive)
REMARK    1  A    between atoms: N_3  and  C_4
REMARK    2  A    between atoms: C_18  and  N_19
REMARK                            x       y       z     vdW  Elec       q    Type
REMARK                         _______ _______ _______ _____ _____    ______ ____
ROOT
ATOM      1  O   UNL     1       2.182   8.831  18.807  0.00  0.00    +0.000 OA
ATOM      2  C   UNL     1       1.964   7.827  19.476  0.00  0.00    +0.000 C 
ATOM      3  N   UNL     1       1.289   7.840  20.679  0.00  0.00    +0.000 N 
ATOM      4  N   UNL     1       2.413   6.578  19.073  0.00  0.00    +0.000 N 
ATOM      5  C   UNL     1       2.155   5.296  19.713  0.00  0.00    +0.000 C 
ATOM      6  C   UNL     1       3.478   4.691  20.152  0.00  0.00    +0.000 C 
ATOM      7  C   UNL     1       4.442   4.544  18.970  0.00  0.00    +0.000 C 
ATOM      8  C   UNL     1       4.617   5.848  18.149  0.00  0.00    +0.000 C 
ATOM      9  C   UNL     1       3.232   6.484  17.860  0.00  0.00    +0.000 C 
ATOM     10  H   UNL     1       1.441   7.064  21.295  0.00  0.00    +0.000 HD
ENDROOT
BRANCH   3  11
ATOM     11  C   UNL     1       0.672   8.962  21.267  0.00  0.00    +0.000 A 
ATOM     12  C   UNL     1       0.702   9.252  22.624  0.00  0.00    +0.000 A 
ATOM     13  N   UNL     1       0.061  10.299  23.186  0.00  0.00    +0.000 NA
ATOM     14  C   UNL     1      -0.660  11.098  22.372  0.00  0.00    +0.000 A 
ATOM     15  C   UNL     1      -0.723  10.921  20.988  0.00  0.00    +0.000 A 
ATOM     16  C   UNL     1      -0.030   9.837  20.436  0.00  0.00    +0.000 A 
ATOM     17  C   UNL     1      -1.590  11.793  20.117  0.00  0.00    +0.000 C 
ATOM     18  C   UNL     1      -2.038  13.085  20.803  0.00  0.00    +0.000 C 
ATOM     19  C   UNL     1      -2.510  12.807  22.225  0.00  0.00    +0.000 C 
ATOM     20  C   UNL     1      -1.364  12.239  23.054  0.00  0.00    +0.000 C 
ENDBRANCH   3  11
BRANCH   8  21
ATOM     21  N   UNL     1       5.370   5.520  16.891  0.00  0.00    +0.000 NA
ATOM     22  C   UNL     1       4.852   4.379  16.088  0.00  0.00    +0.000 C 
ATOM     23  C   UNL     1       6.041   3.649  15.445  0.00  0.00    +0.000 C 
ATOM     24  C   UNL     1       7.240   4.579  15.444  0.00  0.00    +0.000 C 
ATOM     25  S   UNL     1       7.078   5.478  16.961  0.00  0.00    +0.000 S 
ATOM     26  O   UNL     1       7.572   6.824  16.811  0.00  0.00    +0.000 OA
ATOM     27  O   UNL     1       7.457   4.609  18.051  0.00  0.00    +0.000 OA
ENDBRANCH   8  21
TORSDOF 2
ENDMDL
MODEL 2
REMARK VINA RESULT:      -8.4      3.771      9.623
REMARK  Name = 
REMARK  2 active torsions:
REMARK  status: ('A' for Active; 'I' for Inactive)
REMARK    1  A    between atoms: N_3  and  C_4
REMARK    2  A    between atoms: C_18  and  N_19
REMARK                            x       y       z     vdW  Elec       q    Type
REMARK                         _______ _______ _______ _____ _____    ______ ____
ROOT
ATOM      1  O   UNL     1       1.158   9.195  19.103  0.00  0.00    +0.000 OA
ATOM      2  C   UNL     1       1.267   8.889  20.285  0.00  0.00    +0.000 C 
ATOM      3  N   UNL     1       1.713   7.657  20.718  0.00  0.00    +0.000 N 
ATOM      4  N   UNL     1       0.918   9.771  21.297  0.00  0.00    +0.000 N 
ATOM      5  C   UNL     1       1.077   9.580  22.731  0.00  0.00    +0.000 C 
ATOM      6  C   UNL     1      -0.294   9.617  23.386  0.00  0.00    +0.000 C 
ATOM      7  C   UNL     1      -1.025  10.927  23.072  0.00  0.00    +0.000 C 
ATOM      8  C   UNL     1      -1.071  11.262  21.559  0.00  0.00    +0.000 C 
ATOM      9  C   UNL     1       0.334  11.065  20.929  0.00  0.00    +0.000 C 
ATOM     10  H   UNL     1       1.464   7.385  21.650  0.00  0.00    +0.000 HD
ENDROOT
BRANCH   3  11
ATOM     11  C   UNL     1       2.195   6.619  19.898  0.00  0.00    +0.000 A 
ATOM     12  C   UNL     1       2.966   6.812  18.760  0.00  0.00    +0.000 A 
ATOM     13  N   UNL     1       3.378   5.814  17.948  0.00  0.00    +0.000 NA
ATOM     14  C   UNL     1       2.998   4.559  18.264  0.00  0.00    +0.000 A 
ATOM     15  C   UNL     1       2.259   4.248  19.407  0.00  0.00    +0.000 A 
ATOM     16  C   UNL     1       1.867   5.305  20.238  0.00  0.00    +0.000 A 
ATOM     17  C   UNL     1       1.797   2.843  19.695  0.00  0.00    +0.000 C 
ATOM     18  C   UNL     1       2.537   1.781  18.881  0.00  0.00    +0.000 C 
ATOM     19  C   UNL     1       2.659   2.204  17.422  0.00  0.00    +0.000 C 
ATOM     20  C   UNL     1       3.472   3.490  17.317  0.00  0.00    +0.000 C 
ENDBRANCH   3  11
BRANCH   8  21
ATOM     21  N   UNL     1      -1.577  12.667  21.398  0.00  0.00    +0.000 NA
ATOM     22  C   UNL     1      -0.977  13.694  22.292  0.00  0.00    +0.000 C 
ATOM     23  C   UNL     1      -2.054  14.729  22.648  0.00  0.00    +0.000 C 
ATOM     24  C   UNL     1      -3.176  14.633  21.630  0.00  0.00    +0.000 C 
ATOM     25  S   UNL     1      -3.266  12.904  21.261  0.00  0.00    +0.000 S 
ATOM     26  O   UNL     1      -3.644  12.695  19.886  0.00  0.00    +0.000 OA
ATOM     27  O   UNL     1      -3.901  12.232  22.371  0.00  0.00    +0.000 OA
ENDBRANCH   8  21
TORSDOF 2
ENDMDL
MODEL 3
REMARK VINA RESULT:      -8.4      3.636      9.530
REMARK  Name = 
REMARK  2 active torsions:
REMARK  status: ('A' for Active; 'I' for Inactive)
REMARK    1  A    between atoms: N_3  and  C_4
REMARK    2  A    between atoms: C_18  and  N_19
REMARK                            x       y       z     vdW  Elec       q    Type
REMARK                         _______ _______ _______ _____ _____    ______ ____
ROOT
ATOM      1  O   UNL     1       1.341   9.288  18.981  0.00  0.00    +0.000 OA
ATOM      2  C   UNL     1       1.427   8.886  20.136  0.00  0.00    +0.000 C 
ATOM      3  N   UNL     1       1.855   7.618  20.475  0.00  0.00    +0.000 N 
ATOM      4  N   UNL     1       1.070   9.687  21.209  0.00  0.00    +0.000 N 
ATOM      5  C   UNL     1       1.203   9.380  22.626  0.00  0.00    +0.000 C 
ATOM      6  C   UNL     1      -0.178   9.378  23.260  0.00  0.00    +0.000 C 
ATOM      7  C   UNL     1      -0.893  10.716  23.041  0.00  0.00    +0.000 C 
ATOM      8  C   UNL     1      -0.910  11.172  21.559  0.00  0.00    +0.000 C 
ATOM      9  C   UNL     1       0.504  11.013  20.939  0.00  0.00    +0.000 C 
ATOM     10  H   UNL     1       1.588   7.275  21.378  0.00  0.00    +0.000 HD
ENDROOT
BRANCH   3  11
ATOM     11  C   UNL     1       2.341   6.645  19.581  0.00  0.00    +0.000 A 
ATOM     12  C   UNL     1       2.015   5.297  19.636  0.00  0.00    +0.000 A 
ATOM     13  N   UNL     1       2.529   4.361  18.809  0.00  0.00    +0.000 NA
ATOM     14  C   UNL     1       3.425   4.771  17.886  0.00  0.00    +0.000 A 
ATOM     15  C   UNL     1       3.791   6.107  17.717  0.00  0.00    +0.000 A 
ATOM     16  C   UNL     1       3.223   7.054  18.578  0.00  0.00    +0.000 A 
ATOM     17  C   UNL     1       4.842   6.521  16.720  0.00  0.00    +0.000 C 
ATOM     18  C   UNL     1       5.144   5.447  15.674  0.00  0.00    +0.000 C 
ATOM     19  C   UNL     1       5.285   4.078  16.328  0.00  0.00    +0.000 C 
ATOM     20  C   UNL     1       3.976   3.685  17.003  0.00  0.00    +0.000 C 
ENDBRANCH   3  11
BRANCH   8  21
ATOM     21  N   UNL     1      -1.401  12.591  21.504  0.00  0.00    +0.000 NA
ATOM     22  C   UNL     1      -0.754  13.553  22.438  0.00  0.00    +0.000 C 
ATOM     23  C   UNL     1      -1.803  14.576  22.897  0.00  0.00    +0.000 C 
ATOM     24  C   UNL     1      -2.961  14.559  21.916  0.00  0.00    +0.000 C 
ATOM     25  S   UNL     1      -3.090  12.857  21.444  0.00  0.00    +0.000 S 
ATOM     26  O   UNL     1      -3.519  12.739  20.074  0.00  0.00    +0.000 OA
ATOM     27  O   UNL     1      -3.694  12.125  22.533  0.00  0.00    +0.000 OA
ENDBRANCH   8  21
TORSDOF 2
ENDMDL
MODEL 4
REMARK VINA RESULT:      -8.4      3.436      9.322
REMARK  Name = 
REMARK  2 active torsions:
REMARK  status: ('A' for Active; 'I' for Inactive)
REMARK    1  A    between atoms: N_3  and  C_4
REMARK    2  A    between atoms: C_18  and  N_19
REMARK                            x       y       z     vdW  Elec       q    Type
REMARK                         _______ _______ _______ _____ _____    ______ ____
ROOT
ATOM      1  O   UNL     1       1.407   9.291  18.937  0.00  0.00    +0.000 OA
ATOM      2  C   UNL     1       1.494   8.855  20.080  0.00  0.00    +0.000 C 
ATOM      3  N   UNL     1       1.938   7.584  20.384  0.00  0.00    +0.000 N 
ATOM      4  N   UNL     1       1.121   9.619  21.176  0.00  0.00    +0.000 N 
ATOM      5  C   UNL     1       1.253   9.272  22.584  0.00  0.00    +0.000 C 
ATOM      6  C   UNL     1      -0.131   9.233  23.211  0.00  0.00    +0.000 C 
ATOM      7  C   UNL     1      -0.862  10.567  23.029  0.00  0.00    +0.000 C 
ATOM      8  C   UNL     1      -0.879  11.067  21.561  0.00  0.00    +0.000 C 
ATOM      9  C   UNL     1       0.538  10.945  20.942  0.00  0.00    +0.000 C 
ATOM     10  H   UNL     1       1.672   7.211  21.275  0.00  0.00    +0.000 HD
ENDROOT
BRANCH   3  11
ATOM     11  C   UNL     1       2.441   6.645  19.464  0.00  0.00    +0.000 A 
ATOM     12  C   UNL     1       2.126   5.293  19.472  0.00  0.00    +0.000 A 
ATOM     13  N   UNL     1       2.656   4.389  18.620  0.00  0.00    +0.000 NA
ATOM     14  C   UNL     1       3.557   4.836  17.720  0.00  0.00    +0.000 A 
ATOM     15  C   UNL     1       3.912   6.180  17.597  0.00  0.00    +0.000 A 
ATOM     16  C   UNL     1       3.328   7.094  18.483  0.00  0.00    +0.000 A 
ATOM     17  C   UNL     1       4.969   6.635  16.624  0.00  0.00    +0.000 C 
ATOM     18  C   UNL     1       5.291   5.598  15.547  0.00  0.00    +0.000 C 
ATOM     19  C   UNL     1       5.437   4.209  16.158  0.00  0.00    +0.000 C 
ATOM     20  C   UNL     1       4.125   3.784  16.807  0.00  0.00    +0.000 C 
ENDBRANCH   3  11
BRANCH   8  21
ATOM     21  N   UNL     1      -1.390  12.480  21.546  0.00  0.00    +0.000 NA
ATOM     22  C   UNL     1      -2.216  12.898  22.711  0.00  0.00    +0.000 C 
ATOM     23  C   UNL     1      -3.294  13.878  22.225  0.00  0.00    +0.000 C 
ATOM     24  C   UNL     1      -2.869  14.441  20.881  0.00  0.00    +0.000 C 
ATOM     25  S   UNL     1      -2.059  13.079  20.090  0.00  0.00    +0.000 S 
ATOM     26  O   UNL     1      -0.981  13.544  19.253  0.00  0.00    +0.000 OA
ATOM     27  O   UNL     1      -3.065  12.144  19.644  0.00  0.00    +0.000 OA
ENDBRANCH   8  21
TORSDOF 2
ENDMDL
MODEL 5
REMARK VINA RESULT:      -8.1      3.677      9.222
REMARK  Name = 
REMARK  2 active torsions:
REMARK  status: ('A' for Active; 'I' for Inactive)
REMARK    1  A    between atoms: N_3  and  C_4
REMARK    2  A    between atoms: C_18  and  N_19
REMARK                            x       y       z     vdW  Elec       q    Type
REMARK                         _______ _______ _______ _____ _____    ______ ____
ROOT
ATOM      1  O   UNL     1       1.400   9.099  19.219  0.00  0.00    +0.000 OA
ATOM      2  C   UNL     1       1.342   8.812  20.409  0.00  0.00    +0.000 C 
ATOM      3  N   UNL     1       1.628   7.558  20.909  0.00  0.00    +0.000 N 
ATOM      4  N   UNL     1       0.951   9.743  21.360  0.00  0.00    +0.000 N 
ATOM      5  C   UNL     1       0.922   9.573  22.806  0.00  0.00    +0.000 C 
ATOM      6  C   UNL     1      -0.509   9.738  23.291  0.00  0.00    +0.000 C 
ATOM      7  C   UNL     1      -1.084  11.095  22.874  0.00  0.00    +0.000 C 
ATOM      8  C   UNL     1      -0.921  11.398  21.362  0.00  0.00    +0.000 C 
ATOM      9  C   UNL     1       0.526  11.072  20.908  0.00  0.00    +0.000 C 
ATOM     10  H   UNL     1       1.248   7.329  21.808  0.00  0.00    +0.000 HD
ENDROOT
BRANCH   3  11
ATOM     11  C   UNL     1       2.114   6.465  20.166  0.00  0.00    +0.000 A 
ATOM     12  C   UNL     1       3.140   6.545  19.234  0.00  0.00    +0.000 A 
ATOM     13  N   UNL     1       3.563   5.503  18.486  0.00  0.00    +0.000 NA
ATOM     14  C   UNL     1       2.933   4.321  18.652  0.00  0.00    +0.000 A 
ATOM     15  C   UNL     1       1.919   4.121  19.591  0.00  0.00    +0.000 A 
ATOM     16  C   UNL     1       1.520   5.217  20.364  0.00  0.00    +0.000 A 
ATOM     17  C   UNL     1       1.193   2.805  19.706  0.00  0.00    +0.000 C 
ATOM     18  C   UNL     1       1.923   1.647  19.023  0.00  0.00    +0.000 C 
ATOM     19  C   UNL     1       2.431   2.062  17.647  0.00  0.00    +0.000 C 
ATOM     20  C   UNL     1       3.435   3.200  17.783  0.00  0.00    +0.000 C 
ENDBRANCH   3  11
BRANCH   8  21
ATOM     21  N   UNL     1      -1.285  12.836  21.123  0.00  0.00    +0.000 NA
ATOM     22  C   UNL     1      -1.187  13.319  19.718  0.00  0.00    +0.000 C 
ATOM     23  C   UNL     1      -0.735  14.787  19.732  0.00  0.00    +0.000 C 
ATOM     24  C   UNL     1      -1.000  15.365  21.110  0.00  0.00    +0.000 C 
ATOM     25  S   UNL     1      -0.675  14.012  22.205  0.00  0.00    +0.000 S 
ATOM     26  O   UNL     1      -1.545  14.066  23.354  0.00  0.00    +0.000 OA
ATOM     27  O   UNL     1       0.755  13.831  22.299  0.00  0.00    +0.000 OA
ENDBRANCH   8  21
TORSDOF 2
ENDMDL
MODEL 6
REMARK VINA RESULT:      -8.1      0.963      1.106
REMARK  Name = 
REMARK  2 active torsions:
REMARK  status: ('A' for Active; 'I' for Inactive)
REMARK    1  A    between atoms: N_3  and  C_4
REMARK    2  A    between atoms: C_18  and  N_19
REMARK                            x       y       z     vdW  Elec       q    Type
REMARK                         _______ _______ _______ _____ _____    ______ ____
ROOT
ATOM      1  O   UNL     1       2.142   8.747  19.035  0.00  0.00    +0.000 OA
ATOM      2  C   UNL     1       1.830   7.769  19.705  0.00  0.00    +0.000 C 
ATOM      3  N   UNL     1       1.089   7.842  20.867  0.00  0.00    +0.000 N 
ATOM      4  N   UNL     1       2.229   6.490  19.348  0.00  0.00    +0.000 N 
ATOM      5  C   UNL     1       1.862   5.236  19.991  0.00  0.00    +0.000 C 
ATOM      6  C   UNL     1       3.121   4.565  20.515  0.00  0.00    +0.000 C 
ATOM      7  C   UNL     1       4.140   4.343  19.393  0.00  0.00    +0.000 C 
ATOM      8  C   UNL     1       4.437   5.620  18.565  0.00  0.00    +0.000 C 
ATOM      9  C   UNL     1       3.108   6.327  18.186  0.00  0.00    +0.000 C 
ATOM     10  H   UNL     1       1.161   7.070  21.502  0.00  0.00    +0.000 HD
ENDROOT
BRANCH   3  11
ATOM     11  C   UNL     1       0.505   9.007  21.401  0.00  0.00    +0.000 A 
ATOM     12  C   UNL     1       0.512   9.341  22.748  0.00  0.00    +0.000 A 
ATOM     13  N   UNL     1      -0.098  10.432  23.259  0.00  0.00    +0.000 NA
ATOM     14  C   UNL     1      -0.765  11.231  22.400  0.00  0.00    +0.000 A 
ATOM     15  C   UNL     1      -0.800  11.011  21.022  0.00  0.00    +0.000 A 
ATOM     16  C   UNL     1      -0.139   9.882  20.524  0.00  0.00    +0.000 A 
ATOM     17  C   UNL     1      -1.608  11.887  20.099  0.00  0.00    +0.000 C 
ATOM     18  C   UNL     1      -2.019  13.219  20.730  0.00  0.00    +0.000 C 
ATOM     19  C   UNL     1      -2.538  13.009  22.148  0.00  0.00    +0.000 C 
ATOM     20  C   UNL     1      -1.438  12.423  23.025  0.00  0.00    +0.000 C 
ENDBRANCH   3  11
BRANCH   8  21
ATOM     21  N   UNL     1       5.240   5.227  17.357  0.00  0.00    +0.000 NA
ATOM     22  C   UNL     1       6.235   4.137  17.549  0.00  0.00    +0.000 C 
ATOM     23  C   UNL     1       7.454   4.420  16.659  0.00  0.00    +0.000 C 
ATOM     24  C   UNL     1       7.048   5.401  15.575  0.00  0.00    +0.000 C 
ATOM     25  S   UNL     1       5.895   6.473  16.385  0.00  0.00    +0.000 S 
ATOM     26  O   UNL     1       4.876   6.915  15.466  0.00  0.00    +0.000 OA
ATOM     27  O   UNL     1       6.631   7.369  17.247  0.00  0.00    +0.000 OA
ENDBRANCH   8  21
TORSDOF 2
ENDMDL
MODEL 7
REMARK VINA RESULT:      -8.0      3.483      9.210
REMARK  Name = 
REMARK  2 active torsions:
REMARK  status: ('A' for Active; 'I' for Inactive)
REMARK    1  A    between atoms: N_3  and  C_4
REMARK    2  A    between atoms: C_18  and  N_19
REMARK                            x       y       z     vdW  Elec       q    Type
REMARK                         _______ _______ _______ _____ _____    ______ ____
ROOT
ATOM      1  O   UNL     1       1.408   9.230  18.765  0.00  0.00    +0.000 OA
ATOM      2  C   UNL     1       1.518   8.847  19.925  0.00  0.00    +0.000 C 
ATOM      3  N   UNL     1       1.976   7.593  20.277  0.00  0.00    +0.000 N 
ATOM      4  N   UNL     1       1.160   9.657  20.991  0.00  0.00    +0.000 N 
ATOM      5  C   UNL     1       1.319   9.374  22.411  0.00  0.00    +0.000 C 
ATOM      6  C   UNL     1      -0.053   9.355  23.064  0.00  0.00    +0.000 C 
ATOM      7  C   UNL     1      -0.797  10.675  22.835  0.00  0.00    +0.000 C 
ATOM      8  C   UNL     1      -0.843  11.109  21.347  0.00  0.00    +0.000 C 
ATOM      9  C   UNL     1       0.564  10.967  20.709  0.00  0.00    +0.000 C 
ATOM     10  H   UNL     1       1.728   7.258  21.188  0.00  0.00    +0.000 HD
ENDROOT
BRANCH   3  11
ATOM     11  C   UNL     1       2.469   6.616  19.391  0.00  0.00    +0.000 A 
ATOM     12  C   UNL     1       2.150   5.267  19.456  0.00  0.00    +0.000 A 
ATOM     13  N   UNL     1       2.671   4.328  18.636  0.00  0.00    +0.000 NA
ATOM     14  C   UNL     1       3.565   4.736  17.711  0.00  0.00    +0.000 A 
ATOM     15  C   UNL     1       3.923   6.073  17.532  0.00  0.00    +0.000 A 
ATOM     16  C   UNL     1       3.348   7.023  18.386  0.00  0.00    +0.000 A 
ATOM     17  C   UNL     1       4.973   6.486  16.533  0.00  0.00    +0.000 C 
ATOM     18  C   UNL     1       5.283   5.405  15.495  0.00  0.00    +0.000 C 
ATOM     19  C   UNL     1       5.431   4.042  16.160  0.00  0.00    +0.000 C 
ATOM     20  C   UNL     1       4.123   3.646  16.837  0.00  0.00    +0.000 C 
ENDBRANCH   3  11
BRANCH   8  21
ATOM     21  N   UNL     1      -1.363  12.517  21.278  0.00  0.00    +0.000 NA
ATOM     22  C   UNL     1      -1.518  13.099  19.917  0.00  0.00    +0.000 C 
ATOM     23  C   UNL     1      -1.199  14.600  19.984  0.00  0.00    +0.000 C 
ATOM     24  C   UNL     1      -1.306  15.056  21.428  0.00  0.00    +0.000 C 
ATOM     25  S   UNL     1      -0.705  13.672  22.354  0.00  0.00    +0.000 S 
ATOM     26  O   UNL     1      -1.397  13.564  23.614  0.00  0.00    +0.000 OA
ATOM     27  O   UNL     1       0.733  13.628  22.230  0.00  0.00    +0.000 OA
ENDBRANCH   8  21
TORSDOF 2
ENDMDL
MODEL 8
REMARK VINA RESULT:      -7.9      1.143      1.532
REMARK  Name = 
REMARK  2 active torsions:
REMARK  status: ('A' for Active; 'I' for Inactive)
REMARK    1  A    between atoms: N_3  and  C_4
REMARK    2  A    between atoms: C_18  and  N_19
REMARK                            x       y       z     vdW  Elec       q    Type
REMARK                         _______ _______ _______ _____ _____    ______ ____
ROOT
ATOM      1  O   UNL     1       2.347   9.417  18.069  0.00  0.00    +0.000 OA
ATOM      2  C   UNL     1       2.042   8.525  18.854  0.00  0.00    +0.000 C 
ATOM      3  N   UNL     1       1.330   8.739  20.016  0.00  0.00    +0.000 N 
ATOM      4  N   UNL     1       2.422   7.209  18.637  0.00  0.00    +0.000 N 
ATOM      5  C   UNL     1       2.059   6.041  19.427  0.00  0.00    +0.000 C 
ATOM      6  C   UNL     1       3.324   5.421  19.996  0.00  0.00    +0.000 C 
ATOM      7  C   UNL     1       4.315   5.060  18.884  0.00  0.00    +0.000 C 
ATOM      8  C   UNL     1       4.603   6.231  17.909  0.00  0.00    +0.000 C 
ATOM      9  C   UNL     1       3.272   6.905  17.481  0.00  0.00    +0.000 C 
ATOM     10  H   UNL     1       1.410   8.044  20.733  0.00  0.00    +0.000 HD
ENDROOT
BRANCH   3  11
ATOM     11  C   UNL     1       0.769   9.964  20.426  0.00  0.00    +0.000 A 
ATOM     12  C   UNL     1       1.081  11.196  19.868  0.00  0.00    +0.000 A 
ATOM     13  N   UNL     1       0.579  12.371  20.304  0.00  0.00    +0.000 NA
ATOM     14  C   UNL     1      -0.263  12.336  21.357  0.00  0.00    +0.000 A 
ATOM     15  C   UNL     1      -0.676  11.150  21.966  0.00  0.00    +0.000 A 
ATOM     16  C   UNL     1      -0.153   9.947  21.475  0.00  0.00    +0.000 A 
ATOM     17  C   UNL     1      -1.567  11.150  23.181  0.00  0.00    +0.000 C 
ATOM     18  C   UNL     1      -2.280  12.484  23.412  0.00  0.00    +0.000 C 
ATOM     19  C   UNL     1      -1.315  13.651  23.236  0.00  0.00    +0.000 C 
ATOM     20  C   UNL     1      -0.778  13.675  21.810  0.00  0.00    +0.000 C 
ENDBRANCH   3  11
BRANCH   8  21
ATOM     21  N   UNL     1       5.374   5.694  16.735  0.00  0.00    +0.000 NA
ATOM     22  C   UNL     1       4.797   4.503  16.054  0.00  0.00    +0.000 C 
ATOM     23  C   UNL     1       5.947   3.613  15.560  0.00  0.00    +0.000 C 
ATOM     24  C   UNL     1       7.216   4.444  15.504  0.00  0.00    +0.000 C 
ATOM     25  S   UNL     1       7.070   5.534  16.891  0.00  0.00    +0.000 S 
ATOM     26  O   UNL     1       7.674   6.810  16.603  0.00  0.00    +0.000 OA
ATOM     27  O   UNL     1       7.337   4.781  18.095  0.00  0.00    +0.000 OA
ENDBRANCH   8  21
TORSDOF 2
ENDMDL
MODEL 9
REMARK VINA RESULT:      -7.9      5.682      8.182
REMARK  Name = 
REMARK  2 active torsions:
REMARK  status: ('A' for Active; 'I' for Inactive)
REMARK    1  A    between atoms: N_3  and  C_4
REMARK    2  A    between atoms: C_18  and  N_19
REMARK                            x       y       z     vdW  Elec       q    Type
REMARK                         _______ _______ _______ _____ _____    ______ ____
ROOT
ATOM      1  O   UNL     1       8.387   6.870  18.764  0.00  0.00    +0.000 OA
ATOM      2  C   UNL     1       7.582   7.524  18.110  0.00  0.00    +0.000 C 
ATOM      3  N   UNL     1       7.642   8.896  17.971  0.00  0.00    +0.000 N 
ATOM      4  N   UNL     1       6.513   6.920  17.467  0.00  0.00    +0.000 N 
ATOM      5  C   UNL     1       5.537   7.550  16.588  0.00  0.00    +0.000 C 
ATOM      6  C   UNL     1       4.155   7.400  17.203  0.00  0.00    +0.000 C 
ATOM      7  C   UNL     1       3.814   5.928  17.454  0.00  0.00    +0.000 C 
ATOM      8  C   UNL     1       4.911   5.166  18.243  0.00  0.00    +0.000 C 
ATOM      9  C   UNL     1       6.308   5.478  17.646  0.00  0.00    +0.000 C 
ATOM     10  H   UNL     1       6.795   9.364  17.712  0.00  0.00    +0.000 HD
ENDROOT
BRANCH   3  11
ATOM     11  C   UNL     1       8.665   9.730  18.462  0.00  0.00    +0.000 A 
ATOM     12  C   UNL     1       9.063   9.785  19.791  0.00  0.00    +0.000 A 
ATOM     13  N   UNL     1      10.007  10.628  20.262  0.00  0.00    +0.000 NA
ATOM     14  C   UNL     1      10.580  11.475  19.382  0.00  0.00    +0.000 A 
ATOM     15  C   UNL     1      10.285  11.475  18.018  0.00  0.00    +0.000 A 
ATOM     16  C   UNL     1       9.317  10.573  17.559  0.00  0.00    +0.000 A 
ATOM     17  C   UNL     1      10.897  12.477  17.074  0.00  0.00    +0.000 C 
ATOM     18  C   UNL     1      12.127  13.182  17.649  0.00  0.00    +0.000 C 
ATOM     19  C   UNL     1      11.878  13.619  19.088  0.00  0.00    +0.000 C 
ATOM     20  C   UNL     1      11.613  12.401  19.965  0.00  0.00    +0.000 C 
ENDBRANCH   3  11
BRANCH   8  21
ATOM     21  N   UNL     1       4.589   3.698  18.207  0.00  0.00    +0.000 NA
ATOM     22  C   UNL     1       3.805   3.221  17.035  0.00  0.00    +0.000 C 
ATOM     23  C   UNL     1       2.873   2.089  17.494  0.00  0.00    +0.000 C 
ATOM     24  C   UNL     1       3.390   1.536  18.809  0.00  0.00    +0.000 C 
ATOM     25  S   UNL     1       4.029   2.961  19.645  0.00  0.00    +0.000 S 
ATOM     26  O   UNL     1       5.172   2.609  20.450  0.00  0.00    +0.000 OA
ATOM     27  O   UNL     1       2.917   3.738  20.140  0.00  0.00    +0.000 OA
ENDBRANCH   8  21
TORSDOF 2
ENDMDL
