MODEL 1
REMARK VINA RESULT:      -8.2      0.000      0.000
REMARK  Name = 
REMARK  5 active torsions:
REMARK  status: ('A' for Active; 'I' for Inactive)
REMARK    1  A    between atoms: C_1  and  C_2
REMARK    2  A    between atoms: C_4  and  C_5
REMARK    3  A    between atoms: C_5  and  O_6
REMARK    4  A    between atoms: O_6  and  C_7
REMARK    5  A    between atoms: C_11  and  C_12
REMARK                            x       y       z     vdW  Elec       q    Type
REMARK                         _______ _______ _______ _____ _____    ______ ____
ROOT
ATOM      1  C   UNL     1       1.617   8.768  19.239  0.00  0.00    +0.000 A 
ATOM      2  C   UNL     1       1.229   8.449  20.537  0.00  0.00    +0.000 A 
ATOM      3  C   UNL     1       1.529   7.189  21.060  0.00  0.00    +0.000 A 
ATOM      4  C   UNL     1       2.120   6.214  20.251  0.00  0.00    +0.000 A 
ATOM      5  C   UNL     1       2.412   6.500  18.912  0.00  0.00    +0.000 A 
ATOM      6  C   UNL     1       2.254   7.809  18.454  0.00  0.00    +0.000 A 
ENDROOT
BRANCH   5   7
ATOM      7  C   UNL     1       2.858   5.389  18.021  0.00  0.00    +0.000 C 
ATOM      8  O   UNL     1       1.983   4.730  17.467  0.00  0.00    +0.000 OA
ATOM      9  N   UNL     1       4.231   5.164  17.804  0.00  0.00    +0.000 N 
ATOM     10  C   UNL     1       5.354   5.910  18.424  0.00  0.00    +0.000 C 
ATOM     11  C   UNL     1       6.328   6.537  17.415  0.00  0.00    +0.000 C 
ATOM     12  C   UNL     1       6.520   5.595  16.306  0.00  0.00    +0.000 A 
ATOM     13  N   UNL     1       7.425   5.701  15.301  0.00  0.00    +0.000 N 
ATOM     14  N   UNL     1       7.349   4.674  14.439  0.00  0.00    +0.000 NA
ATOM     15  C   UNL     1       6.332   3.936  14.897  0.00  0.00    +0.000 A 
ATOM     16  C   UNL     1       5.757   4.474  16.063  0.00  0.00    +0.000 A 
ATOM     17  C   UNL     1       4.617   4.040  16.923  0.00  0.00    +0.000 C 
ATOM     18  H   UNL     1       8.111   6.431  15.136  0.00  0.00    +0.000 HD
ENDBRANCH   5   7
BRANCH   1  19
ATOM     19  O   UNL     1       1.352   9.948  18.601  0.00  0.00    +0.000 OA
BRANCH  19  20
ATOM     20  C   UNL     1       0.293  10.720  19.178  0.00  0.00    +0.000 C 
BRANCH  20  24
ATOM     21  C   UNL     1      -3.093   9.815  15.694  0.00  0.00    +0.000 C 
ATOM     22  C   UNL     1      -2.248  10.380  16.759  0.00  0.00    +0.000 A 
ATOM     23  N   UNL     1      -1.188   9.873  17.343  0.00  0.00    +0.000 NA
ATOM     24  C   UNL     1      -0.852  10.861  18.238  0.00  0.00    +0.000 A 
ATOM     25  N   UNL     1      -1.667  11.926  18.231  0.00  0.00    +0.000 NA
ATOM     26  O   UNL     1      -2.598  11.609  17.238  0.00  0.00    +0.000 OA
ENDBRANCH  20  24
ENDBRANCH  19  20
ENDBRANCH   1  19
TORSDOF 4
ENDMDL
MODEL 2
REMARK VINA RESULT:      -8.0      2.035      2.593
REMARK  Name = 
REMARK  5 active torsions:
REMARK  status: ('A' for Active; 'I' for Inactive)
REMARK    1  A    between atoms: C_1  and  C_2
REMARK    2  A    between atoms: C_4  and  C_5
REMARK    3  A    between atoms: C_5  and  O_6
REMARK    4  A    between atoms: O_6  and  C_7
REMARK    5  A    between atoms: C_11  and  C_12
REMARK                            x       y       z     vdW  Elec       q    Type
REMARK                         _______ _______ _______ _____ _____    ______ ____
ROOT
ATOM      1  C   UNL     1       2.025   6.427  20.133  0.00  0.00    +0.000 A 
ATOM      2  C   UNL     1       1.357   5.575  21.009  0.00  0.00    +0.000 A 
ATOM      3  C   UNL     1       1.437   4.193  20.828  0.00  0.00    +0.000 A 
ATOM      4  C   UNL     1       2.095   3.666  19.712  0.00  0.00    +0.000 A 
ATOM      5  C   UNL     1       2.675   4.527  18.772  0.00  0.00    +0.000 A 
ATOM      6  C   UNL     1       2.724   5.893  19.052  0.00  0.00    +0.000 A 
ENDROOT
BRANCH   5   7
ATOM      7  C   UNL     1       3.197   3.952  17.497  0.00  0.00    +0.000 C 
ATOM      8  O   UNL     1       2.371   3.511  16.703  0.00  0.00    +0.000 OA
ATOM      9  N   UNL     1       4.577   3.975  17.224  0.00  0.00    +0.000 N 
ATOM     10  C   UNL     1       5.644   4.490  18.118  0.00  0.00    +0.000 C 
ATOM     11  C   UNL     1       6.525   5.579  17.488  0.00  0.00    +0.000 C 
ATOM     12  C   UNL     1       6.772   5.224  16.085  0.00  0.00    +0.000 A 
ATOM     13  N   UNL     1       7.633   5.836  15.233  0.00  0.00    +0.000 N 
ATOM     14  N   UNL     1       7.627   5.274  14.015  0.00  0.00    +0.000 NA
ATOM     15  C   UNL     1       6.697   4.316  14.099  0.00  0.00    +0.000 A 
ATOM     16  C   UNL     1       6.109   4.246  15.376  0.00  0.00    +0.000 A 
ATOM     17  C   UNL     1       5.040   3.378  15.951  0.00  0.00    +0.000 C 
ATOM     18  H   UNL     1       8.241   6.630  15.406  0.00  0.00    +0.000 HD
ENDBRANCH   5   7
BRANCH   1  19
ATOM     19  O   UNL     1       1.995   7.793  20.180  0.00  0.00    +0.000 OA
BRANCH  19  20
ATOM     20  C   UNL     1       1.397   8.342  21.359  0.00  0.00    +0.000 C 
BRANCH  20  24
ATOM     21  C   UNL     1      -1.517  11.747  19.278  0.00  0.00    +0.000 C 
ATOM     22  C   UNL     1      -0.585  10.981  20.120  0.00  0.00    +0.000 A 
ATOM     23  N   UNL     1      -0.148   9.752  19.978  0.00  0.00    +0.000 NA
ATOM     24  C   UNL     1       0.683   9.615  21.065  0.00  0.00    +0.000 A 
ATOM     25  N   UNL     1       0.753  10.693  21.859  0.00  0.00    +0.000 NA
ATOM     26  O   UNL     1      -0.089  11.610  21.225  0.00  0.00    +0.000 OA
ENDBRANCH  20  24
ENDBRANCH  19  20
ENDBRANCH   1  19
TORSDOF 4
ENDMDL
MODEL 3
REMARK VINA RESULT:      -7.8      2.291      3.020
REMARK  Name = 
REMARK  5 active torsions:
REMARK  status: ('A' for Active; 'I' for Inactive)
REMARK    1  A    between atoms: C_1  and  C_2
REMARK    2  A    between atoms: C_4  and  C_5
REMARK    3  A    between atoms: C_5  and  O_6
REMARK    4  A    between atoms: O_6  and  C_7
REMARK    5  A    between atoms: C_11  and  C_12
REMARK                            x       y       z     vdW  Elec       q    Type
REMARK                         _______ _______ _______ _____ _____    ______ ____
ROOT
ATOM      1  C   UNL     1       2.088   6.104  20.177  0.00  0.00    +0.000 A 
ATOM      2  C   UNL     1       1.145   5.312  20.826  0.00  0.00    +0.000 A 
ATOM      3  C   UNL     1       0.985   3.977  20.451  0.00  0.00    +0.000 A 
ATOM      4  C   UNL     1       1.690   3.464  19.359  0.00  0.00    +0.000 A 
ATOM      5  C   UNL     1       2.559   4.291  18.637  0.00  0.00    +0.000 A 
ATOM      6  C   UNL     1       2.827   5.571  19.123  0.00  0.00    +0.000 A 
ENDROOT
BRANCH   5   7
ATOM      7  C   UNL     1       3.148   3.778  17.364  0.00  0.00    +0.000 C 
ATOM      8  O   UNL     1       2.367   3.347  16.521  0.00  0.00    +0.000 OA
ATOM      9  N   UNL     1       4.537   3.848  17.149  0.00  0.00    +0.000 N 
ATOM     10  C   UNL     1       5.552   4.355  18.105  0.00  0.00    +0.000 C 
ATOM     11  C   UNL     1       6.428   5.490  17.552  0.00  0.00    +0.000 C 
ATOM     12  C   UNL     1       6.740   5.195  16.148  0.00  0.00    +0.000 A 
ATOM     13  N   UNL     1       7.618   5.862  15.356  0.00  0.00    +0.000 N 
ATOM     14  N   UNL     1       7.677   5.347  14.119  0.00  0.00    +0.000 NA
ATOM     15  C   UNL     1       6.770   4.363  14.129  0.00  0.00    +0.000 A 
ATOM     16  C   UNL     1       6.134   4.228  15.376  0.00  0.00    +0.000 A 
ATOM     17  C   UNL     1       5.067   3.312  15.875  0.00  0.00    +0.000 C 
ATOM     18  H   UNL     1       8.197   6.663  15.583  0.00  0.00    +0.000 HD
ENDBRANCH   5   7
BRANCH   1  19
ATOM     19  O   UNL     1       2.314   7.430  20.424  0.00  0.00    +0.000 OA
BRANCH  19  20
ATOM     20  C   UNL     1       1.650   8.331  19.531  0.00  0.00    +0.000 C 
BRANCH  20  24
ATOM     21  C   UNL     1      -0.948  10.539  23.108  0.00  0.00    +0.000 C 
ATOM     22  C   UNL     1      -0.335  10.103  21.843  0.00  0.00    +0.000 A 
ATOM     23  N   UNL     1       0.520   9.133  21.619  0.00  0.00    +0.000 NA
ATOM     24  C   UNL     1       0.708   9.224  20.260  0.00  0.00    +0.000 A 
ATOM     25  N   UNL     1       0.022  10.208  19.662  0.00  0.00    +0.000 NA
ATOM     26  O   UNL     1      -0.682  10.793  20.719  0.00  0.00    +0.000 OA
ENDBRANCH  20  24
ENDBRANCH  19  20
ENDBRANCH   1  19
TORSDOF 4
ENDMDL
MODEL 4
REMARK VINA RESULT:      -7.8      5.310      8.069
REMARK  Name = 
REMARK  5 active torsions:
REMARK  status: ('A' for Active; 'I' for Inactive)
REMARK    1  A    between atoms: C_1  and  C_2
REMARK    2  A    between atoms: C_4  and  C_5
REMARK    3  A    between atoms: C_5  and  O_6
REMARK    4  A    between atoms: O_6  and  C_7
REMARK    5  A    between atoms: C_11  and  C_12
REMARK                            x       y       z     vdW  Elec       q    Type
REMARK                         _______ _______ _______ _____ _____    ______ ____
ROOT
ATOM      1  C   UNL     1       6.029   5.732  15.179  0.00  0.00    +0.000 A 
ATOM      2  C   UNL     1       5.186   6.840  15.163  0.00  0.00    +0.000 A 
ATOM      3  C   UNL     1       4.544   7.240  16.337  0.00  0.00    +0.000 A 
ATOM      4  C   UNL     1       4.659   6.472  17.499  0.00  0.00    +0.000 A 
ATOM      5  C   UNL     1       5.421   5.297  17.487  0.00  0.00    +0.000 A 
ATOM      6  C   UNL     1       6.183   5.001  16.356  0.00  0.00    +0.000 A 
ENDROOT
BRANCH   5   7
ATOM      7  C   UNL     1       5.370   4.395  18.676  0.00  0.00    +0.000 C 
ATOM      8  O   UNL     1       6.313   4.449  19.460  0.00  0.00    +0.000 OA
ATOM      9  N   UNL     1       4.251   3.568  18.889  0.00  0.00    +0.000 N 
ATOM     10  C   UNL     1       3.068   3.441  18.002  0.00  0.00    +0.000 C 
ATOM     11  C   UNL     1       1.726   3.726  18.695  0.00  0.00    +0.000 C 
ATOM     12  C   UNL     1       1.769   3.150  20.044  0.00  0.00    +0.000 A 
ATOM     13  N   UNL     1       0.731   3.041  20.912  0.00  0.00    +0.000 N 
ATOM     14  N   UNL     1       1.095   2.469  22.069  0.00  0.00    +0.000 NA
ATOM     15  C   UNL     1       2.410   2.262  21.935  0.00  0.00    +0.000 A 
ATOM     16  C   UNL     1       2.897   2.686  20.685  0.00  0.00    +0.000 A 
ATOM     17  C   UNL     1       4.260   2.685  20.076  0.00  0.00    +0.000 C 
ATOM     18  H   UNL     1      -0.233   3.333  20.790  0.00  0.00    +0.000 HD
ENDBRANCH   5   7
BRANCH   1  19
ATOM     19  O   UNL     1       6.685   5.220  14.095  0.00  0.00    +0.000 OA
BRANCH  19  20
ATOM     20  C   UNL     1       6.684   3.790  14.011  0.00  0.00    +0.000 C 
BRANCH  20  24
ATOM     21  C   UNL     1       3.242   3.288  10.502  0.00  0.00    +0.000 C 
ATOM     22  C   UNL     1       4.421   3.187  11.377  0.00  0.00    +0.000 A 
ATOM     23  N   UNL     1       4.707   3.850  12.474  0.00  0.00    +0.000 NA
ATOM     24  C   UNL     1       5.924   3.314  12.824  0.00  0.00    +0.000 A 
ATOM     25  N   UNL     1       6.389   2.378  11.984  0.00  0.00    +0.000 NA
ATOM     26  O   UNL     1       5.381   2.287  11.019  0.00  0.00    +0.000 OA
ENDBRANCH  20  24
ENDBRANCH  19  20
ENDBRANCH   1  19
TORSDOF 4
ENDMDL
MODEL 5
REMARK VINA RESULT:      -7.8      2.726      7.514
REMARK  Name = 
REMARK  5 active torsions:
REMARK  status: ('A' for Active; 'I' for Inactive)
REMARK    1  A    between atoms: C_1  and  C_2
REMARK    2  A    between atoms: C_4  and  C_5
REMARK    3  A    between atoms: C_5  and  O_6
REMARK    4  A    between atoms: O_6  and  C_7
REMARK    5  A    between atoms: C_11  and  C_12
REMARK                            x       y       z     vdW  Elec       q    Type
REMARK                         _______ _______ _______ _____ _____    ______ ____
ROOT
ATOM      1  C   UNL     1       3.953   5.220  19.263  0.00  0.00    +0.000 A 
ATOM      2  C   UNL     1       3.368   4.077  19.801  0.00  0.00    +0.000 A 
ATOM      3  C   UNL     1       2.123   4.164  20.426  0.00  0.00    +0.000 A 
ATOM      4  C   UNL     1       1.513   5.409  20.609  0.00  0.00    +0.000 A 
ATOM      5  C   UNL     1       2.152   6.572  20.163  0.00  0.00    +0.000 A 
ATOM      6  C   UNL     1       3.315   6.451  19.401  0.00  0.00    +0.000 A 
ENDROOT
BRANCH   5   7
ATOM      7  C   UNL     1       1.578   7.898  20.542  0.00  0.00    +0.000 C 
ATOM      8  O   UNL     1       1.402   8.110  21.738  0.00  0.00    +0.000 OA
ATOM      9  N   UNL     1       1.308   8.860  19.552  0.00  0.00    +0.000 N 
ATOM     10  C   UNL     1       1.493   8.694  18.088  0.00  0.00    +0.000 C 
ATOM     11  C   UNL     1       2.400   9.753  17.443  0.00  0.00    +0.000 C 
ATOM     12  C   UNL     1       2.112  11.053  18.062  0.00  0.00    +0.000 A 
ATOM     13  N   UNL     1       2.579  12.262  17.661  0.00  0.00    +0.000 N 
ATOM     14  N   UNL     1       2.133  13.261  18.438  0.00  0.00    +0.000 NA
ATOM     15  C   UNL     1       1.409  12.646  19.380  0.00  0.00    +0.000 A 
ATOM     16  C   UNL     1       1.371  11.251  19.206  0.00  0.00    +0.000 A 
ATOM     17  C   UNL     1       0.726  10.151  19.982  0.00  0.00    +0.000 C 
ATOM     18  H   UNL     1       3.196  12.481  16.886  0.00  0.00    +0.000 HD
ENDBRANCH   5   7
BRANCH   1  19
ATOM     19  O   UNL     1       5.179   5.274  18.661  0.00  0.00    +0.000 OA
BRANCH  19  20
ATOM     20  C   UNL     1       5.302   6.264  17.633  0.00  0.00    +0.000 C 
BRANCH  20  24
ATOM     21  C   UNL     1       6.315   3.921  13.402  0.00  0.00    +0.000 C 
ATOM     22  C   UNL     1       6.338   4.712  14.643  0.00  0.00    +0.000 A 
ATOM     23  N   UNL     1       5.387   4.915  15.523  0.00  0.00    +0.000 NA
ATOM     24  C   UNL     1       6.012   5.726  16.441  0.00  0.00    +0.000 A 
ATOM     25  N   UNL     1       7.284   6.031  16.147  0.00  0.00    +0.000 NA
ATOM     26  O   UNL     1       7.506   5.348  14.947  0.00  0.00    +0.000 OA
ENDBRANCH  20  24
ENDBRANCH  19  20
ENDBRANCH   1  19
TORSDOF 4
ENDMDL
MODEL 6
REMARK VINA RESULT:      -7.8      2.192      3.116
REMARK  Name = 
REMARK  5 active torsions:
REMARK  status: ('A' for Active; 'I' for Inactive)
REMARK    1  A    between atoms: C_1  and  C_2
REMARK    2  A    between atoms: C_4  and  C_5
REMARK    3  A    between atoms: C_5  and  O_6
REMARK    4  A    between atoms: O_6  and  C_7
REMARK    5  A    between atoms: C_11  and  C_12
REMARK                            x       y       z     vdW  Elec       q    Type
REMARK                         _______ _______ _______ _____ _____    ______ ____
ROOT
ATOM      1  C   UNL     1       1.760   5.231  20.491  0.00  0.00    +0.000 A 
ATOM      2  C   UNL     1       1.273   4.158  21.232  0.00  0.00    +0.000 A 
ATOM      3  C   UNL     1       1.561   2.851  20.832  0.00  0.00    +0.000 A 
ATOM      4  C   UNL     1       2.243   2.617  19.634  0.00  0.00    +0.000 A 
ATOM      5  C   UNL     1       2.638   3.695  18.832  0.00  0.00    +0.000 A 
ATOM      6  C   UNL     1       2.485   4.991  19.325  0.00  0.00    +0.000 A 
ENDROOT
BRANCH   5   7
ATOM      7  C   UNL     1       3.187   3.415  17.472  0.00  0.00    +0.000 C 
ATOM      8  O   UNL     1       2.380   3.131  16.591  0.00  0.00    +0.000 OA
ATOM      9  N   UNL     1       4.568   3.531  17.229  0.00  0.00    +0.000 N 
ATOM     10  C   UNL     1       5.613   3.872  18.227  0.00  0.00    +0.000 C 
ATOM     11  C   UNL     1       6.468   5.093  17.852  0.00  0.00    +0.000 C 
ATOM     12  C   UNL     1       6.736   5.048  16.410  0.00  0.00    +0.000 A 
ATOM     13  N   UNL     1       7.587   5.848  15.719  0.00  0.00    +0.000 N 
ATOM     14  N   UNL     1       7.607   5.556  14.409  0.00  0.00    +0.000 NA
ATOM     15  C   UNL     1       6.703   4.578  14.277  0.00  0.00    +0.000 A 
ATOM     16  C   UNL     1       6.108   4.225  15.501  0.00  0.00    +0.000 A 
ATOM     17  C   UNL     1       5.058   3.228  15.866  0.00  0.00    +0.000 C 
ATOM     18  H   UNL     1       8.172   6.602  16.063  0.00  0.00    +0.000 HD
ENDBRANCH   5   7
BRANCH   1  19
ATOM     19  O   UNL     1       1.519   6.551  20.755  0.00  0.00    +0.000 OA
BRANCH  19  20
ATOM     20  C   UNL     1       2.042   7.465  19.785  0.00  0.00    +0.000 C 
BRANCH  20  24
ATOM     21  C   UNL     1       0.309  11.993  18.831  0.00  0.00    +0.000 C 
ATOM     22  C   UNL     1       0.729  10.716  19.432  0.00  0.00    +0.000 A 
ATOM     23  N   UNL     1       1.322   9.686  18.876  0.00  0.00    +0.000 NA
ATOM     24  C   UNL     1       1.447   8.820  19.937  0.00  0.00    +0.000 A 
ATOM     25  N   UNL     1       0.945   9.273  21.095  0.00  0.00    +0.000 NA
ATOM     26  O   UNL     1       0.469  10.544  20.760  0.00  0.00    +0.000 OA
ENDBRANCH  20  24
ENDBRANCH  19  20
ENDBRANCH   1  19
TORSDOF 4
ENDMDL
MODEL 7
REMARK VINA RESULT:      -7.7      3.072      7.766
REMARK  Name = 
REMARK  5 active torsions:
REMARK  status: ('A' for Active; 'I' for Inactive)
REMARK    1  A    between atoms: C_1  and  C_2
REMARK    2  A    between atoms: C_4  and  C_5
REMARK    3  A    between atoms: C_5  and  O_6
REMARK    4  A    between atoms: O_6  and  C_7
REMARK    5  A    between atoms: C_11  and  C_12
REMARK                            x       y       z     vdW  Elec       q    Type
REMARK                         _______ _______ _______ _____ _____    ______ ____
ROOT
ATOM      1  C   UNL     1       4.935   4.673  18.610  0.00  0.00    +0.000 A 
ATOM      2  C   UNL     1       4.248   3.876  17.698  0.00  0.00    +0.000 A 
ATOM      3  C   UNL     1       2.915   4.161  17.395  0.00  0.00    +0.000 A 
ATOM      4  C   UNL     1       2.238   5.174  18.081  0.00  0.00    +0.000 A 
ATOM      5  C   UNL     1       2.899   5.905  19.076  0.00  0.00    +0.000 A 
ATOM      6  C   UNL     1       4.270   5.716  19.251  0.00  0.00    +0.000 A 
ENDROOT
BRANCH   5   7
ATOM      7  C   UNL     1       2.105   6.842  19.925  0.00  0.00    +0.000 C 
ATOM      8  O   UNL     1       2.008   6.571  21.118  0.00  0.00    +0.000 OA
ATOM      9  N   UNL     1       1.547   8.006  19.363  0.00  0.00    +0.000 N 
ATOM     10  C   UNL     1       1.617   8.417  17.938  0.00  0.00    +0.000 C 
ATOM     11  C   UNL     1       2.220   9.812  17.713  0.00  0.00    +0.000 C 
ATOM     12  C   UNL     1       1.734  10.706  18.771  0.00  0.00    +0.000 A 
ATOM     13  N   UNL     1       1.900  12.051  18.836  0.00  0.00    +0.000 N 
ATOM     14  N   UNL     1       1.338  12.579  19.933  0.00  0.00    +0.000 NA
ATOM     15  C   UNL     1       0.851  11.523  20.595  0.00  0.00    +0.000 A 
ATOM     16  C   UNL     1       1.084  10.311  19.920  0.00  0.00    +0.000 A 
ATOM     17  C   UNL     1       0.758   8.891  20.248  0.00  0.00    +0.000 C 
ATOM     18  H   UNL     1       2.380  12.664  18.186  0.00  0.00    +0.000 HD
ENDBRANCH   5   7
BRANCH   1  19
ATOM     19  O   UNL     1       6.226   4.478  19.017  0.00  0.00    +0.000 OA
BRANCH  19  20
ATOM     20  C   UNL     1       7.216   4.703  18.007  0.00  0.00    +0.000 C 
BRANCH  20  24
ATOM     21  C   UNL     1       8.651   9.407  18.485  0.00  0.00    +0.000 C 
ATOM     22  C   UNL     1       8.090   8.117  18.052  0.00  0.00    +0.000 A 
ATOM     23  N   UNL     1       8.098   6.955  18.662  0.00  0.00    +0.000 NA
ATOM     24  C   UNL     1       7.428   6.156  17.766  0.00  0.00    +0.000 A 
ATOM     25  N   UNL     1       7.034   6.776  16.644  0.00  0.00    +0.000 NA
ATOM     26  O   UNL     1       7.470   8.090  16.837  0.00  0.00    +0.000 OA
ENDBRANCH  20  24
ENDBRANCH  19  20
ENDBRANCH   1  19
TORSDOF 4
ENDMDL
MODEL 8
REMARK VINA RESULT:      -7.7      1.917      2.379
REMARK  Name = 
REMARK  5 active torsions:
REMARK  status: ('A' for Active; 'I' for Inactive)
REMARK    1  A    between atoms: C_1  and  C_2
REMARK    2  A    between atoms: C_4  and  C_5
REMARK    3  A    between atoms: C_5  and  O_6
REMARK    4  A    between atoms: O_6  and  C_7
REMARK    5  A    between atoms: C_11  and  C_12
REMARK                            x       y       z     vdW  Elec       q    Type
REMARK                         _______ _______ _______ _____ _____    ______ ____
ROOT
ATOM      1  C   UNL     1       2.075   6.653  19.965  0.00  0.00    +0.000 A 
ATOM      2  C   UNL     1       1.392   5.857  20.880  0.00  0.00    +0.000 A 
ATOM      3  C   UNL     1       1.452   4.466  20.770  0.00  0.00    +0.000 A 
ATOM      4  C   UNL     1       2.105   3.874  19.685  0.00  0.00    +0.000 A 
ATOM      5  C   UNL     1       2.700   4.677  18.705  0.00  0.00    +0.000 A 
ATOM      6  C   UNL     1       2.769   6.055  18.915  0.00  0.00    +0.000 A 
ENDROOT
BRANCH   5   7
ATOM      7  C   UNL     1       3.217   4.030  17.462  0.00  0.00    +0.000 C 
ATOM      8  O   UNL     1       2.387   3.553  16.693  0.00  0.00    +0.000 OA
ATOM      9  N   UNL     1       4.597   4.029  17.187  0.00  0.00    +0.000 N 
ATOM     10  C   UNL     1       5.668   4.584  18.052  0.00  0.00    +0.000 C 
ATOM     11  C   UNL     1       6.556   5.631  17.362  0.00  0.00    +0.000 C 
ATOM     12  C   UNL     1       6.799   5.199  15.980  0.00  0.00    +0.000 A 
ATOM     13  N   UNL     1       7.663   5.758  15.097  0.00  0.00    +0.000 N 
ATOM     14  N   UNL     1       7.652   5.131  13.910  0.00  0.00    +0.000 NA
ATOM     15  C   UNL     1       6.715   4.186  14.047  0.00  0.00    +0.000 A 
ATOM     16  C   UNL     1       6.129   4.188  15.326  0.00  0.00    +0.000 A 
ATOM     17  C   UNL     1       5.054   3.361  15.948  0.00  0.00    +0.000 C 
ATOM     18  H   UNL     1       8.277   6.556  15.226  0.00  0.00    +0.000 HD
ENDBRANCH   5   7
BRANCH   1  19
ATOM     19  O   UNL     1       2.066   8.020  19.942  0.00  0.00    +0.000 OA
BRANCH  19  20
ATOM     20  C   UNL     1       1.732   8.599  18.675  0.00  0.00    +0.000 C 
BRANCH  20  24
ATOM     21  C   UNL     1       0.713  13.434  18.673  0.00  0.00    +0.000 C 
ATOM     22  C   UNL     1       0.699  11.967  18.790  0.00  0.00    +0.000 A 
ATOM     23  N   UNL     1       1.655  11.100  18.549  0.00  0.00    +0.000 NA
ATOM     24  C   UNL     1       1.039   9.905  18.840  0.00  0.00    +0.000 A 
ATOM     25  N   UNL     1      -0.240  10.012  19.227  0.00  0.00    +0.000 NA
ATOM     26  O   UNL     1      -0.467  11.391  19.200  0.00  0.00    +0.000 OA
ENDBRANCH  20  24
ENDBRANCH  19  20
ENDBRANCH   1  19
TORSDOF 4
ENDMDL
MODEL 9
REMARK VINA RESULT:      -7.6      2.085      3.063
REMARK  Name = 
REMARK  5 active torsions:
REMARK  status: ('A' for Active; 'I' for Inactive)
REMARK    1  A    between atoms: C_1  and  C_2
REMARK    2  A    between atoms: C_4  and  C_5
REMARK    3  A    between atoms: C_5  and  O_6
REMARK    4  A    between atoms: O_6  and  C_7
REMARK    5  A    between atoms: C_11  and  C_12
REMARK                            x       y       z     vdW  Elec       q    Type
REMARK                         _______ _______ _______ _____ _____    ______ ____
ROOT
ATOM      1  C   UNL     1       1.610   8.928  18.935  0.00  0.00    +0.000 A 
ATOM      2  C   UNL     1       1.247   8.717  20.263  0.00  0.00    +0.000 A 
ATOM      3  C   UNL     1       1.552   7.502  20.880  0.00  0.00    +0.000 A 
ATOM      4  C   UNL     1       2.121   6.461  20.142  0.00  0.00    +0.000 A 
ATOM      5  C   UNL     1       2.387   6.636  18.778  0.00  0.00    +0.000 A 
ATOM      6  C   UNL     1       2.226   7.904  18.218  0.00  0.00    +0.000 A 
ENDROOT
BRANCH   5   7
ATOM      7  C   UNL     1       2.810   5.452  17.971  0.00  0.00    +0.000 C 
ATOM      8  O   UNL     1       1.922   4.725  17.537  0.00  0.00    +0.000 OA
ATOM      9  N   UNL     1       4.173   5.237  17.693  0.00  0.00    +0.000 N 
ATOM     10  C   UNL     1       5.310   6.063  18.169  0.00  0.00    +0.000 C 
ATOM     11  C   UNL     1       6.206   6.610  17.046  0.00  0.00    +0.000 C 
ATOM     12  C   UNL     1       6.357   5.568  16.023  0.00  0.00    +0.000 A 
ATOM     13  N   UNL     1       7.198   5.595  14.958  0.00  0.00    +0.000 N 
ATOM     14  N   UNL     1       7.098   4.489  14.205  0.00  0.00    +0.000 NA
ATOM     15  C   UNL     1       6.130   3.777  14.793  0.00  0.00    +0.000 A 
ATOM     16  C   UNL     1       5.611   4.413  15.936  0.00  0.00    +0.000 A 
ATOM     17  C   UNL     1       4.536   4.040  16.901  0.00  0.00    +0.000 C 
ATOM     18  H   UNL     1       7.852   6.320  14.682  0.00  0.00    +0.000 HD
ENDBRANCH   5   7
BRANCH   1  19
ATOM     19  O   UNL     1       1.338  10.053  18.208  0.00  0.00    +0.000 OA
BRANCH  19  20
ATOM     20  C   UNL     1       0.838  11.157  18.972  0.00  0.00    +0.000 C 
BRANCH  20  24
ATOM     21  C   UNL     1       3.245  15.325  20.091  0.00  0.00    +0.000 C 
ATOM     22  C   UNL     1       2.735  14.082  19.490  0.00  0.00    +0.000 A 
ATOM     23  N   UNL     1       1.759  13.300  19.887  0.00  0.00    +0.000 NA
ATOM     24  C   UNL     1       1.768  12.318  18.925  0.00  0.00    +0.000 A 
ATOM     25  N   UNL     1       2.709  12.463  17.981  0.00  0.00    +0.000 NA
ATOM     26  O   UNL     1       3.353  13.647  18.354  0.00  0.00    +0.000 OA
ENDBRANCH  20  24
ENDBRANCH  19  20
ENDBRANCH   1  19
TORSDOF 4
ENDMDL
