MODEL 1
REMARK VINA RESULT:      -8.4      0.000      0.000
REMARK  Name = 
REMARK  5 active torsions:
REMARK  status: ('A' for Active; 'I' for Inactive)
REMARK    1  A    between atoms: C_5  and  N_6
REMARK    2  A    between atoms: N_9  and  S_10
REMARK    3  A    between atoms: S_10  and  C_13
REMARK    4  A    between atoms: N_25  and  C_26
REMARK    5  A    between atoms: C_26  and  C_27
REMARK                            x       y       z     vdW  Elec       q    Type
REMARK                         _______ _______ _______ _____ _____    ______ ____
ROOT
ATOM      1  N   UNL     1      -0.751  10.957  21.144  0.00  0.00    +0.000 N 
ATOM      2  C   UNL     1      -1.879  11.508  20.363  0.00  0.00    +0.000 C 
ATOM      3  C   UNL     1      -2.132  12.994  20.727  0.00  0.00    +0.000 C 
ATOM      4  N   UNL     1      -2.262  13.207  22.209  0.00  0.00    +0.000 NA
ATOM      5  C   UNL     1      -1.048  12.665  22.907  0.00  0.00    +0.000 C 
ATOM      6  C   UNL     1      -0.862  11.168  22.606  0.00  0.00    +0.000 C 
ENDROOT
BRANCH   1  11
ATOM      7  O   UNL     1       2.163   8.996  17.842  0.00  0.00    +0.000 OA
ATOM      8  C   UNL     1       1.655   8.960  18.964  0.00  0.00    +0.000 A 
ATOM      9  C   UNL     1       0.767  10.058  19.435  0.00  0.00    +0.000 A 
ATOM     10 CL   UNL     1       0.535  11.389  18.345  0.00  0.00    +0.000 Cl
ATOM     11  C   UNL     1       0.127  10.009  20.617  0.00  0.00    +0.000 A 
ATOM     12  C   UNL     1       0.430   8.785  21.409  0.00  0.00    +0.000 A 
ATOM     13  N   UNL     1       1.234   7.825  21.085  0.00  0.00    +0.000 NA
ATOM     14  N   UNL     1       1.864   7.921  19.864  0.00  0.00    +0.000 N 
BRANCH  14  15
ATOM     15  C   UNL     1       2.854   6.892  19.550  0.00  0.00    +0.000 C 
BRANCH  15  16
ATOM     16  C   UNL     1       2.216   5.524  19.435  0.00  0.00    +0.000 A 
ATOM     17  C   UNL     1       2.022   4.936  18.177  0.00  0.00    +0.000 A 
ATOM     18  C   UNL     1       1.359   3.713  18.061  0.00  0.00    +0.000 A 
ATOM     19  C   UNL     1       0.878   3.068  19.199  0.00  0.00    +0.000 A 
ATOM     20  C   UNL     1       1.078   3.635  20.456  0.00  0.00    +0.000 A 
ATOM     21  C   UNL     1       1.744   4.856  20.575  0.00  0.00    +0.000 A 
ENDBRANCH  15  16
ENDBRANCH  14  15
ENDBRANCH   1  11
BRANCH   4  22
ATOM     22  S   UNL     1      -3.748  12.762  22.914  0.00  0.00    +0.000 S 
ATOM     23  O   UNL     1      -4.681  12.438  21.861  0.00  0.00    +0.000 OA
ATOM     24  O   UNL     1      -3.479  11.837  23.992  0.00  0.00    +0.000 OA
BRANCH  22  25
ATOM     25  C   UNL     1      -4.288  14.267  23.685  0.00  0.00    +0.000 A 
ATOM     26  C   UNL     1      -3.400  15.022  24.464  0.00  0.00    +0.000 A 
ATOM     27  C   UNL     1      -3.815  16.253  24.977  0.00  0.00    +0.000 A 
ATOM     28  C   UNL     1      -5.100  16.716  24.705  0.00  0.00    +0.000 A 
ATOM     29  F   UNL     1      -5.486  17.903  25.191  0.00  0.00    +0.000 F 
ATOM     30  C   UNL     1      -5.972  15.962  23.924  0.00  0.00    +0.000 A 
ATOM     31  F   UNL     1      -7.202  16.423  23.655  0.00  0.00    +0.000 F 
ATOM     32  C   UNL     1      -5.577  14.735  23.407  0.00  0.00    +0.000 A 
ENDBRANCH  22  25
ENDBRANCH   4  22
TORSDOF 5
ENDMDL
MODEL 2
REMARK VINA RESULT:      -8.3      2.924      3.992
REMARK  Name = 
REMARK  5 active torsions:
REMARK  status: ('A' for Active; 'I' for Inactive)
REMARK    1  A    between atoms: C_5  and  N_6
REMARK    2  A    between atoms: N_9  and  S_10
REMARK    3  A    between atoms: S_10  and  C_13
REMARK    4  A    between atoms: N_25  and  C_26
REMARK    5  A    between atoms: C_26  and  C_27
REMARK                            x       y       z     vdW  Elec       q    Type
REMARK                         _______ _______ _______ _____ _____    ______ ____
ROOT
ATOM      1  N   UNL     1       0.642  10.643  19.484  0.00  0.00    +0.000 N 
ATOM      2  C   UNL     1      -0.658  10.629  20.187  0.00  0.00    +0.000 C 
ATOM      3  C   UNL     1      -1.575  11.774  19.683  0.00  0.00    +0.000 C 
ATOM      4  N   UNL     1      -0.890  13.110  19.706  0.00  0.00    +0.000 NA
ATOM      5  C   UNL     1       0.388  13.038  18.922  0.00  0.00    +0.000 C 
ATOM      6  C   UNL     1       1.324  11.959  19.491  0.00  0.00    +0.000 C 
ENDROOT
BRANCH   1  11
ATOM      7  O   UNL     1       2.477   6.261  20.300  0.00  0.00    +0.000 OA
ATOM      8  C   UNL     1       2.289   7.207  19.533  0.00  0.00    +0.000 A 
ATOM      9  C   UNL     1       1.487   8.387  19.957  0.00  0.00    +0.000 A 
ATOM     10 CL   UNL     1       0.805   8.327  21.553  0.00  0.00    +0.000 Cl
ATOM     11  C   UNL     1       1.337   9.473  19.178  0.00  0.00    +0.000 A 
ATOM     12  C   UNL     1       2.007   9.354  17.854  0.00  0.00    +0.000 A 
ATOM     13  N   UNL     1       2.668   8.339  17.402  0.00  0.00    +0.000 NA
ATOM     14  N   UNL     1       2.795   7.251  18.238  0.00  0.00    +0.000 N 
BRANCH  14  15
ATOM     15  C   UNL     1       3.445   6.065  17.684  0.00  0.00    +0.000 C 
BRANCH  15  16
ATOM     16  C   UNL     1       4.940   6.089  17.922  0.00  0.00    +0.000 A 
ATOM     17  C   UNL     1       5.499   5.382  18.996  0.00  0.00    +0.000 A 
ATOM     18  C   UNL     1       6.865   5.469  19.269  0.00  0.00    +0.000 A 
ATOM     19  C   UNL     1       7.686   6.267  18.474  0.00  0.00    +0.000 A 
ATOM     20  C   UNL     1       7.146   6.962  17.394  0.00  0.00    +0.000 A 
ATOM     21  C   UNL     1       5.781   6.874  17.118  0.00  0.00    +0.000 A 
ENDBRANCH  15  16
ENDBRANCH  14  15
ENDBRANCH   1  11
BRANCH   4  22
ATOM     22  S   UNL     1      -0.752  13.868  21.226  0.00  0.00    +0.000 S 
ATOM     23  O   UNL     1       0.317  13.235  21.962  0.00  0.00    +0.000 OA
ATOM     24  O   UNL     1      -0.780  15.299  21.024  0.00  0.00    +0.000 OA
BRANCH  22  25
ATOM     25  C   UNL     1      -2.286  13.455  22.017  0.00  0.00    +0.000 A 
ATOM     26  C   UNL     1      -2.304  12.595  23.123  0.00  0.00    +0.000 A 
ATOM     27  C   UNL     1      -3.508  12.364  23.793  0.00  0.00    +0.000 A 
ATOM     28  C   UNL     1      -4.671  12.993  23.356  0.00  0.00    +0.000 A 
ATOM     29  F   UNL     1      -5.819  12.775  24.011  0.00  0.00    +0.000 F 
ATOM     30  C   UNL     1      -4.643  13.851  22.260  0.00  0.00    +0.000 A 
ATOM     31  F   UNL     1      -5.764  14.464  21.856  0.00  0.00    +0.000 F 
ATOM     32  C   UNL     1      -3.454  14.091  21.582  0.00  0.00    +0.000 A 
ENDBRANCH  22  25
ENDBRANCH   4  22
TORSDOF 5
ENDMDL
MODEL 3
REMARK VINA RESULT:      -8.2      3.051      4.128
REMARK  Name = 
REMARK  5 active torsions:
REMARK  status: ('A' for Active; 'I' for Inactive)
REMARK    1  A    between atoms: C_5  and  N_6
REMARK    2  A    between atoms: N_9  and  S_10
REMARK    3  A    between atoms: S_10  and  C_13
REMARK    4  A    between atoms: N_25  and  C_26
REMARK    5  A    between atoms: C_26  and  C_27
REMARK                            x       y       z     vdW  Elec       q    Type
REMARK                         _______ _______ _______ _____ _____    ______ ____
ROOT
ATOM      1  N   UNL     1       0.643  10.673  19.485  0.00  0.00    +0.000 N 
ATOM      2  C   UNL     1      -0.676  10.723  20.149  0.00  0.00    +0.000 C 
ATOM      3  C   UNL     1      -1.529  11.898  19.603  0.00  0.00    +0.000 C 
ATOM      4  N   UNL     1      -0.789  13.205  19.630  0.00  0.00    +0.000 NA
ATOM      5  C   UNL     1       0.508  13.068  18.885  0.00  0.00    +0.000 C 
ATOM      6  C   UNL     1       1.380  11.958  19.496  0.00  0.00    +0.000 C 
ENDROOT
BRANCH   1  11
ATOM      7  O   UNL     1       2.405   6.294  20.462  0.00  0.00    +0.000 OA
ATOM      8  C   UNL     1       2.209   7.202  19.654  0.00  0.00    +0.000 A 
ATOM      9  C   UNL     1       1.453   8.423  20.045  0.00  0.00    +0.000 A 
ATOM     10 CL   UNL     1       0.837   8.466  21.668  0.00  0.00    +0.000 Cl
ATOM     11  C   UNL     1       1.297   9.469  19.215  0.00  0.00    +0.000 A 
ATOM     12  C   UNL     1       1.907   9.263  17.874  0.00  0.00    +0.000 A 
ATOM     13  N   UNL     1       2.524   8.208  17.450  0.00  0.00    +0.000 NA
ATOM     14  N   UNL     1       2.660   7.164  18.339  0.00  0.00    +0.000 N 
BRANCH  14  15
ATOM     15  C   UNL     1       3.258   5.933  17.824  0.00  0.00    +0.000 C 
BRANCH  15  16
ATOM     16  C   UNL     1       4.769   5.968  17.917  0.00  0.00    +0.000 A 
ATOM     17  C   UNL     1       5.424   5.402  19.021  0.00  0.00    +0.000 A 
ATOM     18  C   UNL     1       6.809   5.506  19.152  0.00  0.00    +0.000 A 
ATOM     19  C   UNL     1       7.554   6.180  18.186  0.00  0.00    +0.000 A 
ATOM     20  C   UNL     1       6.917   6.734  17.078  0.00  0.00    +0.000 A 
ATOM     21  C   UNL     1       5.532   6.628  16.943  0.00  0.00    +0.000 A 
ENDBRANCH  15  16
ENDBRANCH  14  15
ENDBRANCH   1  11
BRANCH   4  22
ATOM     22  S   UNL     1      -0.663  13.977  21.143  0.00  0.00    +0.000 S 
ATOM     23  O   UNL     1       0.288  13.254  21.954  0.00  0.00    +0.000 OA
ATOM     24  O   UNL     1      -0.531  15.399  20.918  0.00  0.00    +0.000 OA
BRANCH  22  25
ATOM     25  C   UNL     1      -2.276  13.741  21.845  0.00  0.00    +0.000 A 
ATOM     26  C   UNL     1      -3.410  14.261  21.206  0.00  0.00    +0.000 A 
ATOM     27  C   UNL     1      -4.677  13.977  21.719  0.00  0.00    +0.000 A 
ATOM     28  C   UNL     1      -4.798  13.178  22.854  0.00  0.00    +0.000 A 
ATOM     29  F   UNL     1      -6.018  12.902  23.333  0.00  0.00    +0.000 F 
ATOM     30  C   UNL     1      -3.667  12.660  23.478  0.00  0.00    +0.000 A 
ATOM     31  F   UNL     1      -3.794  11.880  24.560  0.00  0.00    +0.000 F 
ATOM     32  C   UNL     1      -2.398  12.934  22.981  0.00  0.00    +0.000 A 
ENDBRANCH  22  25
ENDBRANCH   4  22
TORSDOF 5
ENDMDL
MODEL 4
REMARK VINA RESULT:      -8.2      1.955      2.539
REMARK  Name = 
REMARK  5 active torsions:
REMARK  status: ('A' for Active; 'I' for Inactive)
REMARK    1  A    between atoms: C_5  and  N_6
REMARK    2  A    between atoms: N_9  and  S_10
REMARK    3  A    between atoms: S_10  and  C_13
REMARK    4  A    between atoms: N_25  and  C_26
REMARK    5  A    between atoms: C_26  and  C_27
REMARK                            x       y       z     vdW  Elec       q    Type
REMARK                         _______ _______ _______ _____ _____    ______ ____
ROOT
ATOM      1  N   UNL     1       0.237  10.981  20.500  0.00  0.00    +0.000 N 
ATOM      2  C   UNL     1      -1.115  10.929  21.096  0.00  0.00    +0.000 C 
ATOM      3  C   UNL     1      -1.966  12.146  20.648  0.00  0.00    +0.000 C 
ATOM      4  N   UNL     1      -1.259  13.453  20.869  0.00  0.00    +0.000 NA
ATOM      5  C   UNL     1       0.077  13.429  20.182  0.00  0.00    +0.000 C 
ATOM      6  C   UNL     1       0.943  12.269  20.703  0.00  0.00    +0.000 C 
ENDROOT
BRANCH   1  11
ATOM      7  O   UNL     1       2.749   8.107  17.556  0.00  0.00    +0.000 OA
ATOM      8  C   UNL     1       2.245   8.314  18.661  0.00  0.00    +0.000 A 
ATOM      9  C   UNL     1       1.568   9.606  18.962  0.00  0.00    +0.000 A 
ATOM     10 CL   UNL     1       1.575  10.797  17.699  0.00  0.00    +0.000 Cl
ATOM     11  C   UNL     1       0.932   9.830  20.125  0.00  0.00    +0.000 A 
ATOM     12  C   UNL     1       1.013   8.691  21.079  0.00  0.00    +0.000 A 
ATOM     13  N   UNL     1       1.632   7.569  20.905  0.00  0.00    +0.000 NA
ATOM     14  N   UNL     1       2.267   7.386  19.696  0.00  0.00    +0.000 N 
BRANCH  14  15
ATOM     15  C   UNL     1       3.057   6.165  19.545  0.00  0.00    +0.000 C 
BRANCH  15  16
ATOM     16  C   UNL     1       2.177   4.934  19.512  0.00  0.00    +0.000 A 
ATOM     17  C   UNL     1       1.770   4.321  20.705  0.00  0.00    +0.000 A 
ATOM     18  C   UNL     1       1.029   3.139  20.679  0.00  0.00    +0.000 A 
ATOM     19  C   UNL     1       0.690   2.554  19.460  0.00  0.00    +0.000 A 
ATOM     20  C   UNL     1       1.075   3.162  18.267  0.00  0.00    +0.000 A 
ATOM     21  C   UNL     1       1.813   4.346  18.291  0.00  0.00    +0.000 A 
ENDBRANCH  15  16
ENDBRANCH  14  15
ENDBRANCH   1  11
BRANCH   4  22
ATOM     22  S   UNL     1      -1.227  14.041  22.468  0.00  0.00    +0.000 S 
ATOM     23  O   UNL     1      -0.477  13.117  23.285  0.00  0.00    +0.000 OA
ATOM     24  O   UNL     1      -0.898  15.448  22.428  0.00  0.00    +0.000 OA
BRANCH  22  25
ATOM     25  C   UNL     1      -2.931  13.951  22.957  0.00  0.00    +0.000 A 
ATOM     26  C   UNL     1      -3.896  14.738  22.312  0.00  0.00    +0.000 A 
ATOM     27  C   UNL     1      -5.243  14.577  22.643  0.00  0.00    +0.000 A 
ATOM     28  C   UNL     1      -5.611  13.637  23.602  0.00  0.00    +0.000 A 
ATOM     29  F   UNL     1      -6.907  13.482  23.905  0.00  0.00    +0.000 F 
ATOM     30  C   UNL     1      -4.647  12.855  24.232  0.00  0.00    +0.000 A 
ATOM     31  F   UNL     1      -5.011  11.942  25.143  0.00  0.00    +0.000 F 
ATOM     32  C   UNL     1      -3.301  13.003  23.917  0.00  0.00    +0.000 A 
ENDBRANCH  22  25
ENDBRANCH   4  22
TORSDOF 5
ENDMDL
MODEL 5
REMARK VINA RESULT:      -8.1      3.479      4.744
REMARK  Name = 
REMARK  5 active torsions:
REMARK  status: ('A' for Active; 'I' for Inactive)
REMARK    1  A    between atoms: C_5  and  N_6
REMARK    2  A    between atoms: N_9  and  S_10
REMARK    3  A    between atoms: S_10  and  C_13
REMARK    4  A    between atoms: N_25  and  C_26
REMARK    5  A    between atoms: C_26  and  C_27
REMARK                            x       y       z     vdW  Elec       q    Type
REMARK                         _______ _______ _______ _____ _____    ______ ____
ROOT
ATOM      1  N   UNL     1       0.688  10.305  19.734  0.00  0.00    +0.000 N 
ATOM      2  C   UNL     1       1.212  11.686  19.680  0.00  0.00    +0.000 C 
ATOM      3  C   UNL     1       0.673  12.531  20.864  0.00  0.00    +0.000 C 
ATOM      4  N   UNL     1      -0.822  12.457  20.988  0.00  0.00    +0.000 NA
ATOM      5  C   UNL     1      -1.251  11.021  21.092  0.00  0.00    +0.000 C 
ATOM      6  C   UNL     1      -0.786  10.217  19.866  0.00  0.00    +0.000 C 
ENDROOT
BRANCH   1  11
ATOM      7  O   UNL     1       2.724   5.954  20.131  0.00  0.00    +0.000 OA
ATOM      8  C   UNL     1       2.498   6.962  19.460  0.00  0.00    +0.000 A 
ATOM      9  C   UNL     1       1.636   8.054  19.990  0.00  0.00    +0.000 A 
ATOM     10 CL   UNL     1       0.945   7.802  21.563  0.00  0.00    +0.000 Cl
ATOM     11  C   UNL     1       1.441   9.204  19.322  0.00  0.00    +0.000 A 
ATOM     12  C   UNL     1       2.126   9.251  18.001  0.00  0.00    +0.000 A 
ATOM     13  N   UNL     1       2.838   8.318  17.458  0.00  0.00    +0.000 NA
ATOM     14  N   UNL     1       3.011   7.159  18.183  0.00  0.00    +0.000 N 
BRANCH  14  15
ATOM     15  C   UNL     1       3.721   6.067  17.521  0.00  0.00    +0.000 C 
BRANCH  15  16
ATOM     16  C   UNL     1       5.205   6.108  17.819  0.00  0.00    +0.000 A 
ATOM     17  C   UNL     1       5.740   5.341  18.864  0.00  0.00    +0.000 A 
ATOM     18  C   UNL     1       7.092   5.439  19.196  0.00  0.00    +0.000 A 
ATOM     19  C   UNL     1       7.922   6.309  18.492  0.00  0.00    +0.000 A 
ATOM     20  C   UNL     1       7.406   7.066  17.442  0.00  0.00    +0.000 A 
ATOM     21  C   UNL     1       6.055   6.966  17.106  0.00  0.00    +0.000 A 
ENDBRANCH  15  16
ENDBRANCH  14  15
ENDBRANCH   1  11
BRANCH   4  22
ATOM     22  S   UNL     1      -1.724  13.392  19.887  0.00  0.00    +0.000 S 
ATOM     23  O   UNL     1      -1.706  14.768  20.325  0.00  0.00    +0.000 OA
ATOM     24  O   UNL     1      -1.326  13.025  18.547  0.00  0.00    +0.000 OA
BRANCH  22  25
ATOM     25  C   UNL     1      -3.374  12.770  20.095  0.00  0.00    +0.000 A 
ATOM     26  C   UNL     1      -4.091  13.042  21.268  0.00  0.00    +0.000 A 
ATOM     27  C   UNL     1      -5.421  12.630  21.370  0.00  0.00    +0.000 A 
ATOM     28  C   UNL     1      -6.018  11.960  20.305  0.00  0.00    +0.000 A 
ATOM     29  F   UNL     1      -7.298  11.578  20.406  0.00  0.00    +0.000 F 
ATOM     30  C   UNL     1      -5.300  11.699  19.141  0.00  0.00    +0.000 A 
ATOM     31  F   UNL     1      -5.888  11.067  18.116  0.00  0.00    +0.000 F 
ATOM     32  C   UNL     1      -3.975  12.101  19.024  0.00  0.00    +0.000 A 
ENDBRANCH  22  25
ENDBRANCH   4  22
TORSDOF 5
ENDMDL
MODEL 6
REMARK VINA RESULT:      -8.0      2.975      3.974
REMARK  Name = 
REMARK  5 active torsions:
REMARK  status: ('A' for Active; 'I' for Inactive)
REMARK    1  A    between atoms: C_5  and  N_6
REMARK    2  A    between atoms: N_9  and  S_10
REMARK    3  A    between atoms: S_10  and  C_13
REMARK    4  A    between atoms: N_25  and  C_26
REMARK    5  A    between atoms: C_26  and  C_27
REMARK                            x       y       z     vdW  Elec       q    Type
REMARK                         _______ _______ _______ _____ _____    ______ ____
ROOT
ATOM      1  N   UNL     1       0.564  10.408  19.746  0.00  0.00    +0.000 N 
ATOM      2  C   UNL     1      -0.913  10.424  19.681  0.00  0.00    +0.000 C 
ATOM      3  C   UNL     1      -1.439  11.845  19.354  0.00  0.00    +0.000 C 
ATOM      4  N   UNL     1      -0.863  12.894  20.262  0.00  0.00    +0.000 NA
ATOM      5  C   UNL     1       0.637  12.834  20.218  0.00  0.00    +0.000 C 
ATOM      6  C   UNL     1       1.146  11.444  20.632  0.00  0.00    +0.000 C 
ENDROOT
BRANCH   1  11
ATOM      7  O   UNL     1       2.610   6.061  20.138  0.00  0.00    +0.000 OA
ATOM      8  C   UNL     1       2.378   7.068  19.467  0.00  0.00    +0.000 A 
ATOM      9  C   UNL     1       1.518   8.160  20.000  0.00  0.00    +0.000 A 
ATOM     10 CL   UNL     1       0.836   7.909  21.577  0.00  0.00    +0.000 Cl
ATOM     11  C   UNL     1       1.316   9.308  19.331  0.00  0.00    +0.000 A 
ATOM     12  C   UNL     1       1.994   9.354  18.006  0.00  0.00    +0.000 A 
ATOM     13  N   UNL     1       2.705   8.422  17.460  0.00  0.00    +0.000 NA
ATOM     14  N   UNL     1       2.884   7.265  18.186  0.00  0.00    +0.000 N 
BRANCH  14  15
ATOM     15  C   UNL     1       3.593   6.172  17.522  0.00  0.00    +0.000 C 
BRANCH  15  16
ATOM     16  C   UNL     1       5.075   6.206  17.826  0.00  0.00    +0.000 A 
ATOM     17  C   UNL     1       5.602   5.437  18.874  0.00  0.00    +0.000 A 
ATOM     18  C   UNL     1       6.953   5.530  19.211  0.00  0.00    +0.000 A 
ATOM     19  C   UNL     1       7.791   6.395  18.510  0.00  0.00    +0.000 A 
ATOM     20  C   UNL     1       7.283   7.153  17.457  0.00  0.00    +0.000 A 
ATOM     21  C   UNL     1       5.933   7.060  17.116  0.00  0.00    +0.000 A 
ENDBRANCH  15  16
ENDBRANCH  14  15
ENDBRANCH   1  11
BRANCH   4  22
ATOM     22  S   UNL     1      -1.526  12.990  21.829  0.00  0.00    +0.000 S 
ATOM     23  O   UNL     1      -1.620  11.657  22.374  0.00  0.00    +0.000 OA
ATOM     24  O   UNL     1      -0.848  14.048  22.544  0.00  0.00    +0.000 OA
BRANCH  22  25
ATOM     25  C   UNL     1      -3.173  13.581  21.528  0.00  0.00    +0.000 A 
ATOM     26  C   UNL     1      -3.380  14.863  21.002  0.00  0.00    +0.000 A 
ATOM     27  C   UNL     1      -4.677  15.269  20.677  0.00  0.00    +0.000 A 
ATOM     28  C   UNL     1      -5.743  14.395  20.875  0.00  0.00    +0.000 A 
ATOM     29  F   UNL     1      -6.982  14.788  20.550  0.00  0.00    +0.000 F 
ATOM     30  C   UNL     1      -5.526  13.120  21.392  0.00  0.00    +0.000 A 
ATOM     31  F   UNL     1      -6.556  12.280  21.565  0.00  0.00    +0.000 F 
ATOM     32  C   UNL     1      -4.243  12.701  21.722  0.00  0.00    +0.000 A 
ENDBRANCH  22  25
ENDBRANCH   4  22
TORSDOF 5
ENDMDL
MODEL 7
REMARK VINA RESULT:      -8.0      6.067     11.140
REMARK  Name = 
REMARK  5 active torsions:
REMARK  status: ('A' for Active; 'I' for Inactive)
REMARK    1  A    between atoms: C_5  and  N_6
REMARK    2  A    between atoms: N_9  and  S_10
REMARK    3  A    between atoms: S_10  and  C_13
REMARK    4  A    between atoms: N_25  and  C_26
REMARK    5  A    between atoms: C_26  and  C_27
REMARK                            x       y       z     vdW  Elec       q    Type
REMARK                         _______ _______ _______ _____ _____    ______ ____
ROOT
ATOM      1  N   UNL     1       1.832   7.195  19.804  0.00  0.00    +0.000 N 
ATOM      2  C   UNL     1       2.766   6.852  18.712  0.00  0.00    +0.000 C 
ATOM      3  C   UNL     1       2.348   5.529  18.019  0.00  0.00    +0.000 C 
ATOM      4  N   UNL     1       2.129   4.412  18.999  0.00  0.00    +0.000 NA
ATOM      5  C   UNL     1       1.127   4.836  20.035  0.00  0.00    +0.000 C 
ATOM      6  C   UNL     1       1.600   6.099  20.774  0.00  0.00    +0.000 C 
ENDROOT
BRANCH   1  11
ATOM      7  O   UNL     1       0.788  11.813  18.899  0.00  0.00    +0.000 OA
ATOM      8  C   UNL     1       0.939  10.899  19.711  0.00  0.00    +0.000 A 
ATOM      9  C   UNL     1       1.244   9.515  19.255  0.00  0.00    +0.000 A 
ATOM     10 CL   UNL     1       1.325   9.265  17.539  0.00  0.00    +0.000 Cl
ATOM     11  C   UNL     1       1.502   8.515  20.116  0.00  0.00    +0.000 A 
ATOM     12  C   UNL     1       1.406   8.918  21.545  0.00  0.00    +0.000 A 
ATOM     13  N   UNL     1       1.090  10.084  22.008  0.00  0.00    +0.000 NA
ATOM     14  N   UNL     1       0.837  11.076  21.086  0.00  0.00    +0.000 N 
BRANCH  14  15
ATOM     15  C   UNL     1       0.372  12.360  21.610  0.00  0.00    +0.000 C 
BRANCH  15  16
ATOM     16  C   UNL     1      -1.124  12.356  21.841  0.00  0.00    +0.000 A 
ATOM     17  C   UNL     1      -2.003  12.697  20.803  0.00  0.00    +0.000 A 
ATOM     18  C   UNL     1      -3.377  12.776  21.034  0.00  0.00    +0.000 A 
ATOM     19  C   UNL     1      -3.887  12.520  22.306  0.00  0.00    +0.000 A 
ATOM     20  C   UNL     1      -3.026  12.165  23.342  0.00  0.00    +0.000 A 
ATOM     21  C   UNL     1      -1.652  12.083  23.112  0.00  0.00    +0.000 A 
ENDBRANCH  15  16
ENDBRANCH  14  15
ENDBRANCH   1  11
BRANCH   4  22
ATOM     22  S   UNL     1       3.526   3.664  19.625  0.00  0.00    +0.000 S 
ATOM     23  O   UNL     1       3.950   4.385  20.801  0.00  0.00    +0.000 OA
ATOM     24  O   UNL     1       3.299   2.236  19.659  0.00  0.00    +0.000 OA
BRANCH  22  25
ATOM     25  C   UNL     1       4.728   3.937  18.347  0.00  0.00    +0.000 A 
ATOM     26  C   UNL     1       4.479   3.507  17.037  0.00  0.00    +0.000 A 
ATOM     27  C   UNL     1       5.392   3.822  16.027  0.00  0.00    +0.000 A 
ATOM     28  C   UNL     1       6.531   4.561  16.334  0.00  0.00    +0.000 A 
ATOM     29  F   UNL     1       7.395   4.869  15.358  0.00  0.00    +0.000 F 
ATOM     30  C   UNL     1       6.766   4.990  17.638  0.00  0.00    +0.000 A 
ATOM     31  F   UNL     1       7.858   5.714  17.921  0.00  0.00    +0.000 F 
ATOM     32  C   UNL     1       5.870   4.684  18.654  0.00  0.00    +0.000 A 
ENDBRANCH  22  25
ENDBRANCH   4  22
TORSDOF 5
ENDMDL
MODEL 8
REMARK VINA RESULT:      -8.0      3.608      5.296
REMARK  Name = 
REMARK  5 active torsions:
REMARK  status: ('A' for Active; 'I' for Inactive)
REMARK    1  A    between atoms: C_5  and  N_6
REMARK    2  A    between atoms: N_9  and  S_10
REMARK    3  A    between atoms: S_10  and  C_13
REMARK    4  A    between atoms: N_25  and  C_26
REMARK    5  A    between atoms: C_26  and  C_27
REMARK                            x       y       z     vdW  Elec       q    Type
REMARK                         _______ _______ _______ _____ _____    ______ ____
ROOT
ATOM      1  N   UNL     1       1.727   8.241  19.409  0.00  0.00    +0.000 N 
ATOM      2  C   UNL     1       1.290   8.623  20.768  0.00  0.00    +0.000 C 
ATOM      3  C   UNL     1      -0.137   9.231  20.742  0.00  0.00    +0.000 C 
ATOM      4  N   UNL     1      -0.272  10.335  19.732  0.00  0.00    +0.000 NA
ATOM      5  C   UNL     1       0.142   9.835  18.377  0.00  0.00    +0.000 C 
ATOM      6  C   UNL     1       1.590   9.318  18.400  0.00  0.00    +0.000 C 
ENDROOT
BRANCH   1  11
ATOM      7  O   UNL     1       3.305   3.725  20.003  0.00  0.00    +0.000 OA
ATOM      8  C   UNL     1       3.380   4.807  19.419  0.00  0.00    +0.000 A 
ATOM      9  C   UNL     1       2.427   5.909  19.726  0.00  0.00    +0.000 A 
ATOM     10 CL   UNL     1       1.198   5.565  20.902  0.00  0.00    +0.000 Cl
ATOM     11  C   UNL     1       2.536   7.129  19.171  0.00  0.00    +0.000 A 
ATOM     12  C   UNL     1       3.659   7.246  18.202  0.00  0.00    +0.000 A 
ATOM     13  N   UNL     1       4.484   6.315  17.847  0.00  0.00    +0.000 NA
ATOM     14  N   UNL     1       4.334   5.083  18.445  0.00  0.00    +0.000 N 
BRANCH  14  15
ATOM     15  C   UNL     1       5.195   4.005  17.961  0.00  0.00    +0.000 C 
BRANCH  15  16
ATOM     16  C   UNL     1       5.729   4.301  16.576  0.00  0.00    +0.000 A 
ATOM     17  C   UNL     1       4.968   3.985  15.441  0.00  0.00    +0.000 A 
ATOM     18  C   UNL     1       5.490   4.178  14.161  0.00  0.00    +0.000 A 
ATOM     19  C   UNL     1       6.779   4.684  14.001  0.00  0.00    +0.000 A 
ATOM     20  C   UNL     1       7.539   5.016  15.121  0.00  0.00    +0.000 A 
ATOM     21  C   UNL     1       7.018   4.826  16.402  0.00  0.00    +0.000 A 
ENDBRANCH  15  16
ENDBRANCH  14  15
ENDBRANCH   1  11
BRANCH   4  22
ATOM     22  S   UNL     1       0.384  11.847  20.164  0.00  0.00    +0.000 S 
ATOM     23  O   UNL     1       1.524  11.628  21.022  0.00  0.00    +0.000 OA
ATOM     24  O   UNL     1       0.485  12.655  18.970  0.00  0.00    +0.000 OA
BRANCH  22  25
ATOM     25  C   UNL     1      -0.908  12.575  21.139  0.00  0.00    +0.000 A 
ATOM     26  C   UNL     1      -2.248  12.449  20.748  0.00  0.00    +0.000 A 
ATOM     27  C   UNL     1      -3.255  12.941  21.582  0.00  0.00    +0.000 A 
ATOM     28  C   UNL     1      -2.915  13.544  22.790  0.00  0.00    +0.000 A 
ATOM     29  F   UNL     1      -3.888  14.003  23.590  0.00  0.00    +0.000 F 
ATOM     30  C   UNL     1      -1.582  13.659  23.174  0.00  0.00    +0.000 A 
ATOM     31  F   UNL     1      -1.266  14.227  24.346  0.00  0.00    +0.000 F 
ATOM     32  C   UNL     1      -0.568  13.176  22.356  0.00  0.00    +0.000 A 
ENDBRANCH  22  25
ENDBRANCH   4  22
TORSDOF 5
ENDMDL
MODEL 9
REMARK VINA RESULT:      -8.0      1.860      2.363
REMARK  Name = 
REMARK  5 active torsions:
REMARK  status: ('A' for Active; 'I' for Inactive)
REMARK    1  A    between atoms: C_5  and  N_6
REMARK    2  A    between atoms: N_9  and  S_10
REMARK    3  A    between atoms: S_10  and  C_13
REMARK    4  A    between atoms: N_25  and  C_26
REMARK    5  A    between atoms: C_26  and  C_27
REMARK                            x       y       z     vdW  Elec       q    Type
REMARK                         _______ _______ _______ _____ _____    ______ ____
ROOT
ATOM      1  N   UNL     1       0.264  10.916  20.532  0.00  0.00    +0.000 N 
ATOM      2  C   UNL     1      -1.121  10.880  21.048  0.00  0.00    +0.000 C 
ATOM      3  C   UNL     1      -1.920  12.124  20.579  0.00  0.00    +0.000 C 
ATOM      4  N   UNL     1      -1.201  13.411  20.867  0.00  0.00    +0.000 NA
ATOM      5  C   UNL     1       0.171  13.372  20.257  0.00  0.00    +0.000 C 
ATOM      6  C   UNL     1       0.982  12.184  20.801  0.00  0.00    +0.000 C 
ENDROOT
BRANCH   1  11
ATOM      7  O   UNL     1       2.707   7.966  17.605  0.00  0.00    +0.000 OA
ATOM      8  C   UNL     1       2.235   8.205  18.717  0.00  0.00    +0.000 A 
ATOM      9  C   UNL     1       1.558   9.501  18.997  0.00  0.00    +0.000 A 
ATOM     10 CL   UNL     1       1.517  10.651  17.698  0.00  0.00    +0.000 Cl
ATOM     11  C   UNL     1       0.956   9.758  20.172  0.00  0.00    +0.000 A 
ATOM     12  C   UNL     1       1.075   8.651  21.159  0.00  0.00    +0.000 A 
ATOM     13  N   UNL     1       1.696   7.528  21.001  0.00  0.00    +0.000 NA
ATOM     14  N   UNL     1       2.296   7.310  19.780  0.00  0.00    +0.000 N 
BRANCH  14  15
ATOM     15  C   UNL     1       3.091   6.091  19.643  0.00  0.00    +0.000 C 
BRANCH  15  16
ATOM     16  C   UNL     1       2.216   4.886  19.368  0.00  0.00    +0.000 A 
ATOM     17  C   UNL     1       1.534   4.251  20.415  0.00  0.00    +0.000 A 
ATOM     18  C   UNL     1       0.794   3.091  20.179  0.00  0.00    +0.000 A 
ATOM     19  C   UNL     1       0.732   2.550  18.896  0.00  0.00    +0.000 A 
ATOM     20  C   UNL     1       1.394   3.181  17.844  0.00  0.00    +0.000 A 
ATOM     21  C   UNL     1       2.131   4.342  18.077  0.00  0.00    +0.000 A 
ENDBRANCH  15  16
ENDBRANCH  14  15
ENDBRANCH   1  11
BRANCH   4  22
ATOM     22  S   UNL     1      -1.249  13.965  22.477  0.00  0.00    +0.000 S 
ATOM     23  O   UNL     1      -0.404  13.117  23.284  0.00  0.00    +0.000 OA
ATOM     24  O   UNL     1      -1.083  15.401  22.468  0.00  0.00    +0.000 OA
BRANCH  22  25
ATOM     25  C   UNL     1      -2.935  13.671  22.948  0.00  0.00    +0.000 A 
ATOM     26  C   UNL     1      -3.247  12.667  23.875  0.00  0.00    +0.000 A 
ATOM     27  C   UNL     1      -4.567  12.520  24.308  0.00  0.00    +0.000 A 
ATOM     28  C   UNL     1      -5.552  13.373  23.818  0.00  0.00    +0.000 A 
ATOM     29  F   UNL     1      -6.813  13.232  24.247  0.00  0.00    +0.000 F 
ATOM     30  C   UNL     1      -5.232  14.371  22.902  0.00  0.00    +0.000 A 
ATOM     31  F   UNL     1      -6.184  15.198  22.448  0.00  0.00    +0.000 F 
ATOM     32  C   UNL     1      -3.924  14.531  22.460  0.00  0.00    +0.000 A 
ENDBRANCH  22  25
ENDBRANCH   4  22
TORSDOF 5
ENDMDL
