MODEL 1
REMARK VINA RESULT:      -8.5      0.000      0.000
REMARK  Name = 
REMARK  9 active torsions:
REMARK  status: ('A' for Active; 'I' for Inactive)
REMARK    1  A    between atoms: C_1  and  C_2
REMARK    2  A    between atoms: N_10  and  C_11
REMARK    3  A    between atoms: C_11  and  C_12
REMARK    4  A    between atoms: C_12  and  N_13
REMARK    5  A    between atoms: C_14  and  C_16
REMARK    6  A    between atoms: C_18  and  C_19
REMARK    7  A    between atoms: N_27  and  C_28
REMARK    8  A    between atoms: C_28  and  C_29
REMARK    9  A    between atoms: C_28  and  C_30
REMARK                            x       y       z     vdW  Elec       q    Type
REMARK                         _______ _______ _______ _____ _____    ______ ____
ROOT
ATOM      1  N   UNL     1       1.909   8.171  18.761  0.00  0.00    +0.000 N 
ATOM      2  C   UNL     1       1.631   9.399  18.184  0.00  0.00    +0.000 C 
ATOM      3  O   UNL     1       2.396   9.958  17.409  0.00  0.00    +0.000 OA
ATOM      4  H   UNL     1       1.151   7.648  19.181  0.00  0.00    +0.000 HD
ENDROOT
BRANCH   2   5
ATOM      5  C   UNL     1       0.326  10.016  18.510  0.00  0.00    +0.000 A 
ATOM      6  C   UNL     1      -0.805   9.840  17.708  0.00  0.00    +0.000 A 
ATOM      7  C   UNL     1      -2.022  10.437  18.059  0.00  0.00    +0.000 A 
ATOM      8  N   UNL     1      -2.179  11.193  19.177  0.00  0.00    +0.000 NA
ATOM      9  C   UNL     1      -1.072  11.317  19.938  0.00  0.00    +0.000 A 
ATOM     10  C   UNL     1       0.178  10.769  19.680  0.00  0.00    +0.000 A 
ATOM     11  C   UNL     1       0.974  11.184  20.767  0.00  0.00    +0.000 A 
ATOM     12  N   UNL     1       0.309  11.943  21.642  0.00  0.00    +0.000 NA
ATOM     13  N   UNL     1      -0.944  12.000  21.126  0.00  0.00    +0.000 N 
BRANCH   7  14
ATOM     14  C   UNL     1      -3.229  10.215  17.169  0.00  0.00    +0.000 C 
ATOM     15  C   UNL     1      -3.321  10.930  15.838  0.00  0.00    +0.000 C 
ATOM     16  C   UNL     1      -4.239  11.316  16.957  0.00  0.00    +0.000 C 
ENDBRANCH   7  14
BRANCH  13  17
ATOM     17  C   UNL     1      -1.981  12.739  21.839  0.00  0.00    +0.000 C 
ATOM     18  C   UNL     1      -2.449  11.986  23.086  0.00  0.00    +0.000 C 
ATOM     19  C   UNL     1      -1.512  14.148  22.205  0.00  0.00    +0.000 C 
ENDBRANCH  13  17
ENDBRANCH   2   5
BRANCH   1  20
ATOM     20  C   UNL     1       3.133   7.477  18.375  0.00  0.00    +0.000 C 
BRANCH  20  21
ATOM     21  C   UNL     1       2.893   6.118  17.727  0.00  0.00    +0.000 C 
BRANCH  21  31
ATOM     22  C   UNL     1       5.749   5.027  17.473  0.00  0.00    +0.000 C 
ATOM     23  C   UNL     1       4.723   4.526  18.422  0.00  0.00    +0.000 A 
ATOM     24  N   UNL     1       4.902   3.538  19.274  0.00  0.00    +0.000 NA
ATOM     25  C   UNL     1       3.713   3.397  19.942  0.00  0.00    +0.000 A 
ATOM     26  C   UNL     1       3.367   2.482  20.947  0.00  0.00    +0.000 A 
ATOM     27  C   UNL     1       2.077   2.530  21.486  0.00  0.00    +0.000 A 
ATOM     28  C   UNL     1       1.151   3.470  21.031  0.00  0.00    +0.000 A 
ATOM     29  C   UNL     1       1.479   4.388  20.024  0.00  0.00    +0.000 A 
ATOM     30  C   UNL     1       2.776   4.325  19.497  0.00  0.00    +0.000 A 
ATOM     31  N   UNL     1       3.444   5.034  18.522  0.00  0.00    +0.000 N 
ENDBRANCH  21  31
ENDBRANCH  20  21
ENDBRANCH   1  20
TORSDOF 6
ENDMDL
MODEL 2
REMARK VINA RESULT:      -8.3      1.465      2.852
REMARK  Name = 
REMARK  9 active torsions:
REMARK  status: ('A' for Active; 'I' for Inactive)
REMARK    1  A    between atoms: C_1  and  C_2
REMARK    2  A    between atoms: N_10  and  C_11
REMARK    3  A    between atoms: C_11  and  C_12
REMARK    4  A    between atoms: C_12  and  N_13
REMARK    5  A    between atoms: C_14  and  C_16
REMARK    6  A    between atoms: C_18  and  C_19
REMARK    7  A    between atoms: N_27  and  C_28
REMARK    8  A    between atoms: C_28  and  C_29
REMARK    9  A    between atoms: C_28  and  C_30
REMARK                            x       y       z     vdW  Elec       q    Type
REMARK                         _______ _______ _______ _____ _____    ______ ____
ROOT
ATOM      1  N   UNL     1       1.643   8.382  18.649  0.00  0.00    +0.000 N 
ATOM      2  C   UNL     1       1.398   9.669  18.200  0.00  0.00    +0.000 C 
ATOM      3  O   UNL     1       2.183  10.288  17.495  0.00  0.00    +0.000 OA
ATOM      4  H   UNL     1       0.870   7.834  19.004  0.00  0.00    +0.000 HD
ENDROOT
BRANCH   2   5
ATOM      5  C   UNL     1       0.102  10.276  18.575  0.00  0.00    +0.000 A 
ATOM      6  C   UNL     1      -1.060  10.085  17.822  0.00  0.00    +0.000 A 
ATOM      7  C   UNL     1      -2.267  10.674  18.219  0.00  0.00    +0.000 A 
ATOM      8  N   UNL     1      -2.385  11.437  19.338  0.00  0.00    +0.000 NA
ATOM      9  C   UNL     1      -1.248  11.577  20.051  0.00  0.00    +0.000 A 
ATOM     10  C   UNL     1      -0.004  11.038  19.746  0.00  0.00    +0.000 A 
ATOM     11  C   UNL     1       0.832  11.467  20.796  0.00  0.00    +0.000 A 
ATOM     12  N   UNL     1       0.197  12.226  21.692  0.00  0.00    +0.000 NA
ATOM     13  N   UNL     1      -1.077  12.269  21.228  0.00  0.00    +0.000 N 
BRANCH   7  14
ATOM     14  C   UNL     1      -3.508  10.435  17.382  0.00  0.00    +0.000 C 
ATOM     15  C   UNL     1      -3.667  11.149  16.057  0.00  0.00    +0.000 C 
ATOM     16  C   UNL     1      -4.542  11.521  17.215  0.00  0.00    +0.000 C 
ENDBRANCH   7  14
BRANCH  13  17
ATOM     17  C   UNL     1      -2.091  13.004  21.978  0.00  0.00    +0.000 C 
ATOM     18  C   UNL     1      -2.689  12.150  23.098  0.00  0.00    +0.000 C 
ATOM     19  C   UNL     1      -1.531  14.313  22.539  0.00  0.00    +0.000 C 
ENDBRANCH  13  17
ENDBRANCH   2   5
BRANCH   1  20
ATOM     20  C   UNL     1       2.857   7.705  18.205  0.00  0.00    +0.000 C 
BRANCH  20  21
ATOM     21  C   UNL     1       3.117   6.379  18.910  0.00  0.00    +0.000 C 
BRANCH  21  31
ATOM     22  C   UNL     1       1.504   3.897  18.105  0.00  0.00    +0.000 C 
ATOM     23  C   UNL     1       2.865   4.230  17.613  0.00  0.00    +0.000 A 
ATOM     24  N   UNL     1       3.563   3.495  16.773  0.00  0.00    +0.000 NA
ATOM     25  C   UNL     1       4.753   4.153  16.596  0.00  0.00    +0.000 A 
ATOM     26  C   UNL     1       5.855   3.792  15.807  0.00  0.00    +0.000 A 
ATOM     27  C   UNL     1       6.972   4.635  15.784  0.00  0.00    +0.000 A 
ATOM     28  C   UNL     1       6.990   5.811  16.535  0.00  0.00    +0.000 A 
ATOM     29  C   UNL     1       5.899   6.185  17.332  0.00  0.00    +0.000 A 
ATOM     30  C   UNL     1       4.789   5.329  17.341  0.00  0.00    +0.000 A 
ATOM     31  N   UNL     1       3.572   5.354  17.986  0.00  0.00    +0.000 N 
ENDBRANCH  21  31
ENDBRANCH  20  21
ENDBRANCH   1  20
TORSDOF 6
ENDMDL
MODEL 3
REMARK VINA RESULT:      -8.2      2.003      9.168
REMARK  Name = 
REMARK  9 active torsions:
REMARK  status: ('A' for Active; 'I' for Inactive)
REMARK    1  A    between atoms: C_1  and  C_2
REMARK    2  A    between atoms: N_10  and  C_11
REMARK    3  A    between atoms: C_11  and  C_12
REMARK    4  A    between atoms: C_12  and  N_13
REMARK    5  A    between atoms: C_14  and  C_16
REMARK    6  A    between atoms: C_18  and  C_19
REMARK    7  A    between atoms: N_27  and  C_28
REMARK    8  A    between atoms: C_28  and  C_29
REMARK    9  A    between atoms: C_28  and  C_30
REMARK                            x       y       z     vdW  Elec       q    Type
REMARK                         _______ _______ _______ _____ _____    ______ ____
ROOT
ATOM      1  N   UNL     1       1.520   8.821  19.425  0.00  0.00    +0.000 N 
ATOM      2  C   UNL     1       2.112   8.370  18.257  0.00  0.00    +0.000 C 
ATOM      3  O   UNL     1       2.147   9.034  17.229  0.00  0.00    +0.000 OA
ATOM      4  H   UNL     1       1.739   8.352  20.294  0.00  0.00    +0.000 HD
ENDROOT
BRANCH   2   5
ATOM      5  C   UNL     1       2.756   7.039  18.299  0.00  0.00    +0.000 A 
ATOM      6  C   UNL     1       2.222   5.972  19.029  0.00  0.00    +0.000 A 
ATOM      7  C   UNL     1       2.862   4.727  19.034  0.00  0.00    +0.000 A 
ATOM      8  N   UNL     1       4.003   4.479  18.340  0.00  0.00    +0.000 NA
ATOM      9  C   UNL     1       4.472   5.525  17.628  0.00  0.00    +0.000 A 
ATOM     10  C   UNL     1       3.917   6.796  17.556  0.00  0.00    +0.000 A 
ATOM     11  C   UNL     1       4.773   7.504  16.687  0.00  0.00    +0.000 A 
ATOM     12  N   UNL     1       5.796   6.767  16.247  0.00  0.00    +0.000 NA
ATOM     13  N   UNL     1       5.587   5.556  16.821  0.00  0.00    +0.000 N 
BRANCH   7  14
ATOM     14  C   UNL     1       2.246   3.592  19.829  0.00  0.00    +0.000 C 
ATOM     15  C   UNL     1       0.974   2.936  19.338  0.00  0.00    +0.000 C 
ATOM     16  C   UNL     1       0.945   3.791  20.568  0.00  0.00    +0.000 C 
ENDBRANCH   7  14
BRANCH  13  17
ATOM     17  C   UNL     1       6.512   4.461  16.545  0.00  0.00    +0.000 C 
ATOM     18  C   UNL     1       6.983   4.480  15.089  0.00  0.00    +0.000 C 
ATOM     19  C   UNL     1       7.707   4.486  17.499  0.00  0.00    +0.000 C 
ENDBRANCH  13  17
ENDBRANCH   2   5
BRANCH   1  20
ATOM     20  C   UNL     1       0.977  10.174  19.457  0.00  0.00    +0.000 C 
BRANCH  20  21
ATOM     21  C   UNL     1      -0.459  10.251  19.962  0.00  0.00    +0.000 C 
BRANCH  21  31
ATOM     22  C   UNL     1      -0.339   9.451  22.921  0.00  0.00    +0.000 C 
ATOM     23  C   UNL     1      -0.545  10.832  22.416  0.00  0.00    +0.000 A 
ATOM     24  N   UNL     1      -0.714  11.895  23.174  0.00  0.00    +0.000 NA
ATOM     25  C   UNL     1      -0.879  12.949  22.313  0.00  0.00    +0.000 A 
ATOM     26  C   UNL     1      -1.103  14.303  22.605  0.00  0.00    +0.000 A 
ATOM     27  C   UNL     1      -1.240  15.206  21.546  0.00  0.00    +0.000 A 
ATOM     28  C   UNL     1      -1.158  14.769  20.223  0.00  0.00    +0.000 A 
ATOM     29  C   UNL     1      -0.939  13.419  19.914  0.00  0.00    +0.000 A 
ATOM     30  C   UNL     1      -0.803  12.529  20.988  0.00  0.00    +0.000 A 
ATOM     31  N   UNL     1      -0.593  11.170  21.079  0.00  0.00    +0.000 N 
ENDBRANCH  21  31
ENDBRANCH  20  21
ENDBRANCH   1  20
TORSDOF 6
ENDMDL
MODEL 4
REMARK VINA RESULT:      -8.2      2.150      8.801
REMARK  Name = 
REMARK  9 active torsions:
REMARK  status: ('A' for Active; 'I' for Inactive)
REMARK    1  A    between atoms: C_1  and  C_2
REMARK    2  A    between atoms: N_10  and  C_11
REMARK    3  A    between atoms: C_11  and  C_12
REMARK    4  A    between atoms: C_12  and  N_13
REMARK    5  A    between atoms: C_14  and  C_16
REMARK    6  A    between atoms: C_18  and  C_19
REMARK    7  A    between atoms: N_27  and  C_28
REMARK    8  A    between atoms: C_28  and  C_29
REMARK    9  A    between atoms: C_28  and  C_30
REMARK                            x       y       z     vdW  Elec       q    Type
REMARK                         _______ _______ _______ _____ _____    ______ ____
ROOT
ATOM      1  N   UNL     1       2.194   8.776  17.729  0.00  0.00    +0.000 N 
ATOM      2  C   UNL     1       2.408   7.762  18.648  0.00  0.00    +0.000 C 
ATOM      3  O   UNL     1       2.227   7.905  19.850  0.00  0.00    +0.000 OA
ATOM      4  H   UNL     1       2.112   8.536  16.749  0.00  0.00    +0.000 HD
ENDROOT
BRANCH   2   5
ATOM      5  C   UNL     1       2.836   6.450  18.115  0.00  0.00    +0.000 A 
ATOM      6  C   UNL     1       2.153   5.266  18.405  0.00  0.00    +0.000 A 
ATOM      7  C   UNL     1       2.589   4.047  17.872  0.00  0.00    +0.000 A 
ATOM      8  N   UNL     1       3.668   3.943  17.052  0.00  0.00    +0.000 NA
ATOM      9  C   UNL     1       4.285   5.110  16.775  0.00  0.00    +0.000 A 
ATOM     10  C   UNL     1       3.934   6.368  17.250  0.00  0.00    +0.000 A 
ATOM     11  C   UNL     1       4.877   7.239  16.668  0.00  0.00    +0.000 A 
ATOM     12  N   UNL     1       5.766   6.606  15.898  0.00  0.00    +0.000 NA
ATOM     13  N   UNL     1       5.378   5.308  15.964  0.00  0.00    +0.000 N 
BRANCH   7  14
ATOM     14  C   UNL     1       1.816   2.786  18.202  0.00  0.00    +0.000 C 
ATOM     15  C   UNL     1       1.718   2.320  19.639  0.00  0.00    +0.000 C 
ATOM     16  C   UNL     1       2.537   1.539  18.656  0.00  0.00    +0.000 C 
ENDBRANCH   7  14
BRANCH  13  17
ATOM     17  C   UNL     1       6.116   4.299  15.210  0.00  0.00    +0.000 C 
ATOM     18  C   UNL     1       5.404   3.944  13.903  0.00  0.00    +0.000 C 
ATOM     19  C   UNL     1       7.554   4.746  14.937  0.00  0.00    +0.000 C 
ENDBRANCH  13  17
ENDBRANCH   2   5
BRANCH   1  20
ATOM     20  C   UNL     1       1.660  10.048  18.202  0.00  0.00    +0.000 C 
BRANCH  20  21
ATOM     21  C   UNL     1       0.137  10.101  18.247  0.00  0.00    +0.000 C 
BRANCH  21  31
ATOM     22  C   UNL     1      -0.735  13.036  18.070  0.00  0.00    +0.000 C 
ATOM     23  C   UNL     1      -0.741  12.215  19.307  0.00  0.00    +0.000 A 
ATOM     24  N   UNL     1      -1.110  12.644  20.495  0.00  0.00    +0.000 NA
ATOM     25  C   UNL     1      -0.951  11.582  21.346  0.00  0.00    +0.000 A 
ATOM     26  C   UNL     1      -1.194  11.508  22.726  0.00  0.00    +0.000 A 
ATOM     27  C   UNL     1      -0.956  10.299  23.389  0.00  0.00    +0.000 A 
ATOM     28  C   UNL     1      -0.483   9.187  22.690  0.00  0.00    +0.000 A 
ATOM     29  C   UNL     1      -0.232   9.244  21.312  0.00  0.00    +0.000 A 
ATOM     30  C   UNL     1      -0.477  10.463  20.666  0.00  0.00    +0.000 A 
ATOM     31  N   UNL     1      -0.346  10.894  19.363  0.00  0.00    +0.000 N 
ENDBRANCH  21  31
ENDBRANCH  20  21
ENDBRANCH   1  20
TORSDOF 6
ENDMDL
MODEL 5
REMARK VINA RESULT:      -8.1      1.386      9.059
REMARK  Name = 
REMARK  9 active torsions:
REMARK  status: ('A' for Active; 'I' for Inactive)
REMARK    1  A    between atoms: C_1  and  C_2
REMARK    2  A    between atoms: N_10  and  C_11
REMARK    3  A    between atoms: C_11  and  C_12
REMARK    4  A    between atoms: C_12  and  N_13
REMARK    5  A    between atoms: C_14  and  C_16
REMARK    6  A    between atoms: C_18  and  C_19
REMARK    7  A    between atoms: N_27  and  C_28
REMARK    8  A    between atoms: C_28  and  C_29
REMARK    9  A    between atoms: C_28  and  C_30
REMARK                            x       y       z     vdW  Elec       q    Type
REMARK                         _______ _______ _______ _____ _____    ______ ____
ROOT
ATOM      1  N   UNL     1       1.385   9.196  19.595  0.00  0.00    +0.000 N 
ATOM      2  C   UNL     1       1.946   8.563  18.498  0.00  0.00    +0.000 C 
ATOM      3  O   UNL     1       1.937   9.048  17.374  0.00  0.00    +0.000 OA
ATOM      4  H   UNL     1       1.640   8.880  20.522  0.00  0.00    +0.000 HD
ENDROOT
BRANCH   2   5
ATOM      5  C   UNL     1       2.610   7.263  18.738  0.00  0.00    +0.000 A 
ATOM      6  C   UNL     1       2.218   6.401  19.766  0.00  0.00    +0.000 A 
ATOM      7  C   UNL     1       2.871   5.176  19.952  0.00  0.00    +0.000 A 
ATOM      8  N   UNL     1       3.890   4.754  19.158  0.00  0.00    +0.000 NA
ATOM      9  C   UNL     1       4.222   5.602  18.162  0.00  0.00    +0.000 A 
ATOM     10  C   UNL     1       3.641   6.835  17.892  0.00  0.00    +0.000 A 
ATOM     11  C   UNL     1       4.334   7.310  16.760  0.00  0.00    +0.000 A 
ATOM     12  N   UNL     1       5.285   6.472  16.341  0.00  0.00    +0.000 NA
ATOM     13  N   UNL     1       5.191   5.427  17.201  0.00  0.00    +0.000 N 
BRANCH   7  14
ATOM     14  C   UNL     1       2.411   4.265  21.072  0.00  0.00    +0.000 C 
ATOM     15  C   UNL     1       2.650   2.774  20.971  0.00  0.00    +0.000 C 
ATOM     16  C   UNL     1       1.257   3.314  20.862  0.00  0.00    +0.000 C 
ENDBRANCH   7  14
BRANCH  13  17
ATOM     17  C   UNL     1       6.078   4.279  17.036  0.00  0.00    +0.000 C 
ATOM     18  C   UNL     1       6.092   3.786  15.587  0.00  0.00    +0.000 C 
ATOM     19  C   UNL     1       7.497   4.597  17.511  0.00  0.00    +0.000 C 
ENDBRANCH  13  17
ENDBRANCH   2   5
BRANCH   1  20
ATOM     20  C   UNL     1       0.824  10.531  19.421  0.00  0.00    +0.000 C 
BRANCH  20  21
ATOM     21  C   UNL     1      -0.269  10.876  20.426  0.00  0.00    +0.000 C 
BRANCH  21  31
ATOM     22  C   UNL     1      -2.178  12.985  21.575  0.00  0.00    +0.000 C 
ATOM     23  C   UNL     1      -2.350  12.295  20.272  0.00  0.00    +0.000 A 
ATOM     24  N   UNL     1      -3.353  12.489  19.442  0.00  0.00    +0.000 NA
ATOM     25  C   UNL     1      -3.131  11.652  18.380  0.00  0.00    +0.000 A 
ATOM     26  C   UNL     1      -3.905  11.463  17.225  0.00  0.00    +0.000 A 
ATOM     27  C   UNL     1      -3.470  10.543  16.265  0.00  0.00    +0.000 A 
ATOM     28  C   UNL     1      -2.289   9.824  16.454  0.00  0.00    +0.000 A 
ATOM     29  C   UNL     1      -1.505   9.998  17.604  0.00  0.00    +0.000 A 
ATOM     30  C   UNL     1      -1.957  10.926  18.553  0.00  0.00    +0.000 A 
ATOM     31  N   UNL     1      -1.477  11.350  19.773  0.00  0.00    +0.000 N 
ENDBRANCH  21  31
ENDBRANCH  20  21
ENDBRANCH   1  20
TORSDOF 6
ENDMDL
MODEL 6
REMARK VINA RESULT:      -8.1      1.989      8.918
REMARK  Name = 
REMARK  9 active torsions:
REMARK  status: ('A' for Active; 'I' for Inactive)
REMARK    1  A    between atoms: C_1  and  C_2
REMARK    2  A    between atoms: N_10  and  C_11
REMARK    3  A    between atoms: C_11  and  C_12
REMARK    4  A    between atoms: C_12  and  N_13
REMARK    5  A    between atoms: C_14  and  C_16
REMARK    6  A    between atoms: C_18  and  C_19
REMARK    7  A    between atoms: N_27  and  C_28
REMARK    8  A    between atoms: C_28  and  C_29
REMARK    9  A    between atoms: C_28  and  C_30
REMARK                            x       y       z     vdW  Elec       q    Type
REMARK                         _______ _______ _______ _____ _____    ______ ____
ROOT
ATOM      1  N   UNL     1       1.015   9.111  19.392  0.00  0.00    +0.000 N 
ATOM      2  C   UNL     1       1.899   8.646  18.432  0.00  0.00    +0.000 C 
ATOM      3  O   UNL     1       2.174   9.277  17.420  0.00  0.00    +0.000 OA
ATOM      4  H   UNL     1       1.021   8.680  20.308  0.00  0.00    +0.000 HD
ENDROOT
BRANCH   2   5
ATOM      5  C   UNL     1       2.551   7.344  18.692  0.00  0.00    +0.000 A 
ATOM      6  C   UNL     1       2.145   6.497  19.727  0.00  0.00    +0.000 A 
ATOM      7  C   UNL     1       2.787   5.269  19.932  0.00  0.00    +0.000 A 
ATOM      8  N   UNL     1       3.809   4.830  19.151  0.00  0.00    +0.000 NA
ATOM      9  C   UNL     1       4.155   5.664  18.148  0.00  0.00    +0.000 A 
ATOM     10  C   UNL     1       3.585   6.898  17.860  0.00  0.00    +0.000 A 
ATOM     11  C   UNL     1       4.291   7.355  16.728  0.00  0.00    +0.000 A 
ATOM     12  N   UNL     1       5.240   6.505  16.326  0.00  0.00    +0.000 NA
ATOM     13  N   UNL     1       5.131   5.471  17.197  0.00  0.00    +0.000 N 
BRANCH   7  14
ATOM     14  C   UNL     1       2.310   4.374  21.058  0.00  0.00    +0.000 C 
ATOM     15  C   UNL     1       2.598   2.889  21.008  0.00  0.00    +0.000 C 
ATOM     16  C   UNL     1       1.195   3.382  20.831  0.00  0.00    +0.000 C 
ENDBRANCH   7  14
BRANCH  13  17
ATOM     17  C   UNL     1       6.010   4.315  17.052  0.00  0.00    +0.000 C 
ATOM     18  C   UNL     1       6.018   3.794  15.613  0.00  0.00    +0.000 C 
ATOM     19  C   UNL     1       7.432   4.633  17.518  0.00  0.00    +0.000 C 
ENDBRANCH  13  17
ENDBRANCH   2   5
BRANCH   1  20
ATOM     20  C   UNL     1       0.441  10.441  19.229  0.00  0.00    +0.000 C 
BRANCH  20  21
ATOM     21  C   UNL     1       0.799  11.410  20.350  0.00  0.00    +0.000 C 
BRANCH  21  31
ATOM     22  C   UNL     1       1.007   9.358  22.622  0.00  0.00    +0.000 C 
ATOM     23  C   UNL     1      -0.049  10.395  22.499  0.00  0.00    +0.000 A 
ATOM     24  N   UNL     1      -1.044  10.562  23.344  0.00  0.00    +0.000 NA
ATOM     25  C   UNL     1      -1.784  11.607  22.855  0.00  0.00    +0.000 A 
ATOM     26  C   UNL     1      -2.953  12.182  23.373  0.00  0.00    +0.000 A 
ATOM     27  C   UNL     1      -3.536  13.256  22.690  0.00  0.00    +0.000 A 
ATOM     28  C   UNL     1      -2.964  13.744  21.514  0.00  0.00    +0.000 A 
ATOM     29  C   UNL     1      -1.798  13.178  20.981  0.00  0.00    +0.000 A 
ATOM     30  C   UNL     1      -1.228  12.105  21.680  0.00  0.00    +0.000 A 
ATOM     31  N   UNL     1      -0.122  11.310  21.469  0.00  0.00    +0.000 N 
ENDBRANCH  21  31
ENDBRANCH  20  21
ENDBRANCH   1  20
TORSDOF 6
ENDMDL
MODEL 7
REMARK VINA RESULT:      -8.1      1.739      9.040
REMARK  Name = 
REMARK  9 active torsions:
REMARK  status: ('A' for Active; 'I' for Inactive)
REMARK    1  A    between atoms: C_1  and  C_2
REMARK    2  A    between atoms: N_10  and  C_11
REMARK    3  A    between atoms: C_11  and  C_12
REMARK    4  A    between atoms: C_12  and  N_13
REMARK    5  A    between atoms: C_14  and  C_16
REMARK    6  A    between atoms: C_18  and  C_19
REMARK    7  A    between atoms: N_27  and  C_28
REMARK    8  A    between atoms: C_28  and  C_29
REMARK    9  A    between atoms: C_28  and  C_30
REMARK                            x       y       z     vdW  Elec       q    Type
REMARK                         _______ _______ _______ _____ _____    ______ ____
ROOT
ATOM      1  N   UNL     1       1.685   8.872  18.011  0.00  0.00    +0.000 N 
ATOM      2  C   UNL     1       2.096   7.941  18.949  0.00  0.00    +0.000 C 
ATOM      3  O   UNL     1       2.096   8.164  20.153  0.00  0.00    +0.000 OA
ATOM      4  H   UNL     1       1.467   8.556  17.074  0.00  0.00    +0.000 HD
ENDROOT
BRANCH   2   5
ATOM      5  C   UNL     1       2.511   6.614  18.444  0.00  0.00    +0.000 A 
ATOM      6  C   UNL     1       1.775   5.453  18.698  0.00  0.00    +0.000 A 
ATOM      7  C   UNL     1       2.201   4.218  18.193  0.00  0.00    +0.000 A 
ATOM      8  N   UNL     1       3.318   4.077  17.433  0.00  0.00    +0.000 NA
ATOM      9  C   UNL     1       3.987   5.223  17.188  0.00  0.00    +0.000 A 
ATOM     10  C   UNL     1       3.651   6.493  17.641  0.00  0.00    +0.000 A 
ATOM     11  C   UNL     1       4.652   7.331  17.109  0.00  0.00    +0.000 A 
ATOM     12  N   UNL     1       5.562   6.667  16.390  0.00  0.00    +0.000 NA
ATOM     13  N   UNL     1       5.129   5.382  16.438  0.00  0.00    +0.000 N 
BRANCH   7  14
ATOM     14  C   UNL     1       1.370   2.984  18.482  0.00  0.00    +0.000 C 
ATOM     15  C   UNL     1       0.997   2.649  19.911  0.00  0.00    +0.000 C 
ATOM     16  C   UNL     1       1.983   1.792  19.177  0.00  0.00    +0.000 C 
ENDBRANCH   7  14
BRANCH  13  17
ATOM     17  C   UNL     1       5.874   4.347  15.728  0.00  0.00    +0.000 C 
ATOM     18  C   UNL     1       5.590   4.383  14.224  0.00  0.00    +0.000 C 
ATOM     19  C   UNL     1       7.377   4.458  15.995  0.00  0.00    +0.000 C 
ENDBRANCH  13  17
ENDBRANCH   2   5
BRANCH   1  20
ATOM     20  C   UNL     1       1.160  10.151  18.477  0.00  0.00    +0.000 C 
BRANCH  20  21
ATOM     21  C   UNL     1       0.087  10.022  19.552  0.00  0.00    +0.000 C 
BRANCH  21  31
ATOM     22  C   UNL     1      -1.079  12.285  21.264  0.00  0.00    +0.000 C 
ATOM     23  C   UNL     1      -1.647  11.805  19.979  0.00  0.00    +0.000 A 
ATOM     24  N   UNL     1      -2.735  12.280  19.410  0.00  0.00    +0.000 NA
ATOM     25  C   UNL     1      -2.907  11.555  18.260  0.00  0.00    +0.000 A 
ATOM     26  C   UNL     1      -3.920  11.654  17.294  0.00  0.00    +0.000 A 
ATOM     27  C   UNL     1      -3.885  10.796  16.190  0.00  0.00    +0.000 A 
ATOM     28  C   UNL     1      -2.862   9.856  16.053  0.00  0.00    +0.000 A 
ATOM     29  C   UNL     1      -1.844   9.741  17.011  0.00  0.00    +0.000 A 
ATOM     30  C   UNL     1      -1.896  10.610  18.109  0.00  0.00    +0.000 A 
ATOM     31  N   UNL     1      -1.104  10.786  19.223  0.00  0.00    +0.000 N 
ENDBRANCH  21  31
ENDBRANCH  20  21
ENDBRANCH   1  20
TORSDOF 6
ENDMDL
MODEL 8
REMARK VINA RESULT:      -8.0      1.323      8.718
REMARK  Name = 
REMARK  9 active torsions:
REMARK  status: ('A' for Active; 'I' for Inactive)
REMARK    1  A    between atoms: C_1  and  C_2
REMARK    2  A    between atoms: N_10  and  C_11
REMARK    3  A    between atoms: C_11  and  C_12
REMARK    4  A    between atoms: C_12  and  N_13
REMARK    5  A    between atoms: C_14  and  C_16
REMARK    6  A    between atoms: C_18  and  C_19
REMARK    7  A    between atoms: N_27  and  C_28
REMARK    8  A    between atoms: C_28  and  C_29
REMARK    9  A    between atoms: C_28  and  C_30
REMARK                            x       y       z     vdW  Elec       q    Type
REMARK                         _______ _______ _______ _____ _____    ______ ____
ROOT
ATOM      1  N   UNL     1       1.612   9.108  19.562  0.00  0.00    +0.000 N 
ATOM      2  C   UNL     1       2.103   8.728  18.324  0.00  0.00    +0.000 C 
ATOM      3  O   UNL     1       1.976   9.414  17.318  0.00  0.00    +0.000 OA
ATOM      4  H   UNL     1       1.959   8.640  20.389  0.00  0.00    +0.000 HD
ENDROOT
BRANCH   2   5
ATOM      5  C   UNL     1       2.844   7.449  18.258  0.00  0.00    +0.000 A 
ATOM      6  C   UNL     1       3.908   7.245  17.374  0.00  0.00    +0.000 A 
ATOM      7  C   UNL     1       4.586   6.020  17.352  0.00  0.00    +0.000 A 
ATOM      8  N   UNL     1       4.269   4.985  18.174  0.00  0.00    +0.000 NA
ATOM      9  C   UNL     1       3.255   5.230  19.029  0.00  0.00    +0.000 A 
ATOM     10  C   UNL     1       2.520   6.404  19.132  0.00  0.00    +0.000 A 
ATOM     11  C   UNL     1       1.597   6.151  20.167  0.00  0.00    +0.000 A 
ATOM     12  N   UNL     1       1.711   4.923  20.679  0.00  0.00    +0.000 NA
ATOM     13  N   UNL     1       2.739   4.381  19.982  0.00  0.00    +0.000 N 
BRANCH   7  14
ATOM     14  C   UNL     1       5.740   5.841  16.386  0.00  0.00    +0.000 C 
ATOM     15  C   UNL     1       5.533   5.061  15.106  0.00  0.00    +0.000 C 
ATOM     16  C   UNL     1       6.382   4.488  16.199  0.00  0.00    +0.000 C 
ENDBRANCH   7  14
BRANCH  13  17
ATOM     17  C   UNL     1       3.179   3.023  20.289  0.00  0.00    +0.000 C 
ATOM     18  C   UNL     1       2.588   2.529  21.612  0.00  0.00    +0.000 C 
ATOM     19  C   UNL     1       2.840   2.056  19.153  0.00  0.00    +0.000 C 
ENDBRANCH  13  17
ENDBRANCH   2   5
BRANCH   1  20
ATOM     20  C   UNL     1       0.977  10.416  19.691  0.00  0.00    +0.000 C 
BRANCH  20  21
ATOM     21  C   UNL     1      -0.270  10.412  20.568  0.00  0.00    +0.000 C 
BRANCH  21  31
ATOM     22  C   UNL     1      -1.851  12.743  21.783  0.00  0.00    +0.000 C 
ATOM     23  C   UNL     1      -2.112  12.132  20.455  0.00  0.00    +0.000 A 
ATOM     24  N   UNL     1      -3.066  12.504  19.628  0.00  0.00    +0.000 NA
ATOM     25  C   UNL     1      -2.962  11.681  18.537  0.00  0.00    +0.000 A 
ATOM     26  C   UNL     1      -3.744  11.650  17.373  0.00  0.00    +0.000 A 
ATOM     27  C   UNL     1      -3.443  10.709  16.383  0.00  0.00    +0.000 A 
ATOM     28  C   UNL     1      -2.384   9.815  16.551  0.00  0.00    +0.000 A 
ATOM     29  C   UNL     1      -1.595   9.829  17.710  0.00  0.00    +0.000 A 
ATOM     30  C   UNL     1      -1.912  10.780  18.690  0.00  0.00    +0.000 A 
ATOM     31  N   UNL     1      -1.386  11.085  19.927  0.00  0.00    +0.000 N 
ENDBRANCH  21  31
ENDBRANCH  20  21
ENDBRANCH   1  20
TORSDOF 6
ENDMDL
MODEL 9
REMARK VINA RESULT:      -8.0      1.542      9.199
REMARK  Name = 
REMARK  9 active torsions:
REMARK  status: ('A' for Active; 'I' for Inactive)
REMARK    1  A    between atoms: C_1  and  C_2
REMARK    2  A    between atoms: N_10  and  C_11
REMARK    3  A    between atoms: C_11  and  C_12
REMARK    4  A    between atoms: C_12  and  N_13
REMARK    5  A    between atoms: C_14  and  C_16
REMARK    6  A    between atoms: C_18  and  C_19
REMARK    7  A    between atoms: N_27  and  C_28
REMARK    8  A    between atoms: C_28  and  C_29
REMARK    9  A    between atoms: C_28  and  C_30
REMARK                            x       y       z     vdW  Elec       q    Type
REMARK                         _______ _______ _______ _____ _____    ______ ____
ROOT
ATOM      1  N   UNL     1       1.781   8.226  20.602  0.00  0.00    +0.000 N 
ATOM      2  C   UNL     1       2.036   7.809  19.307  0.00  0.00    +0.000 C 
ATOM      3  O   UNL     1       1.704   8.455  18.322  0.00  0.00    +0.000 OA
ATOM      4  H   UNL     1       2.290   7.794  21.363  0.00  0.00    +0.000 HD
ENDROOT
BRANCH   2   5
ATOM      5  C   UNL     1       2.780   6.540  19.143  0.00  0.00    +0.000 A 
ATOM      6  C   UNL     1       2.505   5.407  19.914  0.00  0.00    +0.000 A 
ATOM      7  C   UNL     1       3.229   4.224  19.719  0.00  0.00    +0.000 A 
ATOM      8  N   UNL     1       4.209   4.103  18.786  0.00  0.00    +0.000 NA
ATOM      9  C   UNL     1       4.427   5.210  18.046  0.00  0.00    +0.000 A 
ATOM     10  C   UNL     1       3.768   6.428  18.158  0.00  0.00    +0.000 A 
ATOM     11  C   UNL     1       4.355   7.238  17.165  0.00  0.00    +0.000 A 
ATOM     12  N   UNL     1       5.316   6.611  16.481  0.00  0.00    +0.000 NA
ATOM     13  N   UNL     1       5.335   5.369  17.023  0.00  0.00    +0.000 N 
BRANCH   7  14
ATOM     14  C   UNL     1       2.894   3.014  20.568  0.00  0.00    +0.000 C 
ATOM     15  C   UNL     1       1.509   2.408  20.496  0.00  0.00    +0.000 C 
ATOM     16  C   UNL     1       1.942   3.133  21.733  0.00  0.00    +0.000 C 
ENDBRANCH   7  14
BRANCH  13  17
ATOM     17  C   UNL     1       6.263   4.371  16.501  0.00  0.00    +0.000 C 
ATOM     18  C   UNL     1       6.447   4.514  14.988  0.00  0.00    +0.000 C 
ATOM     19  C   UNL     1       7.615   4.437  17.216  0.00  0.00    +0.000 C 
ENDBRANCH  13  17
ENDBRANCH   2   5
BRANCH   1  20
ATOM     20  C   UNL     1       1.153   9.527  20.808  0.00  0.00    +0.000 C 
BRANCH  20  21
ATOM     21  C   UNL     1      -0.371   9.483  20.816  0.00  0.00    +0.000 C 
BRANCH  21  31
ATOM     22  C   UNL     1      -1.240  10.286  17.986  0.00  0.00    +0.000 C 
ATOM     23  C   UNL     1      -1.348  11.147  19.191  0.00  0.00    +0.000 A 
ATOM     24  N   UNL     1      -1.820  12.376  19.200  0.00  0.00    +0.000 NA
ATOM     25  C   UNL     1      -1.730  12.805  20.499  0.00  0.00    +0.000 A 
ATOM     26  C   UNL     1      -2.090  14.044  21.049  0.00  0.00    +0.000 A 
ATOM     27  C   UNL     1      -1.904  14.253  22.420  0.00  0.00    +0.000 A 
ATOM     28  C   UNL     1      -1.367  13.247  23.225  0.00  0.00    +0.000 A 
ATOM     29  C   UNL     1      -0.998  12.005  22.691  0.00  0.00    +0.000 A 
ATOM     30  C   UNL     1      -1.193  11.814  21.316  0.00  0.00    +0.000 A 
ATOM     31  N   UNL     1      -0.952  10.765  20.456  0.00  0.00    +0.000 N 
ENDBRANCH  21  31
ENDBRANCH  20  21
ENDBRANCH   1  20
TORSDOF 6
ENDMDL
