MODEL 1
REMARK VINA RESULT:      -8.6      0.000      0.000
REMARK  Name = 
REMARK  8 active torsions:
REMARK  status: ('A' for Active; 'I' for Inactive)
REMARK    1  A    between atoms: C_1  and  C_2
REMARK    2  A    between atoms: C_6  and  C_7
REMARK    3  A    between atoms: N_13  and  C_14
REMARK    4  A    between atoms: C_18  and  N_19
REMARK    5  A    between atoms: N_19  and  C_20
REMARK    6  A    between atoms: N_19  and  C_21
REMARK    7  A    between atoms: C_21  and  C_22
REMARK    8  A    between atoms: N_26  and  C_27
REMARK                            x       y       z     vdW  Elec       q    Type
REMARK                         _______ _______ _______ _____ _____    ______ ____
ROOT
ATOM      1  C   UNL     1       0.030   9.677  23.445  0.00  0.00    +0.000 C 
ATOM      2  C   UNL     1       0.522   9.300  22.079  0.00  0.00    +0.000 A 
ATOM      3  C   UNL     1       0.947   7.999  21.825  0.00  0.00    +0.000 A 
ATOM      4  C   UNL     1       1.420   7.709  20.560  0.00  0.00    +0.000 A 
ATOM      5  C   UNL     1       1.502   8.631  19.518  0.00  0.00    +0.000 A 
ATOM      6  C   UNL     1       1.046   9.929  19.737  0.00  0.00    +0.000 A 
ATOM      7  C   UNL     1       0.563  10.249  21.033  0.00  0.00    +0.000 A 
ATOM      8  C   UNL     1       2.117   7.958  18.315  0.00  0.00    +0.000 C 
ATOM      9  N   UNL     1       2.309   6.584  18.767  0.00  0.00    +0.000 N 
ATOM     10  C   UNL     1       1.919   6.421  20.096  0.00  0.00    +0.000 C 
ATOM     11  O   UNL     1       1.983   5.455  20.835  0.00  0.00    +0.000 OA
ENDROOT
BRANCH   9  12
ATOM     12  C   UNL     1       2.842   5.518  17.996  0.00  0.00    +0.000 A 
ATOM     13  C   UNL     1       2.154   4.297  17.976  0.00  0.00    +0.000 A 
ATOM     14  C   UNL     1       2.665   3.189  17.315  0.00  0.00    +0.000 A 
ATOM     15  C   UNL     1       3.892   3.280  16.673  0.00  0.00    +0.000 A 
ATOM     16  C   UNL     1       4.631   4.475  16.665  0.00  0.00    +0.000 A 
ATOM     17  C   UNL     1       4.057   5.608  17.298  0.00  0.00    +0.000 A 
BRANCH  16  18
ATOM     18  N   UNL     1       5.890   4.538  16.065  0.00  0.00    +0.000 N 
ATOM     19  C   UNL     1       6.101   3.837  14.796  0.00  0.00    +0.000 C 
BRANCH  18  20
ATOM     20  C   UNL     1       7.085   4.659  16.928  0.00  0.00    +0.000 C 
BRANCH  20  21
ATOM     21  C   UNL     1       7.538   6.029  17.353  0.00  0.00    +0.000 A 
ATOM     22  N   UNL     1       7.546   7.100  16.576  0.00  0.00    +0.000 NA
ATOM     23  N   UNL     1       7.926   8.186  17.327  0.00  0.00    +0.000 NA
ATOM     24  C   UNL     1       8.152   7.760  18.546  0.00  0.00    +0.000 A 
ATOM     25  N   UNL     1       7.931   6.416  18.609  0.00  0.00    +0.000 N 
ATOM     26  C   UNL     1       8.085   5.624  19.799  0.00  0.00    +0.000 C 
ENDBRANCH  20  21
ENDBRANCH  18  20
ENDBRANCH  16  18
ENDBRANCH   9  12
BRANCH   6  27
ATOM     27  C   UNL     1       1.030  10.994  18.672  0.00  0.00    +0.000 C 
ATOM     28  F   UNL     1       0.102  10.779  17.699  0.00  0.00    +0.000 F 
ATOM     29  F   UNL     1       0.761  12.228  19.179  0.00  0.00    +0.000 F 
ATOM     30  F   UNL     1       2.225  11.105  18.031  0.00  0.00    +0.000 F 
ENDBRANCH   6  27
TORSDOF 5
ENDMDL
MODEL 2
REMARK VINA RESULT:      -8.4      0.710      1.213
REMARK  Name = 
REMARK  8 active torsions:
REMARK  status: ('A' for Active; 'I' for Inactive)
REMARK    1  A    between atoms: C_1  and  C_2
REMARK    2  A    between atoms: C_6  and  C_7
REMARK    3  A    between atoms: N_13  and  C_14
REMARK    4  A    between atoms: C_18  and  N_19
REMARK    5  A    between atoms: N_19  and  C_20
REMARK    6  A    between atoms: N_19  and  C_21
REMARK    7  A    between atoms: C_21  and  C_22
REMARK    8  A    between atoms: N_26  and  C_27
REMARK                            x       y       z     vdW  Elec       q    Type
REMARK                         _______ _______ _______ _____ _____    ______ ____
ROOT
ATOM      1  C   UNL     1      -0.104   9.750  23.337  0.00  0.00    +0.000 C 
ATOM      2  C   UNL     1       0.437   9.352  21.995  0.00  0.00    +0.000 A 
ATOM      3  C   UNL     1       0.930   8.066  21.795  0.00  0.00    +0.000 A 
ATOM      4  C   UNL     1       1.445   7.757  20.551  0.00  0.00    +0.000 A 
ATOM      5  C   UNL     1       1.506   8.646  19.480  0.00  0.00    +0.000 A 
ATOM      6  C   UNL     1       0.983   9.927  19.645  0.00  0.00    +0.000 A 
ATOM      7  C   UNL     1       0.456  10.266  20.918  0.00  0.00    +0.000 A 
ATOM      8  C   UNL     1       2.179   7.964  18.315  0.00  0.00    +0.000 C 
ATOM      9  N   UNL     1       2.427   6.617  18.818  0.00  0.00    +0.000 N 
ATOM     10  C   UNL     1       2.015   6.480  20.144  0.00  0.00    +0.000 C 
ATOM     11  O   UNL     1       2.109   5.543  20.917  0.00  0.00    +0.000 OA
ENDROOT
BRANCH   9  12
ATOM     12  C   UNL     1       3.028   5.553  18.096  0.00  0.00    +0.000 A 
ATOM     13  C   UNL     1       2.654   4.238  18.406  0.00  0.00    +0.000 A 
ATOM     14  C   UNL     1       3.266   3.150  17.801  0.00  0.00    +0.000 A 
ATOM     15  C   UNL     1       4.284   3.360  16.880  0.00  0.00    +0.000 A 
ATOM     16  C   UNL     1       4.707   4.654  16.536  0.00  0.00    +0.000 A 
ATOM     17  C   UNL     1       4.024   5.750  17.125  0.00  0.00    +0.000 A 
BRANCH  16  18
ATOM     18  N   UNL     1       5.771   4.852  15.653  0.00  0.00    +0.000 N 
ATOM     19  C   UNL     1       5.575   4.542  14.235  0.00  0.00    +0.000 C 
BRANCH  18  20
ATOM     20  C   UNL     1       7.152   4.685  16.154  0.00  0.00    +0.000 C 
BRANCH  20  21
ATOM     21  C   UNL     1       7.491   5.185  17.532  0.00  0.00    +0.000 A 
ATOM     22  N   UNL     1       7.838   4.419  18.552  0.00  0.00    +0.000 NA
ATOM     23  N   UNL     1       8.169   5.225  19.615  0.00  0.00    +0.000 NA
ATOM     24  C   UNL     1       8.011   6.467  19.229  0.00  0.00    +0.000 A 
ATOM     25  N   UNL     1       7.579   6.494  17.936  0.00  0.00    +0.000 N 
ATOM     26  C   UNL     1       7.304   7.696  17.197  0.00  0.00    +0.000 C 
ENDBRANCH  20  21
ENDBRANCH  18  20
ENDBRANCH  16  18
ENDBRANCH   9  12
BRANCH   6  27
ATOM     27  C   UNL     1       0.940  10.954  18.543  0.00  0.00    +0.000 C 
ATOM     28  F   UNL     1       0.099  10.626  17.524  0.00  0.00    +0.000 F 
ATOM     29  F   UNL     1       0.530  12.173  18.988  0.00  0.00    +0.000 F 
ATOM     30  F   UNL     1       2.159  11.154  17.972  0.00  0.00    +0.000 F 
ENDBRANCH   6  27
TORSDOF 5
ENDMDL
MODEL 3
REMARK VINA RESULT:      -8.4      4.205      8.714
REMARK  Name = 
REMARK  8 active torsions:
REMARK  status: ('A' for Active; 'I' for Inactive)
REMARK    1  A    between atoms: C_1  and  C_2
REMARK    2  A    between atoms: C_6  and  C_7
REMARK    3  A    between atoms: N_13  and  C_14
REMARK    4  A    between atoms: C_18  and  N_19
REMARK    5  A    between atoms: N_19  and  C_20
REMARK    6  A    between atoms: N_19  and  C_21
REMARK    7  A    between atoms: C_21  and  C_22
REMARK    8  A    between atoms: N_26  and  C_27
REMARK                            x       y       z     vdW  Elec       q    Type
REMARK                         _______ _______ _______ _____ _____    ______ ____
ROOT
ATOM      1  C   UNL     1       6.121   4.131  15.107  0.00  0.00    +0.000 C 
ATOM      2  C   UNL     1       5.102   4.408  16.173  0.00  0.00    +0.000 A 
ATOM      3  C   UNL     1       4.753   5.720  16.480  0.00  0.00    +0.000 A 
ATOM      4  C   UNL     1       3.833   5.925  17.490  0.00  0.00    +0.000 A 
ATOM      5  C   UNL     1       3.229   4.906  18.225  0.00  0.00    +0.000 A 
ATOM      6  C   UNL     1       3.533   3.584  17.909  0.00  0.00    +0.000 A 
ATOM      7  C   UNL     1       4.482   3.353  16.879  0.00  0.00    +0.000 A 
ATOM      8  C   UNL     1       2.329   5.522  19.269  0.00  0.00    +0.000 C 
ATOM      9  N   UNL     1       2.449   6.953  19.005  0.00  0.00    +0.000 N 
ATOM     10  C   UNL     1       3.345   7.211  17.969  0.00  0.00    +0.000 C 
ATOM     11  O   UNL     1       3.750   8.263  17.507  0.00  0.00    +0.000 OA
ENDROOT
BRANCH   9  12
ATOM     12  C   UNL     1       1.774   7.989  19.703  0.00  0.00    +0.000 A 
ATOM     13  C   UNL     1       1.381   7.757  21.028  0.00  0.00    +0.000 A 
ATOM     14  C   UNL     1       0.641   8.692  21.738  0.00  0.00    +0.000 A 
ATOM     15  C   UNL     1       0.265   9.878  21.123  0.00  0.00    +0.000 A 
ATOM     16  C   UNL     1       0.623  10.163  19.795  0.00  0.00    +0.000 A 
ATOM     17  C   UNL     1       1.429   9.215  19.112  0.00  0.00    +0.000 A 
BRANCH  16  18
ATOM     18  N   UNL     1       0.190  11.333  19.168  0.00  0.00    +0.000 N 
ATOM     19  C   UNL     1       1.155  12.414  18.952  0.00  0.00    +0.000 C 
BRANCH  18  20
ATOM     20  C   UNL     1      -1.213  11.762  19.354  0.00  0.00    +0.000 C 
BRANCH  20  21
ATOM     21  C   UNL     1      -2.282  11.140  18.497  0.00  0.00    +0.000 A 
ATOM     22  N   UNL     1      -2.092  10.135  17.658  0.00  0.00    +0.000 NA
ATOM     23  N   UNL     1      -3.305   9.770  17.128  0.00  0.00    +0.000 NA
ATOM     24  C   UNL     1      -4.214  10.561  17.645  0.00  0.00    +0.000 A 
ATOM     25  N   UNL     1      -3.621  11.441  18.501  0.00  0.00    +0.000 N 
ATOM     26  C   UNL     1      -4.325  12.451  19.242  0.00  0.00    +0.000 C 
ENDBRANCH  20  21
ENDBRANCH  18  20
ENDBRANCH  16  18
ENDBRANCH   9  12
BRANCH   6  27
ATOM     27  C   UNL     1       2.900   2.400  18.593  0.00  0.00    +0.000 C 
ATOM     28  F   UNL     1       3.368   1.201  18.153  0.00  0.00    +0.000 F 
ATOM     29  F   UNL     1       3.105   2.411  19.939  0.00  0.00    +0.000 F 
ATOM     30  F   UNL     1       1.551   2.362  18.421  0.00  0.00    +0.000 F 
ENDBRANCH   6  27
TORSDOF 5
ENDMDL
MODEL 4
REMARK VINA RESULT:      -8.4      2.167      3.043
REMARK  Name = 
REMARK  8 active torsions:
REMARK  status: ('A' for Active; 'I' for Inactive)
REMARK    1  A    between atoms: C_1  and  C_2
REMARK    2  A    between atoms: C_6  and  C_7
REMARK    3  A    between atoms: N_13  and  C_14
REMARK    4  A    between atoms: C_18  and  N_19
REMARK    5  A    between atoms: N_19  and  C_20
REMARK    6  A    between atoms: N_19  and  C_21
REMARK    7  A    between atoms: C_21  and  C_22
REMARK    8  A    between atoms: N_26  and  C_27
REMARK                            x       y       z     vdW  Elec       q    Type
REMARK                         _______ _______ _______ _____ _____    ______ ____
ROOT
ATOM      1  C   UNL     1       0.158  13.130  18.987  0.00  0.00    +0.000 C 
ATOM      2  C   UNL     1       0.490  11.741  19.445  0.00  0.00    +0.000 A 
ATOM      3  C   UNL     1       1.189  10.878  18.607  0.00  0.00    +0.000 A 
ATOM      4  C   UNL     1       1.444   9.599  19.063  0.00  0.00    +0.000 A 
ATOM      5  C   UNL     1       1.048   9.111  20.306  0.00  0.00    +0.000 A 
ATOM      6  C   UNL     1       0.380   9.969  21.178  0.00  0.00    +0.000 A 
ATOM      7  C   UNL     1       0.102  11.285  20.725  0.00  0.00    +0.000 A 
ATOM      8  C   UNL     1       1.459   7.663  20.419  0.00  0.00    +0.000 C 
ATOM      9  N   UNL     1       2.160   7.420  19.163  0.00  0.00    +0.000 N 
ATOM     10  C   UNL     1       2.148   8.547  18.341  0.00  0.00    +0.000 C 
ATOM     11  O   UNL     1       2.567   8.715  17.210  0.00  0.00    +0.000 OA
ENDROOT
BRANCH   9  12
ATOM     12  C   UNL     1       2.774   6.202  18.772  0.00  0.00    +0.000 A 
ATOM     13  C   UNL     1       2.614   5.078  19.594  0.00  0.00    +0.000 A 
ATOM     14  C   UNL     1       3.259   3.881  19.318  0.00  0.00    +0.000 A 
ATOM     15  C   UNL     1       4.096   3.792  18.214  0.00  0.00    +0.000 A 
ATOM     16  C   UNL     1       4.301   4.887  17.359  0.00  0.00    +0.000 A 
ATOM     17  C   UNL     1       3.584   6.080  17.631  0.00  0.00    +0.000 A 
BRANCH  16  18
ATOM     18  N   UNL     1       5.191   4.803  16.285  0.00  0.00    +0.000 N 
ATOM     19  C   UNL     1       5.278   3.545  15.539  0.00  0.00    +0.000 C 
BRANCH  18  20
ATOM     20  C   UNL     1       6.434   5.603  16.327  0.00  0.00    +0.000 C 
BRANCH  20  21
ATOM     21  C   UNL     1       7.158   5.752  17.637  0.00  0.00    +0.000 A 
ATOM     22  N   UNL     1       7.455   4.757  18.457  0.00  0.00    +0.000 NA
ATOM     23  N   UNL     1       8.200   5.253  19.498  0.00  0.00    +0.000 NA
ATOM     24  C   UNL     1       8.339   6.542  19.302  0.00  0.00    +0.000 A 
ATOM     25  N   UNL     1       7.697   6.902  18.156  0.00  0.00    +0.000 N 
ATOM     26  C   UNL     1       7.648   8.243  17.640  0.00  0.00    +0.000 C 
ENDBRANCH  20  21
ENDBRANCH  18  20
ENDBRANCH  16  18
ENDBRANCH   9  12
BRANCH   6  27
ATOM     27  C   UNL     1      -0.045   9.573  22.568  0.00  0.00    +0.000 C 
ATOM     28  F   UNL     1       0.993   9.236  23.382  0.00  0.00    +0.000 F 
ATOM     29  F   UNL     1      -0.714  10.571  23.208  0.00  0.00    +0.000 F 
ATOM     30  F   UNL     1      -0.884   8.501  22.569  0.00  0.00    +0.000 F 
ENDBRANCH   6  27
TORSDOF 5
ENDMDL
MODEL 5
REMARK VINA RESULT:      -8.3      4.399      8.793
REMARK  Name = 
REMARK  8 active torsions:
REMARK  status: ('A' for Active; 'I' for Inactive)
REMARK    1  A    between atoms: C_1  and  C_2
REMARK    2  A    between atoms: C_6  and  C_7
REMARK    3  A    between atoms: N_13  and  C_14
REMARK    4  A    between atoms: C_18  and  N_19
REMARK    5  A    between atoms: N_19  and  C_20
REMARK    6  A    between atoms: N_19  and  C_21
REMARK    7  A    between atoms: C_21  and  C_22
REMARK    8  A    between atoms: N_26  and  C_27
REMARK                            x       y       z     vdW  Elec       q    Type
REMARK                         _______ _______ _______ _____ _____    ______ ____
ROOT
ATOM      1  C   UNL     1       4.778   4.264  16.630  0.00  0.00    +0.000 C 
ATOM      2  C   UNL     1       3.890   4.790  17.720  0.00  0.00    +0.000 A 
ATOM      3  C   UNL     1       3.527   6.133  17.737  0.00  0.00    +0.000 A 
ATOM      4  C   UNL     1       2.733   6.574  18.778  0.00  0.00    +0.000 A 
ATOM      5  C   UNL     1       2.271   5.767  19.814  0.00  0.00    +0.000 A 
ATOM      6  C   UNL     1       2.589   4.410  19.798  0.00  0.00    +0.000 A 
ATOM      7  C   UNL     1       3.411   3.939  18.740  0.00  0.00    +0.000 A 
ATOM      8  C   UNL     1       1.483   6.616  20.783  0.00  0.00    +0.000 C 
ATOM      9  N   UNL     1       1.506   7.935  20.160  0.00  0.00    +0.000 N 
ATOM     10  C   UNL     1       2.253   7.935  18.983  0.00  0.00    +0.000 C 
ATOM     11  O   UNL     1       2.551   8.841  18.226  0.00  0.00    +0.000 OA
ENDROOT
BRANCH   9  12
ATOM     12  C   UNL     1       0.881   9.106  20.663  0.00  0.00    +0.000 A 
ATOM     13  C   UNL     1       0.382   9.088  21.973  0.00  0.00    +0.000 A 
ATOM     14  C   UNL     1      -0.317  10.166  22.496  0.00  0.00    +0.000 A 
ATOM     15  C   UNL     1      -0.548  11.283  21.704  0.00  0.00    +0.000 A 
ATOM     16  C   UNL     1      -0.080  11.355  20.382  0.00  0.00    +0.000 A 
ATOM     17  C   UNL     1       0.683  10.263  19.893  0.00  0.00    +0.000 A 
BRANCH  16  18
ATOM     18  N   UNL     1      -0.368  12.458  19.577  0.00  0.00    +0.000 N 
ATOM     19  C   UNL     1      -0.605  13.755  20.217  0.00  0.00    +0.000 C 
BRANCH  18  20
ATOM     20  C   UNL     1      -1.084  12.241  18.301  0.00  0.00    +0.000 C 
BRANCH  20  21
ATOM     21  C   UNL     1      -2.492  11.715  18.339  0.00  0.00    +0.000 A 
ATOM     22  N   UNL     1      -3.436  12.134  19.166  0.00  0.00    +0.000 NA
ATOM     23  N   UNL     1      -4.613  11.503  18.846  0.00  0.00    +0.000 NA
ATOM     24  C   UNL     1      -4.368  10.704  17.836  0.00  0.00    +0.000 A 
ATOM     25  N   UNL     1      -3.053  10.795  17.489  0.00  0.00    +0.000 N 
ATOM     26  C   UNL     1      -2.443  10.053  16.420  0.00  0.00    +0.000 C 
ENDBRANCH  20  21
ENDBRANCH  18  20
ENDBRANCH  16  18
ENDBRANCH   9  12
BRANCH   6  27
ATOM     27  C   UNL     1       2.099   3.430  20.831  0.00  0.00    +0.000 C 
ATOM     28  F   UNL     1       2.502   3.724  22.097  0.00  0.00    +0.000 F 
ATOM     29  F   UNL     1       0.740   3.364  20.877  0.00  0.00    +0.000 F 
ATOM     30  F   UNL     1       2.527   2.161  20.588  0.00  0.00    +0.000 F 
ENDBRANCH   6  27
TORSDOF 5
ENDMDL
MODEL 6
REMARK VINA RESULT:      -8.2      2.341      3.718
REMARK  Name = 
REMARK  8 active torsions:
REMARK  status: ('A' for Active; 'I' for Inactive)
REMARK    1  A    between atoms: C_1  and  C_2
REMARK    2  A    between atoms: C_6  and  C_7
REMARK    3  A    between atoms: N_13  and  C_14
REMARK    4  A    between atoms: C_18  and  N_19
REMARK    5  A    between atoms: N_19  and  C_20
REMARK    6  A    between atoms: N_19  and  C_21
REMARK    7  A    between atoms: C_21  and  C_22
REMARK    8  A    between atoms: N_26  and  C_27
REMARK                            x       y       z     vdW  Elec       q    Type
REMARK                         _______ _______ _______ _____ _____    ______ ____
ROOT
ATOM      1  C   UNL     1      -1.088  12.268  18.336  0.00  0.00    +0.000 C 
ATOM      2  C   UNL     1      -0.411  11.137  19.052  0.00  0.00    +0.000 A 
ATOM      3  C   UNL     1       0.458  10.297  18.363  0.00  0.00    +0.000 A 
ATOM      4  C   UNL     1       1.034   9.251  19.059  0.00  0.00    +0.000 A 
ATOM      5  C   UNL     1       0.803   8.978  20.406  0.00  0.00    +0.000 A 
ATOM      6  C   UNL     1      -0.033   9.830  21.126  0.00  0.00    +0.000 A 
ATOM      7  C   UNL     1      -0.640  10.906  20.426  0.00  0.00    +0.000 A 
ATOM      8  C   UNL     1       1.563   7.732  20.791  0.00  0.00    +0.000 C 
ATOM      9  N   UNL     1       2.269   7.383  19.563  0.00  0.00    +0.000 N 
ATOM     10  C   UNL     1       1.956   8.259  18.524  0.00  0.00    +0.000 C 
ATOM     11  O   UNL     1       2.291   8.260  17.353  0.00  0.00    +0.000 OA
ENDROOT
BRANCH   9  12
ATOM     12  C   UNL     1       3.155   6.287  19.393  0.00  0.00    +0.000 A 
ATOM     13  C   UNL     1       2.822   5.060  19.983  0.00  0.00    +0.000 A 
ATOM     14  C   UNL     1       3.684   3.975  19.931  0.00  0.00    +0.000 A 
ATOM     15  C   UNL     1       4.913   4.105  19.297  0.00  0.00    +0.000 A 
ATOM     16  C   UNL     1       5.304   5.311  18.695  0.00  0.00    +0.000 A 
ATOM     17  C   UNL     1       4.379   6.387  18.711  0.00  0.00    +0.000 A 
BRANCH  16  18
ATOM     18  N   UNL     1       6.565   5.448  18.111  0.00  0.00    +0.000 N 
ATOM     19  C   UNL     1       7.743   5.495  18.981  0.00  0.00    +0.000 C 
BRANCH  18  20
ATOM     20  C   UNL     1       6.685   6.198  16.842  0.00  0.00    +0.000 C 
BRANCH  20  21
ATOM     21  C   UNL     1       6.683   5.436  15.545  0.00  0.00    +0.000 A 
ATOM     22  N   UNL     1       7.633   5.499  14.627  0.00  0.00    +0.000 NA
ATOM     23  N   UNL     1       7.344   4.598  13.631  0.00  0.00    +0.000 NA
ATOM     24  C   UNL     1       6.219   4.006  13.953  0.00  0.00    +0.000 A 
ATOM     25  N   UNL     1       5.763   4.503  15.137  0.00  0.00    +0.000 N 
ATOM     26  C   UNL     1       4.552   4.075  15.784  0.00  0.00    +0.000 C 
ENDBRANCH  20  21
ENDBRANCH  18  20
ENDBRANCH  16  18
ENDBRANCH   9  12
BRANCH   6  27
ATOM     27  C   UNL     1      -0.311   9.670  22.598  0.00  0.00    +0.000 C 
ATOM     28  F   UNL     1      -1.054   8.570  22.897  0.00  0.00    +0.000 F 
ATOM     29  F   UNL     1       0.831   9.560  23.330  0.00  0.00    +0.000 F 
ATOM     30  F   UNL     1      -0.987  10.731  23.117  0.00  0.00    +0.000 F 
ENDBRANCH   6  27
TORSDOF 5
ENDMDL
MODEL 7
REMARK VINA RESULT:      -8.2      4.273      7.964
REMARK  Name = 
REMARK  8 active torsions:
REMARK  status: ('A' for Active; 'I' for Inactive)
REMARK    1  A    between atoms: C_1  and  C_2
REMARK    2  A    between atoms: C_6  and  C_7
REMARK    3  A    between atoms: N_13  and  C_14
REMARK    4  A    between atoms: C_18  and  N_19
REMARK    5  A    between atoms: N_19  and  C_20
REMARK    6  A    between atoms: N_19  and  C_21
REMARK    7  A    between atoms: C_21  and  C_22
REMARK    8  A    between atoms: N_26  and  C_27
REMARK                            x       y       z     vdW  Elec       q    Type
REMARK                         _______ _______ _______ _____ _____    ______ ____
ROOT
ATOM      1  C   UNL     1       6.219   4.250  15.140  0.00  0.00    +0.000 C 
ATOM      2  C   UNL     1       5.170   4.492  16.185  0.00  0.00    +0.000 A 
ATOM      3  C   UNL     1       4.814   5.793  16.527  0.00  0.00    +0.000 A 
ATOM      4  C   UNL     1       3.865   5.964  17.517  0.00  0.00    +0.000 A 
ATOM      5  C   UNL     1       3.240   4.923  18.199  0.00  0.00    +0.000 A 
ATOM      6  C   UNL     1       3.552   3.611  17.846  0.00  0.00    +0.000 A 
ATOM      7  C   UNL     1       4.530   3.415  16.836  0.00  0.00    +0.000 A 
ATOM      8  C   UNL     1       2.311   5.504  19.237  0.00  0.00    +0.000 C 
ATOM      9  N   UNL     1       2.438   6.942  19.026  0.00  0.00    +0.000 N 
ATOM     10  C   UNL     1       3.364   7.235  18.025  0.00  0.00    +0.000 C 
ATOM     11  O   UNL     1       3.783   8.301  17.612  0.00  0.00    +0.000 OA
ENDROOT
BRANCH   9  12
ATOM     12  C   UNL     1       1.745   7.955  19.739  0.00  0.00    +0.000 A 
ATOM     13  C   UNL     1       1.219   7.644  21.001  0.00  0.00    +0.000 A 
ATOM     14  C   UNL     1       0.456   8.558  21.712  0.00  0.00    +0.000 A 
ATOM     15  C   UNL     1       0.188   9.804  21.161  0.00  0.00    +0.000 A 
ATOM     16  C   UNL     1       0.682  10.169  19.898  0.00  0.00    +0.000 A 
ATOM     17  C   UNL     1       1.508   9.237  19.218  0.00  0.00    +0.000 A 
BRANCH  16  18
ATOM     18  N   UNL     1       0.358  11.403  19.328  0.00  0.00    +0.000 N 
ATOM     19  C   UNL     1      -0.879  11.517  18.552  0.00  0.00    +0.000 C 
BRANCH  18  20
ATOM     20  C   UNL     1       1.455  12.303  18.911  0.00  0.00    +0.000 C 
BRANCH  20  21
ATOM     21  C   UNL     1       2.058  13.233  19.927  0.00  0.00    +0.000 A 
ATOM     22  N   UNL     1       1.810  13.200  21.227  0.00  0.00    +0.000 NA
ATOM     23  N   UNL     1       2.610  14.126  21.851  0.00  0.00    +0.000 NA
ATOM     24  C   UNL     1       3.326  14.714  20.923  0.00  0.00    +0.000 A 
ATOM     25  N   UNL     1       3.010  14.196  19.703  0.00  0.00    +0.000 N 
ATOM     26  C   UNL     1       3.609  14.613  18.464  0.00  0.00    +0.000 C 
ENDBRANCH  20  21
ENDBRANCH  18  20
ENDBRANCH  16  18
ENDBRANCH   9  12
BRANCH   6  27
ATOM     27  C   UNL     1       2.898   2.406  18.471  0.00  0.00    +0.000 C 
ATOM     28  F   UNL     1       3.340   1.222  17.965  0.00  0.00    +0.000 F 
ATOM     29  F   UNL     1       3.111   2.341  19.814  0.00  0.00    +0.000 F 
ATOM     30  F   UNL     1       1.547   2.403  18.305  0.00  0.00    +0.000 F 
ENDBRANCH   6  27
TORSDOF 5
ENDMDL
MODEL 8
REMARK VINA RESULT:      -8.2      3.832      8.367
REMARK  Name = 
REMARK  8 active torsions:
REMARK  status: ('A' for Active; 'I' for Inactive)
REMARK    1  A    between atoms: C_1  and  C_2
REMARK    2  A    between atoms: C_6  and  C_7
REMARK    3  A    between atoms: N_13  and  C_14
REMARK    4  A    between atoms: C_18  and  N_19
REMARK    5  A    between atoms: N_19  and  C_20
REMARK    6  A    between atoms: N_19  and  C_21
REMARK    7  A    between atoms: C_21  and  C_22
REMARK    8  A    between atoms: N_26  and  C_27
REMARK                            x       y       z     vdW  Elec       q    Type
REMARK                         _______ _______ _______ _____ _____    ______ ____
ROOT
ATOM      1  C   UNL     1       3.926   1.948  18.939  0.00  0.00    +0.000 C 
ATOM      2  C   UNL     1       3.744   3.419  18.710  0.00  0.00    +0.000 A 
ATOM      3  C   UNL     1       2.906   4.156  19.541  0.00  0.00    +0.000 A 
ATOM      4  C   UNL     1       2.747   5.501  19.270  0.00  0.00    +0.000 A 
ATOM      5  C   UNL     1       3.368   6.173  18.220  0.00  0.00    +0.000 A 
ATOM      6  C   UNL     1       4.242   5.465  17.398  0.00  0.00    +0.000 A 
ATOM      7  C   UNL     1       4.413   4.079  17.655  0.00  0.00    +0.000 A 
ATOM      8  C   UNL     1       2.909   7.611  18.217  0.00  0.00    +0.000 C 
ATOM      9  N   UNL     1       2.034   7.680  19.383  0.00  0.00    +0.000 N 
ATOM     10  C   UNL     1       1.912   6.440  20.008  0.00  0.00    +0.000 C 
ATOM     11  O   UNL     1       1.235   6.087  20.958  0.00  0.00    +0.000 OA
ENDROOT
BRANCH   9  12
ATOM     12  C   UNL     1       1.353   8.836  19.848  0.00  0.00    +0.000 A 
ATOM     13  C   UNL     1       1.218   9.022  21.230  0.00  0.00    +0.000 A 
ATOM     14  C   UNL     1       0.489  10.082  21.750  0.00  0.00    +0.000 A 
ATOM     15  C   UNL     1      -0.138  10.971  20.887  0.00  0.00    +0.000 A 
ATOM     16  C   UNL     1      -0.046  10.830  19.493  0.00  0.00    +0.000 A 
ATOM     17  C   UNL     1       0.755   9.772  18.989  0.00  0.00    +0.000 A 
BRANCH  16  18
ATOM     18  N   UNL     1      -0.728  11.696  18.636  0.00  0.00    +0.000 N 
ATOM     19  C   UNL     1      -0.240  13.070  18.488  0.00  0.00    +0.000 C 
BRANCH  18  20
ATOM     20  C   UNL     1      -2.185  11.518  18.457  0.00  0.00    +0.000 C 
BRANCH  20  21
ATOM     21  C   UNL     1      -2.699  11.021  17.134  0.00  0.00    +0.000 A 
ATOM     22  N   UNL     1      -2.037  10.218  16.317  0.00  0.00    +0.000 NA
ATOM     23  N   UNL     1      -2.853   9.898  15.259  0.00  0.00    +0.000 NA
ATOM     24  C   UNL     1      -3.995  10.516  15.443  0.00  0.00    +0.000 A 
ATOM     25  N   UNL     1      -3.944  11.238  16.597  0.00  0.00    +0.000 N 
ATOM     26  C   UNL     1      -5.026  12.037  17.103  0.00  0.00    +0.000 C 
ENDBRANCH  20  21
ENDBRANCH  18  20
ENDBRANCH  16  18
ENDBRANCH   9  12
BRANCH   6  27
ATOM     27  C   UNL     1       5.015   6.096  16.269  0.00  0.00    +0.000 C 
ATOM     28  F   UNL     1       4.370   7.142  15.684  0.00  0.00    +0.000 F 
ATOM     29  F   UNL     1       6.221   6.580  16.675  0.00  0.00    +0.000 F 
ATOM     30  F   UNL     1       5.284   5.214  15.267  0.00  0.00    +0.000 F 
ENDBRANCH   6  27
TORSDOF 5
ENDMDL
MODEL 9
REMARK VINA RESULT:      -8.2      4.297      8.286
REMARK  Name = 
REMARK  8 active torsions:
REMARK  status: ('A' for Active; 'I' for Inactive)
REMARK    1  A    between atoms: C_1  and  C_2
REMARK    2  A    between atoms: C_6  and  C_7
REMARK    3  A    between atoms: N_13  and  C_14
REMARK    4  A    between atoms: C_18  and  N_19
REMARK    5  A    between atoms: N_19  and  C_20
REMARK    6  A    between atoms: N_19  and  C_21
REMARK    7  A    between atoms: C_21  and  C_22
REMARK    8  A    between atoms: N_26  and  C_27
REMARK                            x       y       z     vdW  Elec       q    Type
REMARK                         _______ _______ _______ _____ _____    ______ ____
ROOT
ATOM      1  C   UNL     1       6.294   4.521  14.995  0.00  0.00    +0.000 C 
ATOM      2  C   UNL     1       5.262   4.710  16.067  0.00  0.00    +0.000 A 
ATOM      3  C   UNL     1       4.843   5.991  16.413  0.00  0.00    +0.000 A 
ATOM      4  C   UNL     1       3.913   6.115  17.427  0.00  0.00    +0.000 A 
ATOM      5  C   UNL     1       3.366   5.044  18.131  0.00  0.00    +0.000 A 
ATOM      6  C   UNL     1       3.741   3.750  17.776  0.00  0.00    +0.000 A 
ATOM      7  C   UNL     1       4.701   3.602  16.741  0.00  0.00    +0.000 A 
ATOM      8  C   UNL     1       2.433   5.579  19.191  0.00  0.00    +0.000 C 
ATOM      9  N   UNL     1       2.474   7.021  18.970  0.00  0.00    +0.000 N 
ATOM     10  C   UNL     1       3.356   7.359  17.943  0.00  0.00    +0.000 C 
ATOM     11  O   UNL     1       3.703   8.444  17.513  0.00  0.00    +0.000 OA
ENDROOT
BRANCH   9  12
ATOM     12  C   UNL     1       1.745   7.998  19.697  0.00  0.00    +0.000 A 
ATOM     13  C   UNL     1       1.442   7.743  21.042  0.00  0.00    +0.000 A 
ATOM     14  C   UNL     1       0.658   8.613  21.785  0.00  0.00    +0.000 A 
ATOM     15  C   UNL     1       0.144   9.754  21.185  0.00  0.00    +0.000 A 
ATOM     16  C   UNL     1       0.406  10.059  19.839  0.00  0.00    +0.000 A 
ATOM     17  C   UNL     1       1.260   9.182  19.120  0.00  0.00    +0.000 A 
BRANCH  16  18
ATOM     18  N   UNL     1      -0.163  11.179  19.230  0.00  0.00    +0.000 N 
ATOM     19  C   UNL     1      -1.248  10.981  18.265  0.00  0.00    +0.000 C 
BRANCH  18  20
ATOM     20  C   UNL     1       0.682  12.370  18.998  0.00  0.00    +0.000 C 
BRANCH  20  21
ATOM     21  C   UNL     1       1.037  13.248  20.167  0.00  0.00    +0.000 A 
ATOM     22  N   UNL     1       2.054  13.043  20.989  0.00  0.00    +0.000 NA
ATOM     23  N   UNL     1       2.127  14.095  21.869  0.00  0.00    +0.000 NA
ATOM     24  C   UNL     1       1.151  14.920  21.576  0.00  0.00    +0.000 A 
ATOM     25  N   UNL     1       0.436  14.429  20.525  0.00  0.00    +0.000 N 
ATOM     26  C   UNL     1      -0.706  15.082  19.944  0.00  0.00    +0.000 C 
ENDBRANCH  20  21
ENDBRANCH  18  20
ENDBRANCH  16  18
ENDBRANCH   9  12
BRANCH   6  27
ATOM     27  C   UNL     1       3.173   2.514  18.424  0.00  0.00    +0.000 C 
ATOM     28  F   UNL     1       1.813   2.484  18.443  0.00  0.00    +0.000 F 
ATOM     29  F   UNL     1       3.563   1.374  17.792  0.00  0.00    +0.000 F 
ATOM     30  F   UNL     1       3.569   2.378  19.719  0.00  0.00    +0.000 F 
ENDBRANCH   6  27
TORSDOF 5
ENDMDL
