MODEL 1
REMARK VINA RESULT:      -8.6      0.000      0.000
REMARK  Name = 
REMARK  3 active torsions:
REMARK  status: ('A' for Active; 'I' for Inactive)
REMARK    1  A    between atoms: C_2  and  C_14
REMARK    2  A    between atoms: N_3  and  C_4
REMARK    3  A    between atoms: N_18  and  C_19
REMARK                            x       y       z     vdW  Elec       q    Type
REMARK                         _______ _______ _______ _____ _____    ______ ____
ROOT
ATOM      1  C   UNL     1       2.982   3.512  18.919  0.00  0.00    +0.000 C 
ATOM      2  C   UNL     1       4.137   3.526  19.899  0.00  0.00    +0.000 C 
ATOM      3  C   UNL     1       5.287   4.013  19.051  0.00  0.00    +0.000 C 
ATOM      4  O   UNL     1       6.297   4.498  19.533  0.00  0.00    +0.000 OA
ATOM      5  N   UNL     1       4.929   3.853  17.701  0.00  0.00    +0.000 N 
ATOM      6  C   UNL     1       3.633   3.222  17.589  0.00  0.00    +0.000 C 
ENDROOT
BRANCH   5   7
ATOM      7  C   UNL     1       5.696   4.234  16.563  0.00  0.00    +0.000 A 
ATOM      8  C   UNL     1       6.694   5.213  16.644  0.00  0.00    +0.000 A 
ATOM      9  C   UNL     1       7.429   5.596  15.516  0.00  0.00    +0.000 A 
ATOM     10  C   UNL     1       7.169   5.010  14.284  0.00  0.00    +0.000 A 
ATOM     11  C   UNL     1       6.188   4.027  14.186  0.00  0.00    +0.000 A 
ATOM     12  C   UNL     1       5.454   3.647  15.312  0.00  0.00    +0.000 A 
ATOM     13  O   UNL     1       5.873   3.391  13.010  0.00  0.00    +0.000 OA
ATOM     14  C   UNL     1       6.893   3.583  12.024  0.00  0.00    +0.000 C 
ATOM     15  C   UNL     1       7.337   5.035  11.977  0.00  0.00    +0.000 C 
ATOM     16  O   UNL     1       7.919   5.436  13.221  0.00  0.00    +0.000 OA
ENDBRANCH   5   7
BRANCH   1  18
ATOM     17  O   UNL     1       1.306   4.901  17.990  0.00  0.00    +0.000 OA
ATOM     18  C   UNL     1       2.194   4.814  18.840  0.00  0.00    +0.000 C 
ATOM     19  N   UNL     1       2.608   5.845  19.668  0.00  0.00    +0.000 N 
ATOM     20  H   UNL     1       3.475   5.747  20.191  0.00  0.00    +0.000 HD
BRANCH  19  21
ATOM     21  C   UNL     1       2.029   7.135  19.766  0.00  0.00    +0.000 A 
ATOM     22  C   UNL     1       1.246   7.514  20.860  0.00  0.00    +0.000 A 
ATOM     23  C   UNL     1       0.713   8.782  20.875  0.00  0.00    +0.000 A 
ATOM     24  C   UNL     1       0.933   9.682  19.862  0.00  0.00    +0.000 A 
ATOM     25  C   UNL     1       1.704   9.362  18.767  0.00  0.00    +0.000 A 
ATOM     26  C   UNL     1       2.261   8.077  18.727  0.00  0.00    +0.000 A 
ATOM     27 CL   UNL     1       3.236   7.662  17.357  0.00  0.00    +0.000 Cl
ATOM     28  O   UNL     1       0.313  10.871  20.090  0.00  0.00    +0.000 OA
ATOM     29  C   UNL     1      -0.275  10.630  21.387  0.00  0.00    +0.000 C 
ATOM     30  O   UNL     1      -0.068   9.289  21.866  0.00  0.00    +0.000 OA
ENDBRANCH  19  21
ENDBRANCH   1  18
TORSDOF 3
ENDMDL
MODEL 2
REMARK VINA RESULT:      -8.4      1.366      8.126
REMARK  Name = 
REMARK  3 active torsions:
REMARK  status: ('A' for Active; 'I' for Inactive)
REMARK    1  A    between atoms: C_2  and  C_14
REMARK    2  A    between atoms: N_3  and  C_4
REMARK    3  A    between atoms: N_18  and  C_19
REMARK                            x       y       z     vdW  Elec       q    Type
REMARK                         _______ _______ _______ _____ _____    ______ ____
ROOT
ATOM      1  C   UNL     1       4.124   3.361  19.558  0.00  0.00    +0.000 C 
ATOM      2  C   UNL     1       2.757   2.779  19.860  0.00  0.00    +0.000 C 
ATOM      3  C   UNL     1       1.852   3.983  19.752  0.00  0.00    +0.000 C 
ATOM      4  O   UNL     1       0.650   3.885  19.574  0.00  0.00    +0.000 OA
ATOM      5  N   UNL     1       2.652   5.136  19.833  0.00  0.00    +0.000 N 
ATOM      6  C   UNL     1       4.036   4.781  20.059  0.00  0.00    +0.000 C 
ENDROOT
BRANCH   5   7
ATOM      7  C   UNL     1       2.218   6.487  19.722  0.00  0.00    +0.000 A 
ATOM      8  C   UNL     1       2.374   7.215  18.535  0.00  0.00    +0.000 A 
ATOM      9  C   UNL     1       1.962   8.549  18.441  0.00  0.00    +0.000 A 
ATOM     10  C   UNL     1       1.395   9.181  19.540  0.00  0.00    +0.000 A 
ATOM     11  C   UNL     1       1.221   8.472  20.725  0.00  0.00    +0.000 A 
ATOM     12  C   UNL     1       1.634   7.141  20.818  0.00  0.00    +0.000 A 
ATOM     13  O   UNL     1       0.661   9.017  21.854  0.00  0.00    +0.000 OA
ATOM     14  C   UNL     1      -0.036  10.231  21.556  0.00  0.00    +0.000 C 
ATOM     15  C   UNL     1       0.788  11.122  20.643  0.00  0.00    +0.000 C 
ATOM     16  O   UNL     1       1.022  10.489  19.381  0.00  0.00    +0.000 OA
ENDBRANCH   5   7
BRANCH   1  18
ATOM     17  O   UNL     1       3.981   2.514  17.354  0.00  0.00    +0.000 OA
ATOM     18  C   UNL     1       4.512   3.351  18.084  0.00  0.00    +0.000 C 
ATOM     19  N   UNL     1       5.515   4.227  17.698  0.00  0.00    +0.000 N 
ATOM     20  H   UNL     1       6.032   4.737  18.410  0.00  0.00    +0.000 HD
BRANCH  19  21
ATOM     21  C   UNL     1       6.034   4.392  16.390  0.00  0.00    +0.000 A 
ATOM     22  C   UNL     1       5.631   3.580  15.326  0.00  0.00    +0.000 A 
ATOM     23  C   UNL     1       6.189   3.799  14.087  0.00  0.00    +0.000 A 
ATOM     24  C   UNL     1       7.113   4.790  13.865  0.00  0.00    +0.000 A 
ATOM     25  C   UNL     1       7.536   5.622  14.876  0.00  0.00    +0.000 A 
ATOM     26  C   UNL     1       6.983   5.422  16.148  0.00  0.00    +0.000 A 
ATOM     27 CL   UNL     1       7.504   6.464  17.430  0.00  0.00    +0.000 Cl
ATOM     28  O   UNL     1       7.523   4.825  12.569  0.00  0.00    +0.000 OA
ATOM     29  C   UNL     1       6.709   3.780  11.994  0.00  0.00    +0.000 C 
ATOM     30  O   UNL     1       5.898   3.091  12.964  0.00  0.00    +0.000 OA
ENDBRANCH  19  21
ENDBRANCH   1  18
TORSDOF 3
ENDMDL
MODEL 3
REMARK VINA RESULT:      -8.4      1.532      7.733
REMARK  Name = 
REMARK  3 active torsions:
REMARK  status: ('A' for Active; 'I' for Inactive)
REMARK    1  A    between atoms: C_2  and  C_14
REMARK    2  A    between atoms: N_3  and  C_4
REMARK    3  A    between atoms: N_18  and  C_19
REMARK                            x       y       z     vdW  Elec       q    Type
REMARK                         _______ _______ _______ _____ _____    ______ ____
ROOT
ATOM      1  C   UNL     1       4.008   3.169  19.592  0.00  0.00    +0.000 C 
ATOM      2  C   UNL     1       2.634   2.583  19.845  0.00  0.00    +0.000 C 
ATOM      3  C   UNL     1       1.742   3.801  19.820  0.00  0.00    +0.000 C 
ATOM      4  O   UNL     1       0.540   3.728  19.629  0.00  0.00    +0.000 OA
ATOM      5  N   UNL     1       2.554   4.936  19.988  0.00  0.00    +0.000 N 
ATOM      6  C   UNL     1       3.933   4.550  20.194  0.00  0.00    +0.000 C 
ENDROOT
BRANCH   5   7
ATOM      7  C   UNL     1       2.134   6.296  19.973  0.00  0.00    +0.000 A 
ATOM      8  C   UNL     1       1.464   6.870  21.061  0.00  0.00    +0.000 A 
ATOM      9  C   UNL     1       1.037   8.203  21.030  0.00  0.00    +0.000 A 
ATOM     10  C   UNL     1       1.265   8.981  19.903  0.00  0.00    +0.000 A 
ATOM     11  C   UNL     1       1.939   8.431  18.815  0.00  0.00    +0.000 A 
ATOM     12  C   UNL     1       2.364   7.101  18.847  0.00  0.00    +0.000 A 
ATOM     13  O   UNL     1       2.214   9.132  17.666  0.00  0.00    +0.000 OA
ATOM     14  C   UNL     1       2.065  10.541  17.868  0.00  0.00    +0.000 C 
ATOM     15  C   UNL     1       0.787  10.851  18.628  0.00  0.00    +0.000 C 
ATOM     16  O   UNL     1       0.814  10.273  19.936  0.00  0.00    +0.000 OA
ENDBRANCH   5   7
BRANCH   1  18
ATOM     17  O   UNL     1       3.808   2.545  17.319  0.00  0.00    +0.000 OA
ATOM     18  C   UNL     1       4.404   3.262  18.124  0.00  0.00    +0.000 C 
ATOM     19  N   UNL     1       5.482   4.078  17.819  0.00  0.00    +0.000 N 
ATOM     20  H   UNL     1       6.036   4.474  18.574  0.00  0.00    +0.000 HD
BRANCH  19  21
ATOM     21  C   UNL     1       6.023   4.317  16.531  0.00  0.00    +0.000 A 
ATOM     22  C   UNL     1       5.622   3.582  15.412  0.00  0.00    +0.000 A 
ATOM     23  C   UNL     1       6.201   3.870  14.197  0.00  0.00    +0.000 A 
ATOM     24  C   UNL     1       7.145   4.857  14.052  0.00  0.00    +0.000 A 
ATOM     25  C   UNL     1       7.567   5.616  15.120  0.00  0.00    +0.000 A 
ATOM     26  C   UNL     1       6.992   5.344  16.368  0.00  0.00    +0.000 A 
ATOM     27 CL   UNL     1       7.512   6.293  17.721  0.00  0.00    +0.000 Cl
ATOM     28  O   UNL     1       7.574   4.968  12.766  0.00  0.00    +0.000 OA
ATOM     29  C   UNL     1       6.751   3.975  12.115  0.00  0.00    +0.000 C 
ATOM     30  O   UNL     1       5.915   3.241  13.027  0.00  0.00    +0.000 OA
ENDBRANCH  19  21
ENDBRANCH   1  18
TORSDOF 3
ENDMDL
MODEL 4
REMARK VINA RESULT:      -8.3      1.681      7.444
REMARK  Name = 
REMARK  3 active torsions:
REMARK  status: ('A' for Active; 'I' for Inactive)
REMARK    1  A    between atoms: C_2  and  C_14
REMARK    2  A    between atoms: N_3  and  C_4
REMARK    3  A    between atoms: N_18  and  C_19
REMARK                            x       y       z     vdW  Elec       q    Type
REMARK                         _______ _______ _______ _____ _____    ______ ____
ROOT
ATOM      1  C   UNL     1       3.216   2.861  20.685  0.00  0.00    +0.000 C 
ATOM      2  C   UNL     1       1.853   2.431  20.181  0.00  0.00    +0.000 C 
ATOM      3  C   UNL     1       1.206   3.744  19.810  0.00  0.00    +0.000 C 
ATOM      4  O   UNL     1       0.259   3.815  19.045  0.00  0.00    +0.000 OA
ATOM      5  N   UNL     1       1.924   4.775  20.442  0.00  0.00    +0.000 N 
ATOM      6  C   UNL     1       2.974   4.229  21.273  0.00  0.00    +0.000 C 
ENDROOT
BRANCH   5   7
ATOM      7  C   UNL     1       1.691   6.174  20.324  0.00  0.00    +0.000 A 
ATOM      8  C   UNL     1       1.063   6.904  21.341  0.00  0.00    +0.000 A 
ATOM      9  C   UNL     1       0.820   8.276  21.208  0.00  0.00    +0.000 A 
ATOM     10  C   UNL     1       1.194   8.939  20.047  0.00  0.00    +0.000 A 
ATOM     11  C   UNL     1       1.829   8.234  19.029  0.00  0.00    +0.000 A 
ATOM     12  C   UNL     1       2.070   6.864  19.162  0.00  0.00    +0.000 A 
ATOM     13  O   UNL     1       2.240   8.813  17.853  0.00  0.00    +0.000 OA
ATOM     14  C   UNL     1       2.275  10.240  17.960  0.00  0.00    +0.000 C 
ATOM     15  C   UNL     1       1.021  10.766  18.638  0.00  0.00    +0.000 C 
ATOM     16  O   UNL     1       0.920  10.279  19.980  0.00  0.00    +0.000 OA
ENDBRANCH   5   7
BRANCH   1  18
ATOM     17  O   UNL     1       5.179   2.075  19.624  0.00  0.00    +0.000 OA
ATOM     18  C   UNL     1       4.299   2.937  19.616  0.00  0.00    +0.000 C 
ATOM     19  N   UNL     1       4.267   4.037  18.773  0.00  0.00    +0.000 N 
ATOM     20  H   UNL     1       3.621   4.798  18.971  0.00  0.00    +0.000 HD
BRANCH  19  21
ATOM     21  C   UNL     1       5.165   4.315  17.713  0.00  0.00    +0.000 A 
ATOM     22  C   UNL     1       4.887   3.949  16.393  0.00  0.00    +0.000 A 
ATOM     23  C   UNL     1       5.815   4.247  15.422  0.00  0.00    +0.000 A 
ATOM     24  C   UNL     1       6.990   4.898  15.706  0.00  0.00    +0.000 A 
ATOM     25  C   UNL     1       7.307   5.288  16.988  0.00  0.00    +0.000 A 
ATOM     26  C   UNL     1       6.379   4.998  17.996  0.00  0.00    +0.000 A 
ATOM     27 CL   UNL     1       6.763   5.486  19.613  0.00  0.00    +0.000 Cl
ATOM     28  O   UNL     1       7.751   5.090  14.596  0.00  0.00    +0.000 OA
ATOM     29  C   UNL     1       6.892   4.535  13.575  0.00  0.00    +0.000 C 
ATOM     30  O   UNL     1       5.686   3.953  14.101  0.00  0.00    +0.000 OA
ENDBRANCH  19  21
ENDBRANCH   1  18
TORSDOF 3
ENDMDL
MODEL 5
REMARK VINA RESULT:      -8.3      1.542      7.942
REMARK  Name = 
REMARK  3 active torsions:
REMARK  status: ('A' for Active; 'I' for Inactive)
REMARK    1  A    between atoms: C_2  and  C_14
REMARK    2  A    between atoms: N_3  and  C_4
REMARK    3  A    between atoms: N_18  and  C_19
REMARK                            x       y       z     vdW  Elec       q    Type
REMARK                         _______ _______ _______ _____ _____    ______ ____
ROOT
ATOM      1  C   UNL     1       3.194   2.912  20.759  0.00  0.00    +0.000 C 
ATOM      2  C   UNL     1       1.821   2.475  20.288  0.00  0.00    +0.000 C 
ATOM      3  C   UNL     1       1.175   3.780  19.888  0.00  0.00    +0.000 C 
ATOM      4  O   UNL     1       0.217   3.833  19.136  0.00  0.00    +0.000 OA
ATOM      5  N   UNL     1       1.909   4.825  20.477  0.00  0.00    +0.000 N 
ATOM      6  C   UNL     1       2.969   4.298  21.308  0.00  0.00    +0.000 C 
ENDROOT
BRANCH   5   7
ATOM      7  C   UNL     1       1.682   6.222  20.320  0.00  0.00    +0.000 A 
ATOM      8  C   UNL     1       2.162   6.923  19.206  0.00  0.00    +0.000 A 
ATOM      9  C   UNL     1       1.952   8.301  19.069  0.00  0.00    +0.000 A 
ATOM     10  C   UNL     1       1.266   9.001  20.052  0.00  0.00    +0.000 A 
ATOM     11  C   UNL     1       0.772   8.320  21.162  0.00  0.00    +0.000 A 
ATOM     12  C   UNL     1       0.983   6.946  21.298  0.00  0.00    +0.000 A 
ATOM     13  O   UNL     1       0.076   8.933  22.174  0.00  0.00    +0.000 OA
ATOM     14  C   UNL     1      -0.387  10.229  21.778  0.00  0.00    +0.000 C 
ATOM     15  C   UNL     1       0.709  11.004  21.067  0.00  0.00    +0.000 C 
ATOM     16  O   UNL     1       1.103  10.346  19.859  0.00  0.00    +0.000 OA
ENDBRANCH   5   7
BRANCH   1  18
ATOM     17  O   UNL     1       5.092   2.042  19.647  0.00  0.00    +0.000 OA
ATOM     18  C   UNL     1       4.260   2.949  19.671  0.00  0.00    +0.000 C 
ATOM     19  N   UNL     1       4.273   4.065  18.848  0.00  0.00    +0.000 N 
ATOM     20  H   UNL     1       3.673   4.855  19.071  0.00  0.00    +0.000 HD
BRANCH  19  21
ATOM     21  C   UNL     1       5.166   4.313  17.776  0.00  0.00    +0.000 A 
ATOM     22  C   UNL     1       4.868   3.937  16.463  0.00  0.00    +0.000 A 
ATOM     23  C   UNL     1       5.792   4.207  15.479  0.00  0.00    +0.000 A 
ATOM     24  C   UNL     1       6.982   4.838  15.745  0.00  0.00    +0.000 A 
ATOM     25  C   UNL     1       7.319   5.236  17.019  0.00  0.00    +0.000 A 
ATOM     26  C   UNL     1       6.395   4.975  18.040  0.00  0.00    +0.000 A 
ATOM     27 CL   UNL     1       6.805   5.474  19.647  0.00  0.00    +0.000 Cl
ATOM     28  O   UNL     1       7.735   5.003  14.625  0.00  0.00    +0.000 OA
ATOM     29  C   UNL     1       6.856   4.453  13.619  0.00  0.00    +0.000 C 
ATOM     30  O   UNL     1       5.644   3.900  14.163  0.00  0.00    +0.000 OA
ENDBRANCH  19  21
ENDBRANCH   1  18
TORSDOF 3
ENDMDL
MODEL 6
REMARK VINA RESULT:      -8.1      4.359      7.668
REMARK  Name = 
REMARK  3 active torsions:
REMARK  status: ('A' for Active; 'I' for Inactive)
REMARK    1  A    between atoms: C_2  and  C_14
REMARK    2  A    between atoms: N_3  and  C_4
REMARK    3  A    between atoms: N_18  and  C_19
REMARK                            x       y       z     vdW  Elec       q    Type
REMARK                         _______ _______ _______ _____ _____    ______ ____
ROOT
ATOM      1  C   UNL     1      -1.003  11.413  21.336  0.00  0.00    +0.000 C 
ATOM      2  C   UNL     1      -0.585  10.708  22.610  0.00  0.00    +0.000 C 
ATOM      3  C   UNL     1       0.505   9.777  22.134  0.00  0.00    +0.000 C 
ATOM      4  O   UNL     1       1.334   9.299  22.889  0.00  0.00    +0.000 OA
ATOM      5  N   UNL     1       0.389   9.654  20.738  0.00  0.00    +0.000 N 
ATOM      6  C   UNL     1      -0.757  10.391  20.254  0.00  0.00    +0.000 C 
ENDROOT
BRANCH   5   7
ATOM      7  C   UNL     1       1.245   8.916  19.872  0.00  0.00    +0.000 A 
ATOM      8  C   UNL     1       1.557   9.370  18.584  0.00  0.00    +0.000 A 
ATOM      9  C   UNL     1       2.383   8.629  17.732  0.00  0.00    +0.000 A 
ATOM     10  C   UNL     1       2.904   7.413  18.153  0.00  0.00    +0.000 A 
ATOM     11  C   UNL     1       2.615   6.949  19.433  0.00  0.00    +0.000 A 
ATOM     12  C   UNL     1       1.789   7.689  20.282  0.00  0.00    +0.000 A 
ATOM     13  O   UNL     1       3.096   5.763  19.932  0.00  0.00    +0.000 OA
ATOM     14  C   UNL     1       4.187   5.272  19.147  0.00  0.00    +0.000 C 
ATOM     15  C   UNL     1       3.879   5.373  17.663  0.00  0.00    +0.000 C 
ATOM     16  O   UNL     1       3.698   6.736  17.267  0.00  0.00    +0.000 OA
ENDBRANCH   5   7
BRANCH   1  18
ATOM     17  O   UNL     1       0.360  13.244  21.957  0.00  0.00    +0.000 OA
ATOM     18  C   UNL     1      -0.233  12.691  21.030  0.00  0.00    +0.000 C 
ATOM     19  N   UNL     1      -0.343  13.193  19.742  0.00  0.00    +0.000 N 
ATOM     20  H   UNL     1      -1.015  12.778  19.102  0.00  0.00    +0.000 HD
BRANCH  19  21
ATOM     21  C   UNL     1       0.282  14.359  19.233  0.00  0.00    +0.000 A 
ATOM     22  C   UNL     1      -0.382  15.587  19.173  0.00  0.00    +0.000 A 
ATOM     23  C   UNL     1       0.292  16.671  18.657  0.00  0.00    +0.000 A 
ATOM     24  C   UNL     1       1.588  16.584  18.214  0.00  0.00    +0.000 A 
ATOM     25  C   UNL     1       2.290  15.400  18.261  0.00  0.00    +0.000 A 
ATOM     26  C   UNL     1       1.627  14.281  18.783  0.00  0.00    +0.000 A 
ATOM     27 CL   UNL     1       2.498  12.785  18.850  0.00  0.00    +0.000 Cl
ATOM     28  O   UNL     1       2.052  17.775  17.751  0.00  0.00    +0.000 OA
ATOM     29  C   UNL     1       0.916  18.630  18.006  0.00  0.00    +0.000 C 
ATOM     30  O   UNL     1      -0.222  17.923  18.533  0.00  0.00    +0.000 OA
ENDBRANCH  19  21
ENDBRANCH   1  18
TORSDOF 3
ENDMDL
MODEL 7
REMARK VINA RESULT:      -8.0      3.478     10.003
REMARK  Name = 
REMARK  3 active torsions:
REMARK  status: ('A' for Active; 'I' for Inactive)
REMARK    1  A    between atoms: C_2  and  C_14
REMARK    2  A    between atoms: N_3  and  C_4
REMARK    3  A    between atoms: N_18  and  C_19
REMARK                            x       y       z     vdW  Elec       q    Type
REMARK                         _______ _______ _______ _____ _____    ______ ____
ROOT
ATOM      1  C   UNL     1       1.226   9.666  17.847  0.00  0.00    +0.000 C 
ATOM      2  C   UNL     1       2.040  10.942  17.906  0.00  0.00    +0.000 C 
ATOM      3  C   UNL     1       1.507  11.620  19.145  0.00  0.00    +0.000 C 
ATOM      4  O   UNL     1       2.129  12.485  19.738  0.00  0.00    +0.000 OA
ATOM      5  N   UNL     1       0.271  11.031  19.463  0.00  0.00    +0.000 N 
ATOM      6  C   UNL     1      -0.094  10.044  18.471  0.00  0.00    +0.000 C 
ENDROOT
BRANCH   5   7
ATOM      7  C   UNL     1      -0.554  11.329  20.585  0.00  0.00    +0.000 A 
ATOM      8  C   UNL     1      -0.339  10.731  21.834  0.00  0.00    +0.000 A 
ATOM      9  C   UNL     1      -1.167  11.014  22.927  0.00  0.00    +0.000 A 
ATOM     10  C   UNL     1      -2.231  11.894  22.784  0.00  0.00    +0.000 A 
ATOM     11  C   UNL     1      -2.455  12.507  21.554  0.00  0.00    +0.000 A 
ATOM     12  C   UNL     1      -1.629  12.223  20.464  0.00  0.00    +0.000 A 
ATOM     13  O   UNL     1      -3.477  13.395  21.329  0.00  0.00    +0.000 OA
ATOM     14  C   UNL     1      -4.026  13.881  22.559  0.00  0.00    +0.000 C 
ATOM     15  C   UNL     1      -4.245  12.745  23.543  0.00  0.00    +0.000 C 
ATOM     16  O   UNL     1      -3.005  12.120  23.890  0.00  0.00    +0.000 OA
ENDBRANCH   5   7
BRANCH   1  18
ATOM     17  O   UNL     1       1.833   8.514  19.822  0.00  0.00    +0.000 OA
ATOM     18  C   UNL     1       1.835   8.483  18.591  0.00  0.00    +0.000 C 
ATOM     19  N   UNL     1       2.438   7.503  17.818  0.00  0.00    +0.000 N 
ATOM     20  H   UNL     1       2.566   7.663  16.822  0.00  0.00    +0.000 HD
BRANCH  19  21
ATOM     21  C   UNL     1       3.063   6.322  18.290  0.00  0.00    +0.000 A 
ATOM     22  C   UNL     1       2.438   5.468  19.203  0.00  0.00    +0.000 A 
ATOM     23  C   UNL     1       3.115   4.344  19.618  0.00  0.00    +0.000 A 
ATOM     24  C   UNL     1       4.371   4.034  19.158  0.00  0.00    +0.000 A 
ATOM     25  C   UNL     1       5.026   4.837  18.252  0.00  0.00    +0.000 A 
ATOM     26  C   UNL     1       4.359   5.987  17.811  0.00  0.00    +0.000 A 
ATOM     27 CL   UNL     1       5.170   7.004  16.668  0.00  0.00    +0.000 Cl
ATOM     28  O   UNL     1       4.843   2.880  19.699  0.00  0.00    +0.000 OA
ATOM     29  C   UNL     1       3.717   2.475  20.508  0.00  0.00    +0.000 C 
ATOM     30  O   UNL     1       2.638   3.427  20.500  0.00  0.00    +0.000 OA
ENDBRANCH  19  21
ENDBRANCH   1  18
TORSDOF 3
ENDMDL
MODEL 8
REMARK VINA RESULT:      -8.0      4.567      7.995
REMARK  Name = 
REMARK  3 active torsions:
REMARK  status: ('A' for Active; 'I' for Inactive)
REMARK    1  A    between atoms: C_2  and  C_14
REMARK    2  A    between atoms: N_3  and  C_4
REMARK    3  A    between atoms: N_18  and  C_19
REMARK                            x       y       z     vdW  Elec       q    Type
REMARK                         _______ _______ _______ _____ _____    ______ ____
ROOT
ATOM      1  C   UNL     1      -0.790  12.014  21.372  0.00  0.00    +0.000 C 
ATOM      2  C   UNL     1      -0.662  11.188  22.636  0.00  0.00    +0.000 C 
ATOM      3  C   UNL     1       0.275  10.081  22.217  0.00  0.00    +0.000 C 
ATOM      4  O   UNL     1       0.907   9.418  23.023  0.00  0.00    +0.000 OA
ATOM      5  N   UNL     1       0.298  10.040  20.812  0.00  0.00    +0.000 N 
ATOM      6  C   UNL     1      -0.623  11.009  20.260  0.00  0.00    +0.000 C 
ENDROOT
BRANCH   5   7
ATOM      7  C   UNL     1       1.090   9.184  19.995  0.00  0.00    +0.000 A 
ATOM      8  C   UNL     1       1.443   9.538  18.686  0.00  0.00    +0.000 A 
ATOM      9  C   UNL     1       2.204   8.681  17.883  0.00  0.00    +0.000 A 
ATOM     10  C   UNL     1       2.617   7.450  18.375  0.00  0.00    +0.000 A 
ATOM     11  C   UNL     1       2.285   7.085  19.677  0.00  0.00    +0.000 A 
ATOM     12  C   UNL     1       1.524   7.940  20.477  0.00  0.00    +0.000 A 
ATOM     13  O   UNL     1       2.661   5.892  20.244  0.00  0.00    +0.000 OA
ATOM     14  C   UNL     1       3.708   5.266  19.496  0.00  0.00    +0.000 C 
ATOM     15  C   UNL     1       3.414   5.309  18.006  0.00  0.00    +0.000 C 
ATOM     16  O   UNL     1       3.352   6.659  17.534  0.00  0.00    +0.000 OA
ENDBRANCH   5   7
BRANCH   1  18
ATOM     17  O   UNL     1       0.527  13.781  22.230  0.00  0.00    +0.000 OA
ATOM     18  C   UNL     1       0.241  13.126  21.228  0.00  0.00    +0.000 C 
ATOM     19  N   UNL     1       0.706  13.384  19.947  0.00  0.00    +0.000 N 
ATOM     20  H   UNL     1       0.263  12.925  19.155  0.00  0.00    +0.000 HD
BRANCH  19  21
ATOM     21  C   UNL     1       1.660  14.363  19.576  0.00  0.00    +0.000 A 
ATOM     22  C   UNL     1       3.035  14.131  19.677  0.00  0.00    +0.000 A 
ATOM     23  C   UNL     1       3.898  15.136  19.304  0.00  0.00    +0.000 A 
ATOM     24  C   UNL     1       3.452  16.346  18.831  0.00  0.00    +0.000 A 
ATOM     25  C   UNL     1       2.109  16.621  18.704  0.00  0.00    +0.000 A 
ATOM     26  C   UNL     1       1.209  15.614  19.075  0.00  0.00    +0.000 A 
ATOM     27 CL   UNL     1      -0.484  15.945  18.917  0.00  0.00    +0.000 Cl
ATOM     28  O   UNL     1       4.478  17.183  18.521  0.00  0.00    +0.000 OA
ATOM     29  C   UNL     1       5.616  16.340  18.803  0.00  0.00    +0.000 C 
ATOM     30  O   UNL     1       5.254  15.059  19.349  0.00  0.00    +0.000 OA
ENDBRANCH  19  21
ENDBRANCH   1  18
TORSDOF 3
ENDMDL
MODEL 9
REMARK VINA RESULT:      -7.8      4.013      6.875
REMARK  Name = 
REMARK  3 active torsions:
REMARK  status: ('A' for Active; 'I' for Inactive)
REMARK    1  A    between atoms: C_2  and  C_14
REMARK    2  A    between atoms: N_3  and  C_4
REMARK    3  A    between atoms: N_18  and  C_19
REMARK                            x       y       z     vdW  Elec       q    Type
REMARK                         _______ _______ _______ _____ _____    ______ ____
ROOT
ATOM      1  C   UNL     1       0.736  10.839  19.931  0.00  0.00    +0.000 C 
ATOM      2  C   UNL     1       1.513  11.036  18.645  0.00  0.00    +0.000 C 
ATOM      3  C   UNL     1       1.895   9.624  18.267  0.00  0.00    +0.000 C 
ATOM      4  O   UNL     1       2.213   9.314  17.132  0.00  0.00    +0.000 OA
ATOM      5  N   UNL     1       1.748   8.816  19.408  0.00  0.00    +0.000 N 
ATOM      6  C   UNL     1       1.356   9.612  20.550  0.00  0.00    +0.000 C 
ENDROOT
BRANCH   5   7
ATOM      7  C   UNL     1       1.948   7.408  19.488  0.00  0.00    +0.000 A 
ATOM      8  C   UNL     1       1.574   6.676  20.623  0.00  0.00    +0.000 A 
ATOM      9  C   UNL     1       1.793   5.296  20.702  0.00  0.00    +0.000 A 
ATOM     10  C   UNL     1       2.401   4.627  19.648  0.00  0.00    +0.000 A 
ATOM     11  C   UNL     1       2.770   5.334  18.507  0.00  0.00    +0.000 A 
ATOM     12  C   UNL     1       2.551   6.712  18.430  0.00  0.00    +0.000 A 
ATOM     13  O   UNL     1       3.366   4.750  17.417  0.00  0.00    +0.000 OA
ATOM     14  C   UNL     1       3.220   3.326  17.445  0.00  0.00    +0.000 C 
ATOM     15  C   UNL     1       3.520   2.775  18.829  0.00  0.00    +0.000 C 
ATOM     16  O   UNL     1       2.592   3.279  19.794  0.00  0.00    +0.000 OA
ENDBRANCH   5   7
BRANCH   1  18
ATOM     17  O   UNL     1      -1.264   9.608  20.220  0.00  0.00    +0.000 OA
ATOM     18  C   UNL     1      -0.762  10.628  19.746  0.00  0.00    +0.000 C 
ATOM     19  N   UNL     1      -1.432  11.558  18.966  0.00  0.00    +0.000 N 
ATOM     20  H   UNL     1      -0.898  12.254  18.453  0.00  0.00    +0.000 HD
BRANCH  19  21
ATOM     21  C   UNL     1      -2.816  11.565  18.661  0.00  0.00    +0.000 A 
ATOM     22  C   UNL     1      -3.749  12.220  19.471  0.00  0.00    +0.000 A 
ATOM     23  C   UNL     1      -5.076  12.173  19.110  0.00  0.00    +0.000 A 
ATOM     24  C   UNL     1      -5.506  11.516  17.984  0.00  0.00    +0.000 A 
ATOM     25  C   UNL     1      -4.628  10.863  17.149  0.00  0.00    +0.000 A 
ATOM     26  C   UNL     1      -3.269  10.897  17.492  0.00  0.00    +0.000 A 
ATOM     27 CL   UNL     1      -2.152  10.082  16.448  0.00  0.00    +0.000 Cl
ATOM     28  O   UNL     1      -6.853  11.603  17.824  0.00  0.00    +0.000 OA
ATOM     29  C   UNL     1      -7.210  12.436  18.949  0.00  0.00    +0.000 C 
ATOM     30  O   UNL     1      -6.093  12.758  19.797  0.00  0.00    +0.000 OA
ENDBRANCH  19  21
ENDBRANCH   1  18
TORSDOF 3
ENDMDL
