MODEL 1
REMARK VINA RESULT:      -9.2      0.000      0.000
REMARK  Name = 
REMARK  4 active torsions:
REMARK  status: ('A' for Active; 'I' for Inactive)
REMARK    1  A    between atoms: C_2  and  C_3
REMARK    2  A    between atoms: C_3  and  N_4
REMARK    3  A    between atoms: C_7  and  C_8
REMARK    4  A    between atoms: C_20  and  C_21
REMARK                            x       y       z     vdW  Elec       q    Type
REMARK                         _______ _______ _______ _____ _____    ______ ____
ROOT
ATOM      1  O   UNL     1       4.696   6.888  16.043  0.00  0.00    +0.000 OA
ATOM      2  C   UNL     1       5.205   5.993  16.717  0.00  0.00    +0.000 C 
ATOM      3  N   UNL     1       4.436   5.166  17.529  0.00  0.00    +0.000 N 
ATOM      4  C   UNL     1       4.892   4.005  18.275  0.00  0.00    +0.000 C 
ATOM      5  C   UNL     1       3.719   3.048  18.204  0.00  0.00    +0.000 C 
ATOM      6  C   UNL     1       2.501   3.964  18.230  0.00  0.00    +0.000 C 
ATOM      7  C   UNL     1       2.972   5.276  17.571  0.00  0.00    +0.000 C 
ENDROOT
BRANCH   7   8
ATOM      8  C   UNL     1       2.445   6.460  18.363  0.00  0.00    +0.000 A 
ATOM      9  C   UNL     1       2.256   6.341  19.751  0.00  0.00    +0.000 A 
ATOM     10  C   UNL     1       1.824   7.433  20.512  0.00  0.00    +0.000 A 
ATOM     11  C   UNL     1       1.576   8.654  19.893  0.00  0.00    +0.000 A 
ATOM     12  C   UNL     1       1.803   8.799  18.522  0.00  0.00    +0.000 A 
ATOM     13  C   UNL     1       2.222   7.709  17.762  0.00  0.00    +0.000 A 
ATOM     14  O   UNL     1       1.630   9.980  17.846  0.00  0.00    +0.000 OA
ATOM     15  C   UNL     1       1.471  11.083  18.744  0.00  0.00    +0.000 C 
ATOM     16  C   UNL     1       0.539  10.717  19.887  0.00  0.00    +0.000 C 
ATOM     17  O   UNL     1       1.117   9.675  20.685  0.00  0.00    +0.000 OA
ENDBRANCH   7   8
BRANCH   2  18
ATOM     18  C   UNL     1       6.679   5.662  16.639  0.00  0.00    +0.000 C 
BRANCH  18  19
ATOM     19  N   UNL     1       7.512   6.605  17.355  0.00  0.00    +0.000 N 
ATOM     20  N   UNL     1       7.997   6.291  18.572  0.00  0.00    +0.000 NA
ATOM     21  N   UNL     1       8.463   7.431  19.057  0.00  0.00    +0.000 NA
ATOM     22  C   UNL     1       8.180   8.408  18.130  0.00  0.00    +0.000 A 
ATOM     23  N   UNL     1       7.504   7.930  17.069  0.00  0.00    +0.000 NA
BRANCH  22  24
ATOM     24  C   UNL     1       8.570   9.801  18.329  0.00  0.00    +0.000 A 
ATOM     25  C   UNL     1       8.063  10.794  17.474  0.00  0.00    +0.000 A 
ATOM     26  C   UNL     1       8.407  12.137  17.650  0.00  0.00    +0.000 A 
ATOM     27  C   UNL     1       9.266  12.501  18.683  0.00  0.00    +0.000 A 
ATOM     28  C   UNL     1       9.776  11.523  19.535  0.00  0.00    +0.000 A 
ATOM     29 CL   UNL     1      10.839  11.983  20.809  0.00  0.00    +0.000 Cl
ATOM     30  C   UNL     1       9.433  10.177  19.367  0.00  0.00    +0.000 A 
ENDBRANCH  22  24
ENDBRANCH  18  19
ENDBRANCH   2  18
TORSDOF 4
ENDMDL
MODEL 2
REMARK VINA RESULT:      -9.2      0.725      1.441
REMARK  Name = 
REMARK  4 active torsions:
REMARK  status: ('A' for Active; 'I' for Inactive)
REMARK    1  A    between atoms: C_2  and  C_3
REMARK    2  A    between atoms: C_3  and  N_4
REMARK    3  A    between atoms: C_7  and  C_8
REMARK    4  A    between atoms: C_20  and  C_21
REMARK                            x       y       z     vdW  Elec       q    Type
REMARK                         _______ _______ _______ _____ _____    ______ ____
ROOT
ATOM      1  O   UNL     1       4.787   6.790  15.971  0.00  0.00    +0.000 OA
ATOM      2  C   UNL     1       5.323   6.031  16.778  0.00  0.00    +0.000 C 
ATOM      3  N   UNL     1       4.582   5.341  17.731  0.00  0.00    +0.000 N 
ATOM      4  C   UNL     1       5.072   4.331  18.654  0.00  0.00    +0.000 C 
ATOM      5  C   UNL     1       3.918   3.356  18.767  0.00  0.00    +0.000 C 
ATOM      6  C   UNL     1       2.682   4.241  18.659  0.00  0.00    +0.000 C 
ATOM      7  C   UNL     1       3.117   5.431  17.779  0.00  0.00    +0.000 C 
ENDROOT
BRANCH   7   8
ATOM      8  C   UNL     1       2.579   6.723  18.369  0.00  0.00    +0.000 A 
ATOM      9  C   UNL     1       2.320   7.819  17.528  0.00  0.00    +0.000 A 
ATOM     10  C   UNL     1       1.773   9.001  18.039  0.00  0.00    +0.000 A 
ATOM     11  C   UNL     1       1.479   9.100  19.395  0.00  0.00    +0.000 A 
ATOM     12  C   UNL     1       1.689   8.003  20.235  0.00  0.00    +0.000 A 
ATOM     13  C   UNL     1       2.244   6.829  19.729  0.00  0.00    +0.000 A 
ATOM     14  O   UNL     1       1.380   8.002  21.571  0.00  0.00    +0.000 OA
ATOM     15  C   UNL     1       0.575   9.131  21.928  0.00  0.00    +0.000 C 
ATOM     16  C   UNL     1       1.098  10.396  21.268  0.00  0.00    +0.000 C 
ATOM     17  O   UNL     1       0.981  10.297  19.842  0.00  0.00    +0.000 OA
ENDBRANCH   7   8
BRANCH   2  18
ATOM     18  C   UNL     1       6.802   5.718  16.731  0.00  0.00    +0.000 C 
BRANCH  18  19
ATOM     19  N   UNL     1       7.611   6.683  17.443  0.00  0.00    +0.000 N 
ATOM     20  N   UNL     1       8.029   6.422  18.697  0.00  0.00    +0.000 NA
ATOM     21  N   UNL     1       8.486   7.579  19.150  0.00  0.00    +0.000 NA
ATOM     22  C   UNL     1       8.265   8.514  18.164  0.00  0.00    +0.000 A 
ATOM     23  N   UNL     1       7.637   7.993  17.094  0.00  0.00    +0.000 NA
BRANCH  22  24
ATOM     24  C   UNL     1       8.665   9.909  18.317  0.00  0.00    +0.000 A 
ATOM     25  C   UNL     1       8.086  10.892  17.496  0.00  0.00    +0.000 A 
ATOM     26  C   UNL     1       8.439  12.238  17.629  0.00  0.00    +0.000 A 
ATOM     27  C   UNL     1       9.378  12.615  18.585  0.00  0.00    +0.000 A 
ATOM     28  C   UNL     1       9.959  11.647  19.402  0.00  0.00    +0.000 A 
ATOM     29 CL   UNL     1      11.121  12.124  20.581  0.00  0.00    +0.000 Cl
ATOM     30  C   UNL     1       9.609  10.299  19.276  0.00  0.00    +0.000 A 
ENDBRANCH  22  24
ENDBRANCH  18  19
ENDBRANCH   2  18
TORSDOF 4
ENDMDL
MODEL 3
REMARK VINA RESULT:      -8.9      0.946      1.291
REMARK  Name = 
REMARK  4 active torsions:
REMARK  status: ('A' for Active; 'I' for Inactive)
REMARK    1  A    between atoms: C_2  and  C_3
REMARK    2  A    between atoms: C_3  and  N_4
REMARK    3  A    between atoms: C_7  and  C_8
REMARK    4  A    between atoms: C_20  and  C_21
REMARK                            x       y       z     vdW  Elec       q    Type
REMARK                         _______ _______ _______ _____ _____    ______ ____
ROOT
ATOM      1  O   UNL     1       4.583   6.722  15.839  0.00  0.00    +0.000 OA
ATOM      2  C   UNL     1       5.192   5.937  16.565  0.00  0.00    +0.000 C 
ATOM      3  N   UNL     1       4.536   5.171  17.521  0.00  0.00    +0.000 N 
ATOM      4  C   UNL     1       5.113   4.128  18.351  0.00  0.00    +0.000 C 
ATOM      5  C   UNL     1       3.998   3.110  18.480  0.00  0.00    +0.000 C 
ATOM      6  C   UNL     1       2.732   3.960  18.502  0.00  0.00    +0.000 C 
ATOM      7  C   UNL     1       3.075   5.210  17.667  0.00  0.00    +0.000 C 
ENDROOT
BRANCH   7   8
ATOM      8  C   UNL     1       2.538   6.448  18.364  0.00  0.00    +0.000 A 
ATOM      9  C   UNL     1       2.287   6.416  19.748  0.00  0.00    +0.000 A 
ATOM     10  C   UNL     1       1.845   7.559  20.422  0.00  0.00    +0.000 A 
ATOM     11  C   UNL     1       1.648   8.745  19.721  0.00  0.00    +0.000 A 
ATOM     12  C   UNL     1       1.937   8.804  18.356  0.00  0.00    +0.000 A 
ATOM     13  C   UNL     1       2.367   7.663  17.681  0.00  0.00    +0.000 A 
ATOM     14  O   UNL     1       1.818   9.945  17.604  0.00  0.00    +0.000 OA
ATOM     15  C   UNL     1       1.641  11.103  18.427  0.00  0.00    +0.000 C 
ATOM     16  C   UNL     1       0.654  10.822  19.548  0.00  0.00    +0.000 C 
ATOM     17  O   UNL     1       1.176   9.820  20.431  0.00  0.00    +0.000 OA
ENDBRANCH   7   8
BRANCH   2  18
ATOM     18  C   UNL     1       6.674   5.676  16.406  0.00  0.00    +0.000 C 
BRANCH  18  19
ATOM     19  N   UNL     1       7.497   6.564  17.199  0.00  0.00    +0.000 N 
ATOM     20  N   UNL     1       7.952   6.169  18.403  0.00  0.00    +0.000 NA
ATOM     21  N   UNL     1       8.414   7.273  18.969  0.00  0.00    +0.000 NA
ATOM     22  C   UNL     1       8.158   8.310  18.101  0.00  0.00    +0.000 A 
ATOM     23  N   UNL     1       7.504   7.905  16.997  0.00  0.00    +0.000 NA
BRANCH  22  24
ATOM     24  C   UNL     1       8.553   9.683  18.397  0.00  0.00    +0.000 A 
ATOM     25  C   UNL     1       9.447   9.938  19.451  0.00  0.00    +0.000 A 
ATOM     26  C   UNL     1       9.854  11.241  19.748  0.00  0.00    +0.000 A 
ATOM     27  C   UNL     1       9.368  12.306  18.994  0.00  0.00    +0.000 A 
ATOM     28  C   UNL     1       8.480  12.063  17.948  0.00  0.00    +0.000 A 
ATOM     29 CL   UNL     1       7.883  13.387  17.022  0.00  0.00    +0.000 Cl
ATOM     30  C   UNL     1       8.071  10.762  17.644  0.00  0.00    +0.000 A 
ENDBRANCH  22  24
ENDBRANCH  18  19
ENDBRANCH   2  18
TORSDOF 4
ENDMDL
MODEL 4
REMARK VINA RESULT:      -8.8      4.255      6.125
REMARK  Name = 
REMARK  4 active torsions:
REMARK  status: ('A' for Active; 'I' for Inactive)
REMARK    1  A    between atoms: C_2  and  C_3
REMARK    2  A    between atoms: C_3  and  N_4
REMARK    3  A    between atoms: C_7  and  C_8
REMARK    4  A    between atoms: C_20  and  C_21
REMARK                            x       y       z     vdW  Elec       q    Type
REMARK                         _______ _______ _______ _____ _____    ______ ____
ROOT
ATOM      1  O   UNL     1       4.449   7.245  16.708  0.00  0.00    +0.000 OA
ATOM      2  C   UNL     1       4.803   6.265  17.364  0.00  0.00    +0.000 C 
ATOM      3  N   UNL     1       3.887   5.496  18.073  0.00  0.00    +0.000 N 
ATOM      4  C   UNL     1       4.154   4.255  18.782  0.00  0.00    +0.000 C 
ATOM      5  C   UNL     1       2.890   3.445  18.578  0.00  0.00    +0.000 C 
ATOM      6  C   UNL     1       1.783   4.493  18.572  0.00  0.00    +0.000 C 
ATOM      7  C   UNL     1       2.446   5.772  18.021  0.00  0.00    +0.000 C 
ENDROOT
BRANCH   7   8
ATOM      8  C   UNL     1       1.998   6.970  18.842  0.00  0.00    +0.000 A 
ATOM      9  C   UNL     1       1.877   6.852  20.238  0.00  0.00    +0.000 A 
ATOM     10  C   UNL     1       1.519   7.955  21.020  0.00  0.00    +0.000 A 
ATOM     11  C   UNL     1       1.278   9.186  20.417  0.00  0.00    +0.000 A 
ATOM     12  C   UNL     1       1.439   9.327  19.036  0.00  0.00    +0.000 A 
ATOM     13  C   UNL     1       1.784   8.227  18.255  0.00  0.00    +0.000 A 
ATOM     14  O   UNL     1       1.270  10.516  18.372  0.00  0.00    +0.000 OA
ATOM     15  C   UNL     1       1.191  11.620  19.278  0.00  0.00    +0.000 C 
ATOM     16  C   UNL     1       0.308  11.280  20.468  0.00  0.00    +0.000 C 
ATOM     17  O   UNL     1       0.893  10.218  21.234  0.00  0.00    +0.000 OA
ENDBRANCH   7   8
BRANCH   2  18
ATOM     18  C   UNL     1       6.232   5.771  17.368  0.00  0.00    +0.000 C 
BRANCH  18  19
ATOM     19  N   UNL     1       6.650   5.229  16.094  0.00  0.00    +0.000 N 
ATOM     20  N   UNL     1       7.664   5.801  15.415  0.00  0.00    +0.000 NA
ATOM     21  N   UNL     1       7.610   5.263  14.207  0.00  0.00    +0.000 NA
ATOM     22  C   UNL     1       6.517   4.427  14.186  0.00  0.00    +0.000 A 
ATOM     23  N   UNL     1       5.837   4.442  15.347  0.00  0.00    +0.000 NA
BRANCH  22  24
ATOM     24  C   UNL     1       6.161   3.646  13.005  0.00  0.00    +0.000 A 
ATOM     25  C   UNL     1       7.126   2.825  12.397  0.00  0.00    +0.000 A 
ATOM     26  C   UNL     1       6.811   2.056  11.275  0.00  0.00    +0.000 A 
ATOM     27  C   UNL     1       5.524   2.101  10.745  0.00  0.00    +0.000 A 
ATOM     28  C   UNL     1       4.560   2.914  11.340  0.00  0.00    +0.000 A 
ATOM     29 CL   UNL     1       2.972   2.965  10.676  0.00  0.00    +0.000 Cl
ATOM     30  C   UNL     1       4.869   3.685  12.465  0.00  0.00    +0.000 A 
ENDBRANCH  22  24
ENDBRANCH  18  19
ENDBRANCH   2  18
TORSDOF 4
ENDMDL
MODEL 5
REMARK VINA RESULT:      -8.7      4.276      6.867
REMARK  Name = 
REMARK  4 active torsions:
REMARK  status: ('A' for Active; 'I' for Inactive)
REMARK    1  A    between atoms: C_2  and  C_3
REMARK    2  A    between atoms: C_3  and  N_4
REMARK    3  A    between atoms: C_7  and  C_8
REMARK    4  A    between atoms: C_20  and  C_21
REMARK                            x       y       z     vdW  Elec       q    Type
REMARK                         _______ _______ _______ _____ _____    ______ ____
ROOT
ATOM      1  O   UNL     1       4.659   5.693  19.787  0.00  0.00    +0.000 OA
ATOM      2  C   UNL     1       3.512   5.475  19.396  0.00  0.00    +0.000 C 
ATOM      3  N   UNL     1       3.219   4.403  18.560  0.00  0.00    +0.000 N 
ATOM      4  C   UNL     1       1.902   3.967  18.129  0.00  0.00    +0.000 C 
ATOM      5  C   UNL     1       2.025   2.458  18.064  0.00  0.00    +0.000 C 
ATOM      6  C   UNL     1       3.463   2.230  17.612  0.00  0.00    +0.000 C 
ATOM      7  C   UNL     1       4.250   3.439  18.157  0.00  0.00    +0.000 C 
ENDROOT
BRANCH   7   8
ATOM      8  C   UNL     1       5.210   3.941  17.092  0.00  0.00    +0.000 A 
ATOM      9  C   UNL     1       6.381   4.620  17.473  0.00  0.00    +0.000 A 
ATOM     10  C   UNL     1       7.307   5.045  16.514  0.00  0.00    +0.000 A 
ATOM     11  C   UNL     1       7.072   4.797  15.165  0.00  0.00    +0.000 A 
ATOM     12  C   UNL     1       5.935   4.085  14.776  0.00  0.00    +0.000 A 
ATOM     13  C   UNL     1       5.007   3.671  15.729  0.00  0.00    +0.000 A 
ATOM     14  O   UNL     1       5.655   3.757  13.473  0.00  0.00    +0.000 OA
ATOM     15  C   UNL     1       6.783   3.978  12.620  0.00  0.00    +0.000 C 
ATOM     16  C   UNL     1       7.453   5.303  12.945  0.00  0.00    +0.000 C 
ATOM     17  O   UNL     1       7.997   5.273  14.271  0.00  0.00    +0.000 OA
ENDBRANCH   7   8
BRANCH   2  18
ATOM     18  C   UNL     1       2.329   6.291  19.870  0.00  0.00    +0.000 C 
BRANCH  18  19
ATOM     19  N   UNL     1       2.095   7.472  19.068  0.00  0.00    +0.000 N 
ATOM     20  N   UNL     1       2.766   7.650  17.914  0.00  0.00    +0.000 NA
ATOM     21  N   UNL     1       2.542   8.912  17.582  0.00  0.00    +0.000 NA
ATOM     22  C   UNL     1       1.790   9.467  18.592  0.00  0.00    +0.000 A 
ATOM     23  N   UNL     1       1.554   8.599  19.593  0.00  0.00    +0.000 NA
BRANCH  22  24
ATOM     24  C   UNL     1       1.339  10.855  18.549  0.00  0.00    +0.000 A 
ATOM     25  C   UNL     1      -0.015  11.153  18.776  0.00  0.00    +0.000 A 
ATOM     26  C   UNL     1      -0.473  12.473  18.756  0.00  0.00    +0.000 A 
ATOM     27  C   UNL     1       0.421  13.511  18.504  0.00  0.00    +0.000 A 
ATOM     28  C   UNL     1       1.765  13.225  18.276  0.00  0.00    +0.000 A 
ATOM     29 CL   UNL     1       2.863  14.515  17.964  0.00  0.00    +0.000 Cl
ATOM     30  C   UNL     1       2.230  11.906  18.297  0.00  0.00    +0.000 A 
ENDBRANCH  22  24
ENDBRANCH  18  19
ENDBRANCH   2  18
TORSDOF 4
ENDMDL
MODEL 6
REMARK VINA RESULT:      -8.7      1.201      1.942
REMARK  Name = 
REMARK  4 active torsions:
REMARK  status: ('A' for Active; 'I' for Inactive)
REMARK    1  A    between atoms: C_2  and  C_3
REMARK    2  A    between atoms: C_3  and  N_4
REMARK    3  A    between atoms: C_7  and  C_8
REMARK    4  A    between atoms: C_20  and  C_21
REMARK                            x       y       z     vdW  Elec       q    Type
REMARK                         _______ _______ _______ _____ _____    ______ ____
ROOT
ATOM      1  O   UNL     1       4.798   6.975  15.990  0.00  0.00    +0.000 OA
ATOM      2  C   UNL     1       5.297   6.153  16.759  0.00  0.00    +0.000 C 
ATOM      3  N   UNL     1       4.518   5.425  17.651  0.00  0.00    +0.000 N 
ATOM      4  C   UNL     1       4.961   4.347  18.519  0.00  0.00    +0.000 C 
ATOM      5  C   UNL     1       3.780   3.398  18.547  0.00  0.00    +0.000 C 
ATOM      6  C   UNL     1       2.570   4.322  18.470  0.00  0.00    +0.000 C 
ATOM      7  C   UNL     1       3.055   5.551  17.676  0.00  0.00    +0.000 C 
ENDROOT
BRANCH   7   8
ATOM      8  C   UNL     1       2.537   6.818  18.334  0.00  0.00    +0.000 A 
ATOM      9  C   UNL     1       2.253   7.947  17.546  0.00  0.00    +0.000 A 
ATOM     10  C   UNL     1       1.724   9.107  18.122  0.00  0.00    +0.000 A 
ATOM     11  C   UNL     1       1.473   9.151  19.490  0.00  0.00    +0.000 A 
ATOM     12  C   UNL     1       1.708   8.021  20.277  0.00  0.00    +0.000 A 
ATOM     13  C   UNL     1       2.246   6.869  19.707  0.00  0.00    +0.000 A 
ATOM     14  O   UNL     1       1.442   7.966  21.622  0.00  0.00    +0.000 OA
ATOM     15  C   UNL     1       0.650   9.079  22.049  0.00  0.00    +0.000 C 
ATOM     16  C   UNL     1       1.153  10.370  21.425  0.00  0.00    +0.000 C 
ATOM     17  O   UNL     1       0.991  10.330  20.000  0.00  0.00    +0.000 OA
ENDBRANCH   7   8
BRANCH   2  18
ATOM     18  C   UNL     1       6.769   5.803  16.722  0.00  0.00    +0.000 C 
BRANCH  18  19
ATOM     19  N   UNL     1       7.595   6.746  17.443  0.00  0.00    +0.000 N 
ATOM     20  N   UNL     1       8.034   6.452  18.683  0.00  0.00    +0.000 NA
ATOM     21  N   UNL     1       8.505   7.595  19.156  0.00  0.00    +0.000 NA
ATOM     22  C   UNL     1       8.272   8.555  18.198  0.00  0.00    +0.000 A 
ATOM     23  N   UNL     1       7.623   8.064  17.126  0.00  0.00    +0.000 NA
BRANCH  22  24
ATOM     24  C   UNL     1       8.683   9.944  18.377  0.00  0.00    +0.000 A 
ATOM     25  C   UNL     1       9.802  10.242  19.175  0.00  0.00    +0.000 A 
ATOM     26  C   UNL     1      10.227  11.560  19.353  0.00  0.00    +0.000 A 
ATOM     27  C   UNL     1       9.534  12.599  18.736  0.00  0.00    +0.000 A 
ATOM     28  C   UNL     1       8.422  12.314  17.945  0.00  0.00    +0.000 A 
ATOM     29 CL   UNL     1       7.572  13.606  17.188  0.00  0.00    +0.000 Cl
ATOM     30  C   UNL     1       7.993  10.997  17.761  0.00  0.00    +0.000 A 
ENDBRANCH  22  24
ENDBRANCH  18  19
ENDBRANCH   2  18
TORSDOF 4
ENDMDL
MODEL 7
REMARK VINA RESULT:      -8.6      4.294      6.248
REMARK  Name = 
REMARK  4 active torsions:
REMARK  status: ('A' for Active; 'I' for Inactive)
REMARK    1  A    between atoms: C_2  and  C_3
REMARK    2  A    between atoms: C_3  and  N_4
REMARK    3  A    between atoms: C_7  and  C_8
REMARK    4  A    between atoms: C_20  and  C_21
REMARK                            x       y       z     vdW  Elec       q    Type
REMARK                         _______ _______ _______ _____ _____    ______ ____
ROOT
ATOM      1  O   UNL     1       4.207   6.890  16.543  0.00  0.00    +0.000 OA
ATOM      2  C   UNL     1       4.697   6.252  17.475  0.00  0.00    +0.000 C 
ATOM      3  N   UNL     1       3.920   5.799  18.535  0.00  0.00    +0.000 N 
ATOM      4  C   UNL     1       4.347   4.939  19.626  0.00  0.00    +0.000 C 
ATOM      5  C   UNL     1       3.128   4.085  19.909  0.00  0.00    +0.000 C 
ATOM      6  C   UNL     1       1.956   5.022  19.641  0.00  0.00    +0.000 C 
ATOM      7  C   UNL     1       2.465   6.000  18.563  0.00  0.00    +0.000 C 
ENDROOT
BRANCH   7   8
ATOM      8  C   UNL     1       2.025   7.412  18.910  0.00  0.00    +0.000 A 
ATOM      9  C   UNL     1       1.874   8.366  17.888  0.00  0.00    +0.000 A 
ATOM     10  C   UNL     1       1.418   9.657  18.175  0.00  0.00    +0.000 A 
ATOM     11  C   UNL     1       1.109  10.008  19.486  0.00  0.00    +0.000 A 
ATOM     12  C   UNL     1       1.211   9.057  20.504  0.00  0.00    +0.000 A 
ATOM     13  C   UNL     1       1.676   7.775  20.221  0.00  0.00    +0.000 A 
ATOM     14  O   UNL     1       0.878   9.308  21.811  0.00  0.00    +0.000 OA
ATOM     15  C   UNL     1       0.164  10.541  21.946  0.00  0.00    +0.000 C 
ATOM     16  C   UNL     1       0.802  11.630  21.100  0.00  0.00    +0.000 C 
ATOM     17  O   UNL     1       0.705  11.300  19.708  0.00  0.00    +0.000 OA
ENDBRANCH   7   8
BRANCH   2  18
ATOM     18  C   UNL     1       6.150   5.831  17.488  0.00  0.00    +0.000 C 
BRANCH  18  19
ATOM     19  N   UNL     1       6.602   5.305  16.218  0.00  0.00    +0.000 N 
ATOM     20  N   UNL     1       7.608   5.908  15.556  0.00  0.00    +0.000 NA
ATOM     21  N   UNL     1       7.587   5.373  14.346  0.00  0.00    +0.000 NA
ATOM     22  C   UNL     1       6.519   4.506  14.307  0.00  0.00    +0.000 A 
ATOM     23  N   UNL     1       5.822   4.498  15.458  0.00  0.00    +0.000 NA
BRANCH  22  24
ATOM     24  C   UNL     1       6.202   3.721  13.118  0.00  0.00    +0.000 A 
ATOM     25  C   UNL     1       7.201   2.937  12.516  0.00  0.00    +0.000 A 
ATOM     26  C   UNL     1       6.923   2.163  11.387  0.00  0.00    +0.000 A 
ATOM     27  C   UNL     1       5.641   2.167  10.844  0.00  0.00    +0.000 A 
ATOM     28  C   UNL     1       4.644   2.942  11.433  0.00  0.00    +0.000 A 
ATOM     29 CL   UNL     1       3.062   2.941  10.754  0.00  0.00    +0.000 Cl
ATOM     30  C   UNL     1       4.915   3.717  12.565  0.00  0.00    +0.000 A 
ENDBRANCH  22  24
ENDBRANCH  18  19
ENDBRANCH   2  18
TORSDOF 4
ENDMDL
MODEL 8
REMARK VINA RESULT:      -8.5      4.579      7.061
REMARK  Name = 
REMARK  4 active torsions:
REMARK  status: ('A' for Active; 'I' for Inactive)
REMARK    1  A    between atoms: C_2  and  C_3
REMARK    2  A    between atoms: C_3  and  N_4
REMARK    3  A    between atoms: C_7  and  C_8
REMARK    4  A    between atoms: C_20  and  C_21
REMARK                            x       y       z     vdW  Elec       q    Type
REMARK                         _______ _______ _______ _____ _____    ______ ____
ROOT
ATOM      1  O   UNL     1       4.701   5.703  19.682  0.00  0.00    +0.000 OA
ATOM      2  C   UNL     1       3.554   5.459  19.308  0.00  0.00    +0.000 C 
ATOM      3  N   UNL     1       3.273   4.375  18.484  0.00  0.00    +0.000 N 
ATOM      4  C   UNL     1       1.959   3.908  18.073  0.00  0.00    +0.000 C 
ATOM      5  C   UNL     1       2.114   2.402  18.017  0.00  0.00    +0.000 C 
ATOM      6  C   UNL     1       3.549   2.201  17.547  0.00  0.00    +0.000 C 
ATOM      7  C   UNL     1       4.318   3.430  18.073  0.00  0.00    +0.000 C 
ENDROOT
BRANCH   7   8
ATOM      8  C   UNL     1       5.252   3.945  16.992  0.00  0.00    +0.000 A 
ATOM      9  C   UNL     1       6.408   4.661  17.352  0.00  0.00    +0.000 A 
ATOM     10  C   UNL     1       7.312   5.099  16.378  0.00  0.00    +0.000 A 
ATOM     11  C   UNL     1       7.070   4.827  15.035  0.00  0.00    +0.000 A 
ATOM     12  C   UNL     1       5.949   4.079  14.667  0.00  0.00    +0.000 A 
ATOM     13  C   UNL     1       5.043   3.652  15.635  0.00  0.00    +0.000 A 
ATOM     14  O   UNL     1       5.666   3.726  13.372  0.00  0.00    +0.000 OA
ATOM     15  C   UNL     1       6.778   3.968  12.503  0.00  0.00    +0.000 C 
ATOM     16  C   UNL     1       7.414   5.315  12.804  0.00  0.00    +0.000 C 
ATOM     17  O   UNL     1       7.972   5.317  14.125  0.00  0.00    +0.000 OA
ENDBRANCH   7   8
BRANCH   2  18
ATOM     18  C   UNL     1       2.361   6.253  19.793  0.00  0.00    +0.000 C 
BRANCH  18  19
ATOM     19  N   UNL     1       2.128   7.456  19.025  0.00  0.00    +0.000 N 
ATOM     20  N   UNL     1       2.773   7.649  17.858  0.00  0.00    +0.000 NA
ATOM     21  N   UNL     1       2.563   8.921  17.560  0.00  0.00    +0.000 NA
ATOM     22  C   UNL     1       1.846   9.466  18.601  0.00  0.00    +0.000 A 
ATOM     23  N   UNL     1       1.620   8.580  19.588  0.00  0.00    +0.000 NA
BRANCH  22  24
ATOM     24  C   UNL     1       1.419  10.862  18.600  0.00  0.00    +0.000 A 
ATOM     25  C   UNL     1       2.301  11.859  18.147  0.00  0.00    +0.000 A 
ATOM     26  C   UNL     1       1.915  13.201  18.122  0.00  0.00    +0.000 A 
ATOM     27  C   UNL     1       0.641  13.562  18.552  0.00  0.00    +0.000 A 
ATOM     28  C   UNL     1      -0.240  12.581  19.005  0.00  0.00    +0.000 A 
ATOM     29 CL   UNL     1      -1.813  13.039  19.536  0.00  0.00    +0.000 Cl
ATOM     30  C   UNL     1       0.140  11.236  19.031  0.00  0.00    +0.000 A 
ENDBRANCH  22  24
ENDBRANCH  18  19
ENDBRANCH   2  18
TORSDOF 4
ENDMDL
MODEL 9
REMARK VINA RESULT:      -8.4      2.968      4.217
REMARK  Name = 
REMARK  4 active torsions:
REMARK  status: ('A' for Active; 'I' for Inactive)
REMARK    1  A    between atoms: C_2  and  C_3
REMARK    2  A    between atoms: C_3  and  N_4
REMARK    3  A    between atoms: C_7  and  C_8
REMARK    4  A    between atoms: C_20  and  C_21
REMARK                            x       y       z     vdW  Elec       q    Type
REMARK                         _______ _______ _______ _____ _____    ______ ____
ROOT
ATOM      1  O   UNL     1       5.413   6.986  18.085  0.00  0.00    +0.000 OA
ATOM      2  C   UNL     1       6.403   6.395  17.656  0.00  0.00    +0.000 C 
ATOM      3  N   UNL     1       6.295   5.404  16.687  0.00  0.00    +0.000 N 
ATOM      4  C   UNL     1       7.386   4.719  16.013  0.00  0.00    +0.000 C 
ATOM      5  C   UNL     1       6.860   4.498  14.609  0.00  0.00    +0.000 C 
ATOM      6  C   UNL     1       5.369   4.258  14.814  0.00  0.00    +0.000 C 
ATOM      7  C   UNL     1       5.004   5.059  16.079  0.00  0.00    +0.000 C 
ENDROOT
BRANCH   7   8
ATOM      8  C   UNL     1       4.088   4.227  16.960  0.00  0.00    +0.000 A 
ATOM      9  C   UNL     1       4.232   2.829  16.992  0.00  0.00    +0.000 A 
ATOM     10  C   UNL     1       3.437   2.046  17.836  0.00  0.00    +0.000 A 
ATOM     11  C   UNL     1       2.490   2.652  18.656  0.00  0.00    +0.000 A 
ATOM     12  C   UNL     1       2.367   4.043  18.667  0.00  0.00    +0.000 A 
ATOM     13  C   UNL     1       3.150   4.823  17.819  0.00  0.00    +0.000 A 
ATOM     14  O   UNL     1       1.494   4.720  19.481  0.00  0.00    +0.000 OA
ATOM     15  C   UNL     1       0.946   3.867  20.491  0.00  0.00    +0.000 C 
ATOM     16  C   UNL     1       0.553   2.521  19.906  0.00  0.00    +0.000 C 
ATOM     17  O   UNL     1       1.715   1.827  19.431  0.00  0.00    +0.000 OA
ENDBRANCH   7   8
BRANCH   2  18
ATOM     18  C   UNL     1       7.809   6.767  18.073  0.00  0.00    +0.000 C 
BRANCH  18  19
ATOM     19  N   UNL     1       8.015   8.196  18.170  0.00  0.00    +0.000 N 
ATOM     20  N   UNL     1       7.615   9.006  17.170  0.00  0.00    +0.000 NA
ATOM     21  N   UNL     1       8.183  10.172  17.431  0.00  0.00    +0.000 NA
ATOM     22  C   UNL     1       8.961  10.000  18.554  0.00  0.00    +0.000 A 
ATOM     23  N   UNL     1       8.938   8.732  19.004  0.00  0.00    +0.000 NA
BRANCH  22  24
ATOM     24  C   UNL     1       9.725  11.096  19.142  0.00  0.00    +0.000 A 
ATOM     25  C   UNL     1       9.630  11.348  20.521  0.00  0.00    +0.000 A 
ATOM     26  C   UNL     1      10.360  12.381  21.114  0.00  0.00    +0.000 A 
ATOM     27  C   UNL     1      11.195  13.175  20.332  0.00  0.00    +0.000 A 
ATOM     28  C   UNL     1      11.294  12.934  18.964  0.00  0.00    +0.000 A 
ATOM     29 CL   UNL     1      12.328  13.923  18.005  0.00  0.00    +0.000 Cl
ATOM     30  C   UNL     1      10.568  11.900  18.364  0.00  0.00    +0.000 A 
ENDBRANCH  22  24
ENDBRANCH  18  19
ENDBRANCH   2  18
TORSDOF 4
ENDMDL
