MODEL 1
REMARK VINA RESULT:      -8.4      0.000      0.000
REMARK  Name = 
REMARK  6 active torsions:
REMARK  status: ('A' for Active; 'I' for Inactive)
REMARK    1  A    between atoms: C_1  and  C_2
REMARK    2  A    between atoms: C_9  and  C_10
REMARK    3  A    between atoms: C_10  and  N_11
REMARK    4  A    between atoms: C_24  and  C_25
REMARK    5  A    between atoms: C_25  and  C_26
REMARK    6  A    between atoms: C_25  and  C_27
REMARK                            x       y       z     vdW  Elec       q    Type
REMARK                         _______ _______ _______ _____ _____    ______ ____
ROOT
ATOM      1  C   UNL     1       6.753   3.991  15.592  0.00  0.00    +0.000 C 
ATOM      2  C   UNL     1       5.741   4.319  16.657  0.00  0.00    +0.000 A 
ATOM      3  C   UNL     1       4.524   3.625  16.645  0.00  0.00    +0.000 A 
ATOM      4  C   UNL     1       3.545   3.895  17.602  0.00  0.00    +0.000 A 
ATOM      5  O   UNL     1       2.358   3.149  17.483  0.00  0.00    +0.000 OA
ATOM      6  C   UNL     1       1.310   3.336  18.362  0.00  0.00    +0.000 A 
ATOM      7  O   UNL     1       0.272   2.689  18.293  0.00  0.00    +0.000 OA
ATOM      8  C   UNL     1       1.483   4.380  19.380  0.00  0.00    +0.000 A 
ATOM      9  C   UNL     1       2.605   5.107  19.532  0.00  0.00    +0.000 A 
ATOM     10  C   UNL     1       3.723   4.842  18.607  0.00  0.00    +0.000 A 
ATOM     11  C   UNL     1       4.953   5.514  18.632  0.00  0.00    +0.000 A 
ATOM     12  C   UNL     1       5.958   5.299  17.652  0.00  0.00    +0.000 A 
ENDROOT
BRANCH  12  13
ATOM     13  C   UNL     1       7.209   6.176  17.662  0.00  0.00    +0.000 C 
ATOM     14  C   UNL     1       6.864   7.626  17.290  0.00  0.00    +0.000 C 
ATOM     15  C   UNL     1       7.953   6.132  18.998  0.00  0.00    +0.000 C 
ENDBRANCH  12  13
BRANCH   9  16
ATOM     16  C   UNL     1       2.639   6.229  20.545  0.00  0.00    +0.000 C 
BRANCH  16  17
ATOM     17  N   UNL     1       2.030   7.438  20.008  0.00  0.00    +0.000 N 
ATOM     18  N   UNL     1       2.263   7.696  18.690  0.00  0.00    +0.000 NA
ATOM     19  N   UNL     1       1.791   8.704  18.124  0.00  0.00    +0.000 NA
ATOM     20  C   UNL     1       1.033   9.624  18.854  0.00  0.00    +0.000 A 
ATOM     21  C   UNL     1       0.584  10.788  18.218  0.00  0.00    +0.000 A 
ATOM     22  C   UNL     1      -0.179  11.735  18.910  0.00  0.00    +0.000 A 
ATOM     23  C   UNL     1      -0.512  11.520  20.246  0.00  0.00    +0.000 A 
ATOM     24  C   UNL     1      -0.072  10.365  20.890  0.00  0.00    +0.000 A 
ATOM     25  C   UNL     1       0.704   9.434  20.185  0.00  0.00    +0.000 A 
ATOM     26  C   UNL     1       1.234   8.230  20.818  0.00  0.00    +0.000 A 
ATOM     27  O   UNL     1       0.969   7.987  21.993  0.00  0.00    +0.000 OA
ENDBRANCH  16  17
ENDBRANCH   9  16
TORSDOF 3
ENDMDL
MODEL 2
REMARK VINA RESULT:      -7.9      1.645      2.291
REMARK  Name = 
REMARK  6 active torsions:
REMARK  status: ('A' for Active; 'I' for Inactive)
REMARK    1  A    between atoms: C_1  and  C_2
REMARK    2  A    between atoms: C_9  and  C_10
REMARK    3  A    between atoms: C_10  and  N_11
REMARK    4  A    between atoms: C_24  and  C_25
REMARK    5  A    between atoms: C_25  and  C_26
REMARK    6  A    between atoms: C_25  and  C_27
REMARK                            x       y       z     vdW  Elec       q    Type
REMARK                         _______ _______ _______ _____ _____    ______ ____
ROOT
ATOM      1  C   UNL     1       7.884   4.367  17.455  0.00  0.00    +0.000 C 
ATOM      2  C   UNL     1       6.542   5.033  17.606  0.00  0.00    +0.000 A 
ATOM      3  C   UNL     1       5.399   4.223  17.593  0.00  0.00    +0.000 A 
ATOM      4  C   UNL     1       4.129   4.787  17.718  0.00  0.00    +0.000 A 
ATOM      5  O   UNL     1       3.055   3.879  17.676  0.00  0.00    +0.000 OA
ATOM      6  C   UNL     1       1.749   4.318  17.776  0.00  0.00    +0.000 A 
ATOM      7  O   UNL     1       0.796   3.549  17.760  0.00  0.00    +0.000 OA
ATOM      8  C   UNL     1       1.548   5.769  17.873  0.00  0.00    +0.000 A 
ATOM      9  C   UNL     1       2.548   6.667  17.925  0.00  0.00    +0.000 A 
ATOM     10  C   UNL     1       3.931   6.157  17.869  0.00  0.00    +0.000 A 
ATOM     11  C   UNL     1       5.078   6.962  17.909  0.00  0.00    +0.000 A 
ATOM     12  C   UNL     1       6.385   6.431  17.743  0.00  0.00    +0.000 A 
ENDROOT
BRANCH  12  13
ATOM     13  C   UNL     1       7.572   7.389  17.651  0.00  0.00    +0.000 C 
ATOM     14  C   UNL     1       7.099   8.820  17.358  0.00  0.00    +0.000 C 
ATOM     15  C   UNL     1       8.453   7.365  18.902  0.00  0.00    +0.000 C 
ENDBRANCH  12  13
BRANCH   9  16
ATOM     16  C   UNL     1       2.229   8.146  17.919  0.00  0.00    +0.000 C 
BRANCH  16  17
ATOM     17  N   UNL     1       1.636   8.559  19.184  0.00  0.00    +0.000 N 
ATOM     18  N   UNL     1       1.883   7.754  20.256  0.00  0.00    +0.000 NA
ATOM     19  N   UNL     1       1.426   8.010  21.390  0.00  0.00    +0.000 NA
ATOM     20  C   UNL     1       0.605   9.126  21.576  0.00  0.00    +0.000 A 
ATOM     21  C   UNL     1       0.037   9.348  22.836  0.00  0.00    +0.000 A 
ATOM     22  C   UNL     1      -0.789  10.453  23.067  0.00  0.00    +0.000 A 
ATOM     23  C   UNL     1      -1.045  11.358  22.039  0.00  0.00    +0.000 A 
ATOM     24  C   UNL     1      -0.486  11.150  20.780  0.00  0.00    +0.000 A 
ATOM     25  C   UNL     1       0.328  10.029  20.563  0.00  0.00    +0.000 A 
ATOM     26  C   UNL     1       0.904   9.732  19.255  0.00  0.00    +0.000 A 
ATOM     27  O   UNL     1       0.715  10.497  18.313  0.00  0.00    +0.000 OA
ENDBRANCH  16  17
ENDBRANCH   9  16
TORSDOF 3
ENDMDL
MODEL 3
REMARK VINA RESULT:      -7.8      2.407      4.355
REMARK  Name = 
REMARK  6 active torsions:
REMARK  status: ('A' for Active; 'I' for Inactive)
REMARK    1  A    between atoms: C_1  and  C_2
REMARK    2  A    between atoms: C_9  and  C_10
REMARK    3  A    between atoms: C_10  and  N_11
REMARK    4  A    between atoms: C_24  and  C_25
REMARK    5  A    between atoms: C_25  and  C_26
REMARK    6  A    between atoms: C_25  and  C_27
REMARK                            x       y       z     vdW  Elec       q    Type
REMARK                         _______ _______ _______ _____ _____    ______ ____
ROOT
ATOM      1  C   UNL     1       4.772   1.658  20.385  0.00  0.00    +0.000 C 
ATOM      2  C   UNL     1       4.422   2.927  19.654  0.00  0.00    +0.000 A 
ATOM      3  C   UNL     1       5.469   3.762  19.244  0.00  0.00    +0.000 A 
ATOM      4  C   UNL     1       5.202   4.956  18.573  0.00  0.00    +0.000 A 
ATOM      5  O   UNL     1       6.331   5.721  18.223  0.00  0.00    +0.000 OA
ATOM      6  C   UNL     1       6.195   6.928  17.567  0.00  0.00    +0.000 A 
ATOM      7  O   UNL     1       7.159   7.607  17.236  0.00  0.00    +0.000 OA
ATOM      8  C   UNL     1       4.824   7.386  17.308  0.00  0.00    +0.000 A 
ATOM      9  C   UNL     1       3.722   6.680  17.618  0.00  0.00    +0.000 A 
ATOM     10  C   UNL     1       3.907   5.370  18.270  0.00  0.00    +0.000 A 
ATOM     11  C   UNL     1       2.864   4.519  18.658  0.00  0.00    +0.000 A 
ATOM     12  C   UNL     1       3.091   3.317  19.380  0.00  0.00    +0.000 A 
ENDROOT
BRANCH  12  13
ATOM     13  C   UNL     1       1.894   2.519  19.895  0.00  0.00    +0.000 C 
ATOM     14  C   UNL     1       1.428   3.050  21.258  0.00  0.00    +0.000 C 
ATOM     15  C   UNL     1       0.727   2.496  18.905  0.00  0.00    +0.000 C 
ENDBRANCH  12  13
BRANCH   9  16
ATOM     16  C   UNL     1       2.355   7.291  17.402  0.00  0.00    +0.000 C 
BRANCH  16  17
ATOM     17  N   UNL     1       1.888   7.968  18.604  0.00  0.00    +0.000 N 
ATOM     18  N   UNL     1       1.927   7.243  19.758  0.00  0.00    +0.000 NA
ATOM     19  N   UNL     1       1.552   7.722  20.849  0.00  0.00    +0.000 NA
ATOM     20  C   UNL     1       1.039   9.022  20.901  0.00  0.00    +0.000 A 
ATOM     21  C   UNL     1       0.548   9.508  22.119  0.00  0.00    +0.000 A 
ATOM     22  C   UNL     1       0.028  10.803  22.217  0.00  0.00    +0.000 A 
ATOM     23  C   UNL     1       0.005  11.631  21.097  0.00  0.00    +0.000 A 
ATOM     24  C   UNL     1       0.491  11.160  19.879  0.00  0.00    +0.000 A 
ATOM     25  C   UNL     1       0.996   9.855  19.796  0.00  0.00    +0.000 A 
ATOM     26  C   UNL     1       1.475   9.288  18.539  0.00  0.00    +0.000 A 
ATOM     27  O   UNL     1       1.482   9.974  17.519  0.00  0.00    +0.000 OA
ENDBRANCH  16  17
ENDBRANCH   9  16
TORSDOF 3
ENDMDL
MODEL 4
REMARK VINA RESULT:      -7.5      3.563      9.120
REMARK  Name = 
REMARK  6 active torsions:
REMARK  status: ('A' for Active; 'I' for Inactive)
REMARK    1  A    between atoms: C_1  and  C_2
REMARK    2  A    between atoms: C_9  and  C_10
REMARK    3  A    between atoms: C_10  and  N_11
REMARK    4  A    between atoms: C_24  and  C_25
REMARK    5  A    between atoms: C_25  and  C_26
REMARK    6  A    between atoms: C_25  and  C_27
REMARK                            x       y       z     vdW  Elec       q    Type
REMARK                         _______ _______ _______ _____ _____    ______ ____
ROOT
ATOM      1  C   UNL     1      -5.940  13.248  21.419  0.00  0.00    +0.000 C 
ATOM      2  C   UNL     1      -4.680  12.798  20.730  0.00  0.00    +0.000 A 
ATOM      3  C   UNL     1      -4.804  12.071  19.539  0.00  0.00    +0.000 A 
ATOM      4  C   UNL     1      -3.670  11.620  18.863  0.00  0.00    +0.000 A 
ATOM      5  O   UNL     1      -3.916  10.887  17.687  0.00  0.00    +0.000 OA
ATOM      6  C   UNL     1      -2.874  10.376  16.937  0.00  0.00    +0.000 A 
ATOM      7  O   UNL     1      -3.059   9.749  15.901  0.00  0.00    +0.000 OA
ATOM      8  C   UNL     1      -1.520  10.592  17.460  0.00  0.00    +0.000 A 
ATOM      9  C   UNL     1      -1.243  11.295  18.573  0.00  0.00    +0.000 A 
ATOM     10  C   UNL     1      -2.378  11.871  19.319  0.00  0.00    +0.000 A 
ATOM     11  C   UNL     1      -2.258  12.622  20.496  0.00  0.00    +0.000 A 
ATOM     12  C   UNL     1      -3.387  13.063  21.236  0.00  0.00    +0.000 A 
ENDROOT
BRANCH  12  13
ATOM     13  C   UNL     1      -3.173  13.749  22.584  0.00  0.00    +0.000 C 
ATOM     14  C   UNL     1      -3.182  12.723  23.727  0.00  0.00    +0.000 C 
ATOM     15  C   UNL     1      -1.891  14.583  22.628  0.00  0.00    +0.000 C 
ENDBRANCH  12  13
BRANCH   9  16
ATOM     16  C   UNL     1       0.180  11.369  19.079  0.00  0.00    +0.000 C 
BRANCH  16  17
ATOM     17  N   UNL     1       0.707  10.039  19.356  0.00  0.00    +0.000 N 
ATOM     18  N   UNL     1       0.266   9.443  20.500  0.00  0.00    +0.000 NA
ATOM     19  N   UNL     1       0.651   8.304  20.838  0.00  0.00    +0.000 NA
ATOM     20  C   UNL     1       1.587   7.622  20.055  0.00  0.00    +0.000 A 
ATOM     21  C   UNL     1       2.066   6.383  20.496  0.00  0.00    +0.000 A 
ATOM     22  C   UNL     1       3.002   5.665  19.743  0.00  0.00    +0.000 A 
ATOM     23  C   UNL     1       3.460   6.177  18.531  0.00  0.00    +0.000 A 
ATOM     24  C   UNL     1       2.992   7.410  18.080  0.00  0.00    +0.000 A 
ATOM     25  C   UNL     1       2.065   8.121  18.855  0.00  0.00    +0.000 A 
ATOM     26  C   UNL     1       1.573   9.437  18.459  0.00  0.00    +0.000 A 
ATOM     27  O   UNL     1       1.940   9.936  17.398  0.00  0.00    +0.000 OA
ENDBRANCH  16  17
ENDBRANCH   9  16
TORSDOF 3
ENDMDL
MODEL 5
REMARK VINA RESULT:      -7.4      1.208      1.638
REMARK  Name = 
REMARK  6 active torsions:
REMARK  status: ('A' for Active; 'I' for Inactive)
REMARK    1  A    between atoms: C_1  and  C_2
REMARK    2  A    between atoms: C_9  and  C_10
REMARK    3  A    between atoms: C_10  and  N_11
REMARK    4  A    between atoms: C_24  and  C_25
REMARK    5  A    between atoms: C_25  and  C_26
REMARK    6  A    between atoms: C_25  and  C_27
REMARK                            x       y       z     vdW  Elec       q    Type
REMARK                         _______ _______ _______ _____ _____    ______ ____
ROOT
ATOM      1  C   UNL     1       6.143   3.778  15.209  0.00  0.00    +0.000 C 
ATOM      2  C   UNL     1       5.273   4.068  16.403  0.00  0.00    +0.000 A 
ATOM      3  C   UNL     1       4.022   3.443  16.474  0.00  0.00    +0.000 A 
ATOM      4  C   UNL     1       3.170   3.683  17.553  0.00  0.00    +0.000 A 
ATOM      5  O   UNL     1       1.933   3.013  17.510  0.00  0.00    +0.000 OA
ATOM      6  C   UNL     1       0.999   3.180  18.514  0.00  0.00    +0.000 A 
ATOM      7  O   UNL     1      -0.078   2.597  18.511  0.00  0.00    +0.000 OA
ATOM      8  C   UNL     1       1.346   4.124  19.584  0.00  0.00    +0.000 A 
ATOM      9  C   UNL     1       2.520   4.774  19.665  0.00  0.00    +0.000 A 
ATOM     10  C   UNL     1       3.514   4.531  18.603  0.00  0.00    +0.000 A 
ATOM     11  C   UNL     1       4.778   5.132  18.542  0.00  0.00    +0.000 A 
ATOM     12  C   UNL     1       5.656   4.947  17.441  0.00  0.00    +0.000 A 
ENDROOT
BRANCH  12  13
ATOM     13  C   UNL     1       6.953   5.753  17.379  0.00  0.00    +0.000 C 
ATOM     14  C   UNL     1       6.660   7.246  17.171  0.00  0.00    +0.000 C 
ATOM     15  C   UNL     1       7.837   5.550  18.612  0.00  0.00    +0.000 C 
ENDBRANCH  12  13
BRANCH   9  16
ATOM     16  C   UNL     1       2.733   5.804  20.753  0.00  0.00    +0.000 C 
BRANCH  16  17
ATOM     17  N   UNL     1       1.912   6.985  20.525  0.00  0.00    +0.000 N 
ATOM     18  N   UNL     1       0.954   7.242  21.460  0.00  0.00    +0.000 NA
ATOM     19  N   UNL     1       0.192   8.228  21.366  0.00  0.00    +0.000 NA
ATOM     20  C   UNL     1       0.284   9.079  20.261  0.00  0.00    +0.000 A 
ATOM     21  C   UNL     1      -0.634  10.129  20.136  0.00  0.00    +0.000 A 
ATOM     22  C   UNL     1      -0.578  11.005  19.047  0.00  0.00    +0.000 A 
ATOM     23  C   UNL     1       0.408  10.847  18.076  0.00  0.00    +0.000 A 
ATOM     24  C   UNL     1       1.328   9.807  18.188  0.00  0.00    +0.000 A 
ATOM     25  C   UNL     1       1.248   8.929  19.279  0.00  0.00    +0.000 A 
ATOM     26  C   UNL     1       2.153   7.794  19.427  0.00  0.00    +0.000 A 
ATOM     27  O   UNL     1       3.045   7.608  18.603  0.00  0.00    +0.000 OA
ENDBRANCH  16  17
ENDBRANCH   9  16
TORSDOF 3
ENDMDL
MODEL 6
REMARK VINA RESULT:      -7.4      3.292      8.938
REMARK  Name = 
REMARK  6 active torsions:
REMARK  status: ('A' for Active; 'I' for Inactive)
REMARK    1  A    between atoms: C_1  and  C_2
REMARK    2  A    between atoms: C_9  and  C_10
REMARK    3  A    between atoms: C_10  and  N_11
REMARK    4  A    between atoms: C_24  and  C_25
REMARK    5  A    between atoms: C_25  and  C_26
REMARK    6  A    between atoms: C_25  and  C_27
REMARK                            x       y       z     vdW  Elec       q    Type
REMARK                         _______ _______ _______ _____ _____    ______ ____
ROOT
ATOM      1  C   UNL     1      -5.801  13.528  21.004  0.00  0.00    +0.000 C 
ATOM      2  C   UNL     1      -4.514  12.974  20.451  0.00  0.00    +0.000 A 
ATOM      3  C   UNL     1      -4.581  12.181  19.299  0.00  0.00    +0.000 A 
ATOM      4  C   UNL     1      -3.421  11.632  18.749  0.00  0.00    +0.000 A 
ATOM      5  O   UNL     1      -3.610  10.840  17.601  0.00  0.00    +0.000 OA
ATOM      6  C   UNL     1      -2.541  10.232  16.973  0.00  0.00    +0.000 A 
ATOM      7  O   UNL     1      -2.674   9.551  15.964  0.00  0.00    +0.000 OA
ATOM      8  C   UNL     1      -1.223  10.414  17.595  0.00  0.00    +0.000 A 
ATOM      9  C   UNL     1      -1.001  11.170  18.684  0.00  0.00    +0.000 A 
ATOM     10  C   UNL     1      -2.159  11.847  19.297  0.00  0.00    +0.000 A 
ATOM     11  C   UNL     1      -2.095  12.665  20.433  0.00  0.00    +0.000 A 
ATOM     12  C   UNL     1      -3.255  13.207  21.048  0.00  0.00    +0.000 A 
ENDROOT
BRANCH  12  13
ATOM     13  C   UNL     1      -3.114  13.964  22.368  0.00  0.00    +0.000 C 
ATOM     14  C   UNL     1      -2.056  13.307  23.266  0.00  0.00    +0.000 C 
ATOM     15  C   UNL     1      -2.796  15.448  22.169  0.00  0.00    +0.000 C 
ENDBRANCH  12  13
BRANCH   9  16
ATOM     16  C   UNL     1       0.379  11.206  19.304  0.00  0.00    +0.000 C 
BRANCH  16  17
ATOM     17  N   UNL     1       1.095   9.962  19.058  0.00  0.00    +0.000 N 
ATOM     18  N   UNL     1       1.765   9.876  17.874  0.00  0.00    +0.000 NA
ATOM     19  N   UNL     1       2.413   8.857  17.557  0.00  0.00    +0.000 NA
ATOM     20  C   UNL     1       2.433   7.749  18.410  0.00  0.00    +0.000 A 
ATOM     21  C   UNL     1       3.097   6.587  17.997  0.00  0.00    +0.000 A 
ATOM     22  C   UNL     1       3.143   5.456  18.819  0.00  0.00    +0.000 A 
ATOM     23  C   UNL     1       2.533   5.480  20.071  0.00  0.00    +0.000 A 
ATOM     24  C   UNL     1       1.868   6.629  20.495  0.00  0.00    +0.000 A 
ATOM     25  C   UNL     1       1.820   7.749  19.652  0.00  0.00    +0.000 A 
ATOM     26  C   UNL     1       1.101   8.965  20.019  0.00  0.00    +0.000 A 
ATOM     27  O   UNL     1       0.547   9.044  21.113  0.00  0.00    +0.000 OA
ENDBRANCH  16  17
ENDBRANCH   9  16
TORSDOF 3
ENDMDL
MODEL 7
REMARK VINA RESULT:      -7.3      2.326      4.431
REMARK  Name = 
REMARK  6 active torsions:
REMARK  status: ('A' for Active; 'I' for Inactive)
REMARK    1  A    between atoms: C_1  and  C_2
REMARK    2  A    between atoms: C_9  and  C_10
REMARK    3  A    between atoms: C_10  and  N_11
REMARK    4  A    between atoms: C_24  and  C_25
REMARK    5  A    between atoms: C_25  and  C_26
REMARK    6  A    between atoms: C_25  and  C_27
REMARK                            x       y       z     vdW  Elec       q    Type
REMARK                         _______ _______ _______ _____ _____    ______ ____
ROOT
ATOM      1  C   UNL     1       3.835   1.989  20.006  0.00  0.00    +0.000 C 
ATOM      2  C   UNL     1       3.642   3.347  19.384  0.00  0.00    +0.000 A 
ATOM      3  C   UNL     1       4.782   4.049  18.970  0.00  0.00    +0.000 A 
ATOM      4  C   UNL     1       4.663   5.316  18.397  0.00  0.00    +0.000 A 
ATOM      5  O   UNL     1       5.875   5.933  18.035  0.00  0.00    +0.000 OA
ATOM      6  C   UNL     1       5.890   7.194  17.470  0.00  0.00    +0.000 A 
ATOM      7  O   UNL     1       6.927   7.748  17.130  0.00  0.00    +0.000 OA
ATOM      8  C   UNL     1       4.591   7.863  17.323  0.00  0.00    +0.000 A 
ATOM      9  C   UNL     1       3.412   7.303  17.648  0.00  0.00    +0.000 A 
ATOM     10  C   UNL     1       3.432   5.935  18.199  0.00  0.00    +0.000 A 
ATOM     11  C   UNL     1       2.293   5.217  18.588  0.00  0.00    +0.000 A 
ATOM     12  C   UNL     1       2.373   3.944  19.214  0.00  0.00    +0.000 A 
ENDROOT
BRANCH  12  13
ATOM     13  C   UNL     1       1.097   3.293  19.743  0.00  0.00    +0.000 C 
ATOM     14  C   UNL     1       0.676   2.112  18.855  0.00  0.00    +0.000 C 
ATOM     15  C   UNL     1       1.219   2.846  21.201  0.00  0.00    +0.000 C 
ENDBRANCH  12  13
BRANCH   9  16
ATOM     16  C   UNL     1       2.143   8.120  17.553  0.00  0.00    +0.000 C 
BRANCH  16  17
ATOM     17  N   UNL     1       1.672   8.510  18.875  0.00  0.00    +0.000 N 
ATOM     18  N   UNL     1       2.091   7.737  19.916  0.00  0.00    +0.000 NA
ATOM     19  N   UNL     1       1.749   7.978  21.093  0.00  0.00    +0.000 NA
ATOM     20  C   UNL     1       0.883   9.041  21.366  0.00  0.00    +0.000 A 
ATOM     21  C   UNL     1       0.448   9.242  22.681  0.00  0.00    +0.000 A 
ATOM     22  C   UNL     1      -0.417  10.294  22.999  0.00  0.00    +0.000 A 
ATOM     23  C   UNL     1      -0.846  11.168  22.002  0.00  0.00    +0.000 A 
ATOM     24  C   UNL     1      -0.421  10.980  20.688  0.00  0.00    +0.000 A 
ATOM     25  C   UNL     1       0.435   9.911  20.386  0.00  0.00    +0.000 A 
ATOM     26  C   UNL     1       0.877   9.634  19.023  0.00  0.00    +0.000 A 
ATOM     27  O   UNL     1       0.532  10.374  18.104  0.00  0.00    +0.000 OA
ENDBRANCH  16  17
ENDBRANCH   9  16
TORSDOF 3
ENDMDL
MODEL 8
REMARK VINA RESULT:      -7.2      4.545      6.688
REMARK  Name = 
REMARK  6 active torsions:
REMARK  status: ('A' for Active; 'I' for Inactive)
REMARK    1  A    between atoms: C_1  and  C_2
REMARK    2  A    between atoms: C_9  and  C_10
REMARK    3  A    between atoms: C_10  and  N_11
REMARK    4  A    between atoms: C_24  and  C_25
REMARK    5  A    between atoms: C_25  and  C_26
REMARK    6  A    between atoms: C_25  and  C_27
REMARK                            x       y       z     vdW  Elec       q    Type
REMARK                         _______ _______ _______ _____ _____    ______ ____
ROOT
ATOM      1  C   UNL     1       7.662   5.321  11.037  0.00  0.00    +0.000 C 
ATOM      2  C   UNL     1       7.117   4.849  12.359  0.00  0.00    +0.000 A 
ATOM      3  C   UNL     1       7.563   5.491  13.521  0.00  0.00    +0.000 A 
ATOM      4  C   UNL     1       7.101   5.088  14.775  0.00  0.00    +0.000 A 
ATOM      5  O   UNL     1       7.629   5.794  15.872  0.00  0.00    +0.000 OA
ATOM      6  C   UNL     1       7.258   5.479  17.164  0.00  0.00    +0.000 A 
ATOM      7  O   UNL     1       7.689   6.087  18.136  0.00  0.00    +0.000 OA
ATOM      8  C   UNL     1       6.337   4.348  17.327  0.00  0.00    +0.000 A 
ATOM      9  C   UNL     1       5.803   3.656  16.305  0.00  0.00    +0.000 A 
ATOM     10  C   UNL     1       6.181   4.055  14.936  0.00  0.00    +0.000 A 
ATOM     11  C   UNL     1       5.717   3.434  13.769  0.00  0.00    +0.000 A 
ATOM     12  C   UNL     1       6.195   3.786  12.478  0.00  0.00    +0.000 A 
ENDROOT
BRANCH  12  13
ATOM     13  C   UNL     1       5.750   2.963  11.269  0.00  0.00    +0.000 C 
ATOM     14  C   UNL     1       6.301   1.532  11.349  0.00  0.00    +0.000 C 
ATOM     15  C   UNL     1       4.230   2.940  11.094  0.00  0.00    +0.000 C 
ENDBRANCH  12  13
BRANCH   9  16
ATOM     16  C   UNL     1       4.946   2.442  16.587  0.00  0.00    +0.000 C 
BRANCH  16  17
ATOM     17  N   UNL     1       4.261   2.571  17.866  0.00  0.00    +0.000 N 
ATOM     18  N   UNL     1       5.014   2.341  18.979  0.00  0.00    +0.000 NA
ATOM     19  N   UNL     1       4.531   2.424  20.128  0.00  0.00    +0.000 NA
ATOM     20  C   UNL     1       3.175   2.720  20.296  0.00  0.00    +0.000 A 
ATOM     21  C   UNL     1       2.638   2.726  21.589  0.00  0.00    +0.000 A 
ATOM     22  C   UNL     1       1.287   3.018  21.803  0.00  0.00    +0.000 A 
ATOM     23  C   UNL     1       0.460   3.322  20.724  0.00  0.00    +0.000 A 
ATOM     24  C   UNL     1       0.982   3.320  19.432  0.00  0.00    +0.000 A 
ATOM     25  C   UNL     1       2.335   3.011  19.234  0.00  0.00    +0.000 A 
ATOM     26  C   UNL     1       2.929   2.947  17.902  0.00  0.00    +0.000 A 
ATOM     27  O   UNL     1       2.248   3.209  16.914  0.00  0.00    +0.000 OA
ENDBRANCH  16  17
ENDBRANCH   9  16
TORSDOF 3
ENDMDL
MODEL 9
REMARK VINA RESULT:      -7.1      3.458      7.242
REMARK  Name = 
REMARK  6 active torsions:
REMARK  status: ('A' for Active; 'I' for Inactive)
REMARK    1  A    between atoms: C_1  and  C_2
REMARK    2  A    between atoms: C_9  and  C_10
REMARK    3  A    between atoms: C_10  and  N_11
REMARK    4  A    between atoms: C_24  and  C_25
REMARK    5  A    between atoms: C_25  and  C_26
REMARK    6  A    between atoms: C_25  and  C_27
REMARK                            x       y       z     vdW  Elec       q    Type
REMARK                         _______ _______ _______ _____ _____    ______ ____
ROOT
ATOM      1  C   UNL     1       0.728   2.800  20.108  0.00  0.00    +0.000 C 
ATOM      2  C   UNL     1       1.865   3.628  19.574  0.00  0.00    +0.000 A 
ATOM      3  C   UNL     1       1.573   4.902  19.068  0.00  0.00    +0.000 A 
ATOM      4  C   UNL     1       2.586   5.708  18.550  0.00  0.00    +0.000 A 
ATOM      5  O   UNL     1       2.173   6.960  18.056  0.00  0.00    +0.000 OA
ATOM      6  C   UNL     1       3.082   7.842  17.506  0.00  0.00    +0.000 A 
ATOM      7  O   UNL     1       2.753   8.944  17.084  0.00  0.00    +0.000 OA
ATOM      8  C   UNL     1       4.474   7.384  17.419  0.00  0.00    +0.000 A 
ATOM      9  C   UNL     1       4.909   6.201  17.888  0.00  0.00    +0.000 A 
ATOM     10  C   UNL     1       3.919   5.306  18.517  0.00  0.00    +0.000 A 
ATOM     11  C   UNL     1       4.212   4.043  19.049  0.00  0.00    +0.000 A 
ATOM     12  C   UNL     1       3.203   3.175  19.546  0.00  0.00    +0.000 A 
ENDROOT
BRANCH  12  13
ATOM     13  C   UNL     1       3.584   1.758  19.972  0.00  0.00    +0.000 C 
ATOM     14  C   UNL     1       3.789   0.854  18.747  0.00  0.00    +0.000 C 
ATOM     15  C   UNL     1       4.821   1.721  20.873  0.00  0.00    +0.000 C 
ENDBRANCH  12  13
BRANCH   9  16
ATOM     16  C   UNL     1       6.344   5.783  17.653  0.00  0.00    +0.000 C 
BRANCH  16  17
ATOM     17  N   UNL     1       6.559   5.407  16.263  0.00  0.00    +0.000 N 
ATOM     18  N   UNL     1       7.621   5.991  15.638  0.00  0.00    +0.000 NA
ATOM     19  N   UNL     1       7.901   5.742  14.446  0.00  0.00    +0.000 NA
ATOM     20  C   UNL     1       7.092   4.875  13.705  0.00  0.00    +0.000 A 
ATOM     21  C   UNL     1       7.376   4.676  12.349  0.00  0.00    +0.000 A 
ATOM     22  C   UNL     1       6.595   3.816  11.571  0.00  0.00    +0.000 A 
ATOM     23  C   UNL     1       5.525   3.134  12.146  0.00  0.00    +0.000 A 
ATOM     24  C   UNL     1       5.231   3.322  13.495  0.00  0.00    +0.000 A 
ATOM     25  C   UNL     1       6.016   4.199  14.257  0.00  0.00    +0.000 A 
ATOM     26  C   UNL     1       5.730   4.475  15.662  0.00  0.00    +0.000 A 
ATOM     27  O   UNL     1       4.801   3.899  16.223  0.00  0.00    +0.000 OA
ENDBRANCH  16  17
ENDBRANCH   9  16
TORSDOF 3
ENDMDL
