MODEL 1
REMARK VINA RESULT:      -9.5      0.000      0.000
REMARK  Name = 
REMARK  8 active torsions:
REMARK  status: ('A' for Active; 'I' for Inactive)
REMARK    1  A    between atoms: C_1  and  N_2
REMARK    2  A    between atoms: N_2  and  C_3
REMARK    3  A    between atoms: N_2  and  C_24
REMARK    4  A    between atoms: C_3  and  C_4
REMARK    5  A    between atoms: C_9  and  N_10
REMARK    6  A    between atoms: C_11  and  C_13
REMARK    7  A    between atoms: C_13  and  C_14
REMARK    8  A    between atoms: C_14  and  C_15
REMARK                            x       y       z     vdW  Elec       q    Type
REMARK                         _______ _______ _______ _____ _____    ______ ____
ROOT
ATOM      1  N   UNL     1       7.684   6.399  17.449  0.00  0.00    +0.000 N 
ATOM      2  C   UNL     1       7.555   7.779  17.568  0.00  0.00    +0.000 C 
ATOM      3  O   UNL     1       6.676   8.460  17.044  0.00  0.00    +0.000 OA
ATOM      4  H   UNL     1       8.329   5.945  18.085  0.00  0.00    +0.000 HD
ENDROOT
BRANCH   1  10
ATOM      5  C   UNL     1       5.620   5.071  16.960  0.00  0.00    +0.000 A 
ATOM      6  C   UNL     1       4.939   4.174  16.095  0.00  0.00    +0.000 A 
ATOM      7  C   UNL     1       5.492   3.785  14.876  0.00  0.00    +0.000 A 
ATOM      8  C   UNL     1       6.726   4.288  14.494  0.00  0.00    +0.000 A 
ATOM      9  C   UNL     1       7.429   5.141  15.352  0.00  0.00    +0.000 A 
ATOM     10  C   UNL     1       6.904   5.547  16.593  0.00  0.00    +0.000 A 
BRANCH   5  11
ATOM     11  C   UNL     1       4.842   5.486  18.178  0.00  0.00    +0.000 C 
BRANCH  11  13
ATOM     12  C   UNL     1       2.661   6.609  18.235  0.00  0.00    +0.000 C 
ATOM     13  N   UNL     1       3.365   5.338  18.050  0.00  0.00    +0.000 NA
BRANCH  13  14
ATOM     14  C   UNL     1       2.842   4.231  18.895  0.00  0.00    +0.000 C 
ATOM     15  C   UNL     1       1.467   3.713  18.406  0.00  0.00    +0.000 C 
ATOM     16  C   UNL     1       0.923   2.586  19.286  0.00  0.00    +0.000 C 
ATOM     17  C   UNL     1       0.834   3.026  20.742  0.00  0.00    +0.000 C 
ATOM     18  C   UNL     1       2.201   3.447  21.257  0.00  0.00    +0.000 C 
ATOM     19  C   UNL     1       2.806   4.560  20.404  0.00  0.00    +0.000 C 
ENDBRANCH  13  14
ENDBRANCH  11  13
ENDBRANCH   5  11
ENDBRANCH   1  10
BRANCH   2  20
ATOM     20  C   UNL     1       8.570   8.478  18.465  0.00  0.00    +0.000 C 
BRANCH  20  21
ATOM     21  C   UNL     1       8.751   9.953  18.118  0.00  0.00    +0.000 C 
BRANCH  21  22
ATOM     22  C   UNL     1       9.584  10.702  19.123  0.00  0.00    +0.000 A 
ATOM     23  C   UNL     1       9.167  11.014  20.389  0.00  0.00    +0.000 A 
ATOM     24  N   UNL     1      10.283  11.492  21.064  0.00  0.00    +0.000 N 
ATOM     25  C   UNL     1      10.898  12.260  20.094  0.00  0.00    +0.000 A 
ATOM     26  C   UNL     1      11.504  13.507  20.173  0.00  0.00    +0.000 A 
ATOM     27  C   UNL     1      12.091  13.971  19.000  0.00  0.00    +0.000 A 
ATOM     28  C   UNL     1      12.190  13.146  17.875  0.00  0.00    +0.000 A 
ATOM     29  C   UNL     1      11.549  11.894  17.819  0.00  0.00    +0.000 A 
ATOM     30  C   UNL     1      10.757  11.521  18.918  0.00  0.00    +0.000 A 
ATOM     31  H   UNL     1      10.846  10.855  21.599  0.00  0.00    +0.000 HD
ENDBRANCH  21  22
ENDBRANCH  20  21
ENDBRANCH   2  20
TORSDOF 7
ENDMDL
MODEL 2
REMARK VINA RESULT:      -9.5      0.593      1.107
REMARK  Name = 
REMARK  8 active torsions:
REMARK  status: ('A' for Active; 'I' for Inactive)
REMARK    1  A    between atoms: C_1  and  N_2
REMARK    2  A    between atoms: N_2  and  C_3
REMARK    3  A    between atoms: N_2  and  C_24
REMARK    4  A    between atoms: C_3  and  C_4
REMARK    5  A    between atoms: C_9  and  N_10
REMARK    6  A    between atoms: C_11  and  C_13
REMARK    7  A    between atoms: C_13  and  C_14
REMARK    8  A    between atoms: C_14  and  C_15
REMARK                            x       y       z     vdW  Elec       q    Type
REMARK                         _______ _______ _______ _____ _____    ______ ____
ROOT
ATOM      1  N   UNL     1       7.465   6.392  18.144  0.00  0.00    +0.000 N 
ATOM      2  C   UNL     1       7.710   7.716  17.795  0.00  0.00    +0.000 C 
ATOM      3  O   UNL     1       7.232   8.295  16.821  0.00  0.00    +0.000 OA
ATOM      4  H   UNL     1       7.762   6.102  19.069  0.00  0.00    +0.000 HD
ENDROOT
BRANCH   1  10
ATOM      5  C   UNL     1       5.413   5.031  17.702  0.00  0.00    +0.000 A 
ATOM      6  C   UNL     1       4.776   4.025  16.927  0.00  0.00    +0.000 A 
ATOM      7  C   UNL     1       5.406   3.454  15.823  0.00  0.00    +0.000 A 
ATOM      8  C   UNL     1       6.676   3.881  15.464  0.00  0.00    +0.000 A 
ATOM      9  C   UNL     1       7.334   4.842  16.239  0.00  0.00    +0.000 A 
ATOM     10  C   UNL     1       6.730   5.433  17.365  0.00  0.00    +0.000 A 
BRANCH   5  11
ATOM     11  C   UNL     1       4.559   5.628  18.785  0.00  0.00    +0.000 C 
BRANCH  11  13
ATOM     12  C   UNL     1       2.817   7.317  18.412  0.00  0.00    +0.000 C 
ATOM     13  N   UNL     1       3.147   5.890  18.388  0.00  0.00    +0.000 NA
BRANCH  13  14
ATOM     14  C   UNL     1       2.191   5.037  19.144  0.00  0.00    +0.000 C 
ATOM     15  C   UNL     1       2.769   4.560  20.500  0.00  0.00    +0.000 C 
ATOM     16  C   UNL     1       1.792   3.669  21.269  0.00  0.00    +0.000 C 
ATOM     17  C   UNL     1       1.366   2.473  20.426  0.00  0.00    +0.000 C 
ATOM     18  C   UNL     1       0.711   2.936  19.134  0.00  0.00    +0.000 C 
ATOM     19  C   UNL     1       1.635   3.848  18.330  0.00  0.00    +0.000 C 
ENDBRANCH  13  14
ENDBRANCH  11  13
ENDBRANCH   5  11
ENDBRANCH   1  10
BRANCH   2  20
ATOM     20  C   UNL     1       8.607   8.510  18.737  0.00  0.00    +0.000 C 
BRANCH  20  21
ATOM     21  C   UNL     1       8.685   9.990  18.375  0.00  0.00    +0.000 C 
BRANCH  21  22
ATOM     22  C   UNL     1       9.600  10.775  19.275  0.00  0.00    +0.000 A 
ATOM     23  C   UNL     1       9.284  11.154  20.553  0.00  0.00    +0.000 A 
ATOM     24  N   UNL     1      10.453  11.648  21.117  0.00  0.00    +0.000 N 
ATOM     25  C   UNL     1      11.000  12.360  20.066  0.00  0.00    +0.000 A 
ATOM     26  C   UNL     1      11.623  13.600  20.038  0.00  0.00    +0.000 A 
ATOM     27  C   UNL     1      12.124  13.998  18.802  0.00  0.00    +0.000 A 
ATOM     28  C   UNL     1      12.128  13.119  17.714  0.00  0.00    +0.000 A 
ATOM     29  C   UNL     1      11.472  11.875  17.769  0.00  0.00    +0.000 A 
ATOM     30  C   UNL     1      10.762  11.566  18.943  0.00  0.00    +0.000 A 
ATOM     31  H   UNL     1      11.049  11.030  21.639  0.00  0.00    +0.000 HD
ENDBRANCH  21  22
ENDBRANCH  20  21
ENDBRANCH   2  20
TORSDOF 7
ENDMDL
MODEL 3
REMARK VINA RESULT:      -9.0      4.466      7.170
REMARK  Name = 
REMARK  8 active torsions:
REMARK  status: ('A' for Active; 'I' for Inactive)
REMARK    1  A    between atoms: C_1  and  N_2
REMARK    2  A    between atoms: N_2  and  C_3
REMARK    3  A    between atoms: N_2  and  C_24
REMARK    4  A    between atoms: C_3  and  C_4
REMARK    5  A    between atoms: C_9  and  N_10
REMARK    6  A    between atoms: C_11  and  C_13
REMARK    7  A    between atoms: C_13  and  C_14
REMARK    8  A    between atoms: C_14  and  C_15
REMARK                            x       y       z     vdW  Elec       q    Type
REMARK                         _______ _______ _______ _____ _____    ______ ____
ROOT
ATOM      1  N   UNL     1       3.893   7.334  17.248  0.00  0.00    +0.000 N 
ATOM      2  C   UNL     1       2.899   7.455  18.214  0.00  0.00    +0.000 C 
ATOM      3  O   UNL     1       2.952   6.991  19.351  0.00  0.00    +0.000 OA
ATOM      4  H   UNL     1       3.807   7.925  16.429  0.00  0.00    +0.000 HD
ENDROOT
BRANCH   1  10
ATOM      5  C   UNL     1       5.064   5.123  17.287  0.00  0.00    +0.000 A 
ATOM      6  C   UNL     1       6.272   4.400  17.475  0.00  0.00    +0.000 A 
ATOM      7  C   UNL     1       7.482   5.057  17.689  0.00  0.00    +0.000 A 
ATOM      8  C   UNL     1       7.513   6.443  17.709  0.00  0.00    +0.000 A 
ATOM      9  C   UNL     1       6.326   7.170  17.565  0.00  0.00    +0.000 A 
ATOM     10  C   UNL     1       5.086   6.539  17.356  0.00  0.00    +0.000 A 
BRANCH   5  11
ATOM     11  C   UNL     1       3.868   4.276  16.950  0.00  0.00    +0.000 C 
BRANCH  11  13
ATOM     12  C   UNL     1       2.987   1.995  17.163  0.00  0.00    +0.000 C 
ATOM     13  N   UNL     1       3.671   3.099  17.842  0.00  0.00    +0.000 NA
BRANCH  13  14
ATOM     14  C   UNL     1       3.057   3.482  19.141  0.00  0.00    +0.000 C 
ATOM     15  C   UNL     1       3.358   2.457  20.263  0.00  0.00    +0.000 C 
ATOM     16  C   UNL     1       2.711   2.844  21.594  0.00  0.00    +0.000 C 
ATOM     17  C   UNL     1       1.207   3.027  21.436  0.00  0.00    +0.000 C 
ATOM     18  C   UNL     1       0.905   4.100  20.402  0.00  0.00    +0.000 C 
ATOM     19  C   UNL     1       1.543   3.778  19.053  0.00  0.00    +0.000 C 
ENDBRANCH  13  14
ENDBRANCH  11  13
ENDBRANCH   5  11
ENDBRANCH   1  10
BRANCH   2  20
ATOM     20  C   UNL     1       1.674   8.274  17.825  0.00  0.00    +0.000 C 
BRANCH  20  21
ATOM     21  C   UNL     1       1.813   9.752  18.178  0.00  0.00    +0.000 C 
BRANCH  21  22
ATOM     22  C   UNL     1       0.644  10.290  18.957  0.00  0.00    +0.000 A 
ATOM     23  C   UNL     1       0.071  11.514  18.738  0.00  0.00    +0.000 A 
ATOM     24  N   UNL     1      -1.099  11.541  19.487  0.00  0.00    +0.000 N 
ATOM     25  C   UNL     1      -0.705  10.917  20.656  0.00  0.00    +0.000 A 
ATOM     26  C   UNL     1      -0.981  11.217  21.983  0.00  0.00    +0.000 A 
ATOM     27  C   UNL     1      -0.471  10.328  22.924  0.00  0.00    +0.000 A 
ATOM     28  C   UNL     1       0.138   9.135  22.525  0.00  0.00    +0.000 A 
ATOM     29  C   UNL     1       0.421   8.867  21.172  0.00  0.00    +0.000 A 
ATOM     30  C   UNL     1       0.117   9.869  20.235  0.00  0.00    +0.000 A 
ATOM     31  H   UNL     1      -1.964  11.260  19.062  0.00  0.00    +0.000 HD
ENDBRANCH  21  22
ENDBRANCH  20  21
ENDBRANCH   2  20
TORSDOF 7
ENDMDL
MODEL 4
REMARK VINA RESULT:      -9.0      0.696      1.180
REMARK  Name = 
REMARK  8 active torsions:
REMARK  status: ('A' for Active; 'I' for Inactive)
REMARK    1  A    between atoms: C_1  and  N_2
REMARK    2  A    between atoms: N_2  and  C_3
REMARK    3  A    between atoms: N_2  and  C_24
REMARK    4  A    between atoms: C_3  and  C_4
REMARK    5  A    between atoms: C_9  and  N_10
REMARK    6  A    between atoms: C_11  and  C_13
REMARK    7  A    between atoms: C_13  and  C_14
REMARK    8  A    between atoms: C_14  and  C_15
REMARK                            x       y       z     vdW  Elec       q    Type
REMARK                         _______ _______ _______ _____ _____    ______ ____
ROOT
ATOM      1  N   UNL     1       7.613   6.529  17.454  0.00  0.00    +0.000 N 
ATOM      2  C   UNL     1       7.526   7.915  17.554  0.00  0.00    +0.000 C 
ATOM      3  O   UNL     1       6.691   8.618  16.989  0.00  0.00    +0.000 OA
ATOM      4  H   UNL     1       8.217   6.062  18.120  0.00  0.00    +0.000 HD
ENDROOT
BRANCH   1  10
ATOM      5  C   UNL     1       5.475   5.396  16.817  0.00  0.00    +0.000 A 
ATOM      6  C   UNL     1       4.795   4.505  15.945  0.00  0.00    +0.000 A 
ATOM      7  C   UNL     1       5.433   3.949  14.837  0.00  0.00    +0.000 A 
ATOM      8  C   UNL     1       6.754   4.278  14.573  0.00  0.00    +0.000 A 
ATOM      9  C   UNL     1       7.450   5.122  15.444  0.00  0.00    +0.000 A 
ATOM     10  C   UNL     1       6.840   5.694  16.575  0.00  0.00    +0.000 A 
BRANCH   5  11
ATOM     11  C   UNL     1       4.619   6.001  17.894  0.00  0.00    +0.000 C 
BRANCH  11  13
ATOM     12  C   UNL     1       5.549   4.194  19.270  0.00  0.00    +0.000 C 
ATOM     13  N   UNL     1       4.450   5.148  19.105  0.00  0.00    +0.000 NA
BRANCH  13  14
ATOM     14  C   UNL     1       3.099   4.529  19.164  0.00  0.00    +0.000 C 
ATOM     15  C   UNL     1       2.327   4.916  20.450  0.00  0.00    +0.000 C 
ATOM     16  C   UNL     1       0.945   4.265  20.517  0.00  0.00    +0.000 C 
ATOM     17  C   UNL     1       1.050   2.749  20.401  0.00  0.00    +0.000 C 
ATOM     18  C   UNL     1       1.724   2.359  19.095  0.00  0.00    +0.000 C 
ATOM     19  C   UNL     1       3.104   2.997  18.961  0.00  0.00    +0.000 C 
ENDBRANCH  13  14
ENDBRANCH  11  13
ENDBRANCH   5  11
ENDBRANCH   1  10
BRANCH   2  20
ATOM     20  C   UNL     1       8.527   8.590  18.484  0.00  0.00    +0.000 C 
BRANCH  20  21
ATOM     21  C   UNL     1       8.822  10.034  18.090  0.00  0.00    +0.000 C 
BRANCH  21  22
ATOM     22  C   UNL     1       9.632  10.777  19.117  0.00  0.00    +0.000 A 
ATOM     23  C   UNL     1       9.186  11.083  20.375  0.00  0.00    +0.000 A 
ATOM     24  N   UNL     1      10.287  11.556  21.078  0.00  0.00    +0.000 N 
ATOM     25  C   UNL     1      10.924  12.330  20.126  0.00  0.00    +0.000 A 
ATOM     26  C   UNL     1      11.528  13.576  20.225  0.00  0.00    +0.000 A 
ATOM     27  C   UNL     1      12.143  14.045  19.068  0.00  0.00    +0.000 A 
ATOM     28  C   UNL     1      12.266  13.226  17.941  0.00  0.00    +0.000 A 
ATOM     29  C   UNL     1      11.627  11.975  17.864  0.00  0.00    +0.000 A 
ATOM     30  C   UNL     1      10.809  11.596  18.943  0.00  0.00    +0.000 A 
ATOM     31  H   UNL     1      10.837  10.916  21.622  0.00  0.00    +0.000 HD
ENDBRANCH  21  22
ENDBRANCH  20  21
ENDBRANCH   2  20
TORSDOF 7
ENDMDL
MODEL 5
REMARK VINA RESULT:      -8.9      1.302      1.476
REMARK  Name = 
REMARK  8 active torsions:
REMARK  status: ('A' for Active; 'I' for Inactive)
REMARK    1  A    between atoms: C_1  and  N_2
REMARK    2  A    between atoms: N_2  and  C_3
REMARK    3  A    between atoms: N_2  and  C_24
REMARK    4  A    between atoms: C_3  and  C_4
REMARK    5  A    between atoms: C_9  and  N_10
REMARK    6  A    between atoms: C_11  and  C_13
REMARK    7  A    between atoms: C_13  and  C_14
REMARK    8  A    between atoms: C_14  and  C_15
REMARK                            x       y       z     vdW  Elec       q    Type
REMARK                         _______ _______ _______ _____ _____    ______ ____
ROOT
ATOM      1  N   UNL     1       7.337   7.335  17.033  0.00  0.00    +0.000 N 
ATOM      2  C   UNL     1       7.993   7.377  18.259  0.00  0.00    +0.000 C 
ATOM      3  O   UNL     1       8.210   6.408  18.984  0.00  0.00    +0.000 OA
ATOM      4  H   UNL     1       7.399   8.164  16.454  0.00  0.00    +0.000 HD
ENDROOT
BRANCH   1  10
ATOM      5  C   UNL     1       5.476   5.664  16.992  0.00  0.00    +0.000 A 
ATOM      6  C   UNL     1       4.924   4.486  16.422  0.00  0.00    +0.000 A 
ATOM      7  C   UNL     1       5.524   3.860  15.330  0.00  0.00    +0.000 A 
ATOM      8  C   UNL     1       6.677   4.401  14.782  0.00  0.00    +0.000 A 
ATOM      9  C   UNL     1       7.256   5.538  15.356  0.00  0.00    +0.000 A 
ATOM     10  C   UNL     1       6.681   6.189  16.463  0.00  0.00    +0.000 A 
BRANCH   5  11
ATOM     11  C   UNL     1       4.649   6.283  18.084  0.00  0.00    +0.000 C 
BRANCH  11  13
ATOM     12  C   UNL     1       2.406   7.273  18.196  0.00  0.00    +0.000 C 
ATOM     13  N   UNL     1       3.182   6.054  17.957  0.00  0.00    +0.000 NA
BRANCH  13  14
ATOM     14  C   UNL     1       2.731   4.885  18.759  0.00  0.00    +0.000 C 
ATOM     15  C   UNL     1       1.594   4.095  18.064  0.00  0.00    +0.000 C 
ATOM     16  C   UNL     1       1.119   2.903  18.897  0.00  0.00    +0.000 C 
ATOM     17  C   UNL     1       0.680   3.349  20.286  0.00  0.00    +0.000 C 
ATOM     18  C   UNL     1       1.823   4.043  21.010  0.00  0.00    +0.000 C 
ATOM     19  C   UNL     1       2.353   5.234  20.216  0.00  0.00    +0.000 C 
ENDBRANCH  13  14
ENDBRANCH  11  13
ENDBRANCH   5  11
ENDBRANCH   1  10
BRANCH   2  20
ATOM     20  C   UNL     1       8.520   8.738  18.698  0.00  0.00    +0.000 C 
BRANCH  20  21
ATOM     21  C   UNL     1       8.484   9.776  17.580  0.00  0.00    +0.000 C 
BRANCH  21  22
ATOM     22  C   UNL     1       8.739  11.179  18.062  0.00  0.00    +0.000 A 
ATOM     23  C   UNL     1       8.209  12.300  17.482  0.00  0.00    +0.000 A 
ATOM     24  N   UNL     1       8.487  13.356  18.341  0.00  0.00    +0.000 N 
ATOM     25  C   UNL     1       9.776  13.064  18.746  0.00  0.00    +0.000 A 
ATOM     26  C   UNL     1      10.882  13.886  18.919  0.00  0.00    +0.000 A 
ATOM     27  C   UNL     1      12.027  13.266  19.408  0.00  0.00    +0.000 A 
ATOM     28  C   UNL     1      11.993  11.936  19.839  0.00  0.00    +0.000 A 
ATOM     29  C   UNL     1      10.863  11.123  19.633  0.00  0.00    +0.000 A 
ATOM     30  C   UNL     1       9.782  11.679  18.927  0.00  0.00    +0.000 A 
ATOM     31  H   UNL     1       7.814  13.616  19.039  0.00  0.00    +0.000 HD
ENDBRANCH  21  22
ENDBRANCH  20  21
ENDBRANCH   2  20
TORSDOF 7
ENDMDL
MODEL 6
REMARK VINA RESULT:      -8.6      1.712      2.006
REMARK  Name = 
REMARK  8 active torsions:
REMARK  status: ('A' for Active; 'I' for Inactive)
REMARK    1  A    between atoms: C_1  and  N_2
REMARK    2  A    between atoms: N_2  and  C_3
REMARK    3  A    between atoms: N_2  and  C_24
REMARK    4  A    between atoms: C_3  and  C_4
REMARK    5  A    between atoms: C_9  and  N_10
REMARK    6  A    between atoms: C_11  and  C_13
REMARK    7  A    between atoms: C_13  and  C_14
REMARK    8  A    between atoms: C_14  and  C_15
REMARK                            x       y       z     vdW  Elec       q    Type
REMARK                         _______ _______ _______ _____ _____    ______ ____
ROOT
ATOM      1  N   UNL     1       6.677   7.398  16.531  0.00  0.00    +0.000 N 
ATOM      2  C   UNL     1       7.518   7.750  17.582  0.00  0.00    +0.000 C 
ATOM      3  O   UNL     1       8.140   6.961  18.290  0.00  0.00    +0.000 OA
ATOM      4  H   UNL     1       6.385   8.146  15.912  0.00  0.00    +0.000 HD
ENDROOT
BRANCH   1  10
ATOM      5  C   UNL     1       5.173   5.414  16.778  0.00  0.00    +0.000 A 
ATOM      6  C   UNL     1       4.884   4.068  16.430  0.00  0.00    +0.000 A 
ATOM      7  C   UNL     1       5.644   3.388  15.479  0.00  0.00    +0.000 A 
ATOM      8  C   UNL     1       6.696   4.038  14.853  0.00  0.00    +0.000 A 
ATOM      9  C   UNL     1       7.020   5.350  15.214  0.00  0.00    +0.000 A 
ATOM     10  C   UNL     1       6.280   6.063  16.175  0.00  0.00    +0.000 A 
BRANCH   5  11
ATOM     11  C   UNL     1       4.193   6.044  17.728  0.00  0.00    +0.000 C 
BRANCH  11  13
ATOM     12  C   UNL     1       5.640   5.192  19.518  0.00  0.00    +0.000 C 
ATOM     13  N   UNL     1       4.271   5.536  19.127  0.00  0.00    +0.000 NA
BRANCH  13  14
ATOM     14  C   UNL     1       3.281   4.455  19.382  0.00  0.00    +0.000 C 
ATOM     15  C   UNL     1       2.079   4.513  18.407  0.00  0.00    +0.000 C 
ATOM     16  C   UNL     1       1.053   3.412  18.681  0.00  0.00    +0.000 C 
ATOM     17  C   UNL     1       0.566   3.467  20.123  0.00  0.00    +0.000 C 
ATOM     18  C   UNL     1       1.733   3.315  21.087  0.00  0.00    +0.000 C 
ATOM     19  C   UNL     1       2.802   4.379  20.849  0.00  0.00    +0.000 C 
ENDBRANCH  13  14
ENDBRANCH  11  13
ENDBRANCH   5  11
ENDBRANCH   1  10
BRANCH   2  20
ATOM     20  C   UNL     1       7.707   9.242  17.827  0.00  0.00    +0.000 C 
BRANCH  20  21
ATOM     21  C   UNL     1       8.866   9.546  18.772  0.00  0.00    +0.000 C 
BRANCH  21  22
ATOM     22  C   UNL     1       9.561  10.844  18.464  0.00  0.00    +0.000 A 
ATOM     23  C   UNL     1      10.770  11.214  18.989  0.00  0.00    +0.000 A 
ATOM     24  N   UNL     1      11.170  12.348  18.295  0.00  0.00    +0.000 N 
ATOM     25  C   UNL     1       9.982  13.043  18.170  0.00  0.00    +0.000 A 
ATOM     26  C   UNL     1       9.702  14.395  18.311  0.00  0.00    +0.000 A 
ATOM     27  C   UNL     1       8.389  14.773  18.048  0.00  0.00    +0.000 A 
ATOM     28  C   UNL     1       7.472  13.856  17.524  0.00  0.00    +0.000 A 
ATOM     29  C   UNL     1       7.779  12.487  17.411  0.00  0.00    +0.000 A 
ATOM     30  C   UNL     1       9.028  12.061  17.895  0.00  0.00    +0.000 A 
ATOM     31  H   UNL     1      11.755  12.250  17.484  0.00  0.00    +0.000 HD
ENDBRANCH  21  22
ENDBRANCH  20  21
ENDBRANCH   2  20
TORSDOF 7
ENDMDL
MODEL 7
REMARK VINA RESULT:      -8.5      4.495      7.723
REMARK  Name = 
REMARK  8 active torsions:
REMARK  status: ('A' for Active; 'I' for Inactive)
REMARK    1  A    between atoms: C_1  and  N_2
REMARK    2  A    between atoms: N_2  and  C_3
REMARK    3  A    between atoms: N_2  and  C_24
REMARK    4  A    between atoms: C_3  and  C_4
REMARK    5  A    between atoms: C_9  and  N_10
REMARK    6  A    between atoms: C_11  and  C_13
REMARK    7  A    between atoms: C_13  and  C_14
REMARK    8  A    between atoms: C_14  and  C_15
REMARK                            x       y       z     vdW  Elec       q    Type
REMARK                         _______ _______ _______ _____ _____    ______ ____
ROOT
ATOM      1  N   UNL     1       3.939   7.472  17.257  0.00  0.00    +0.000 N 
ATOM      2  C   UNL     1       2.970   7.585  18.249  0.00  0.00    +0.000 C 
ATOM      3  O   UNL     1       3.016   7.047  19.353  0.00  0.00    +0.000 OA
ATOM      4  H   UNL     1       3.871   8.118  16.479  0.00  0.00    +0.000 HD
ENDROOT
BRANCH   1  10
ATOM      5  C   UNL     1       4.977   5.197  17.222  0.00  0.00    +0.000 A 
ATOM      6  C   UNL     1       6.150   4.403  17.333  0.00  0.00    +0.000 A 
ATOM      7  C   UNL     1       7.408   4.988  17.470  0.00  0.00    +0.000 A 
ATOM      8  C   UNL     1       7.522   6.369  17.488  0.00  0.00    +0.000 A 
ATOM      9  C   UNL     1       6.373   7.165  17.419  0.00  0.00    +0.000 A 
ATOM     10  C   UNL     1       5.087   6.608  17.290  0.00  0.00    +0.000 A 
BRANCH   5  11
ATOM     11  C   UNL     1       3.715   4.423  16.962  0.00  0.00    +0.000 C 
BRANCH  11  13
ATOM     12  C   UNL     1       2.822   2.140  17.105  0.00  0.00    +0.000 C 
ATOM     13  N   UNL     1       3.551   3.203  17.803  0.00  0.00    +0.000 NA
BRANCH  13  14
ATOM     14  C   UNL     1       3.005   3.526  19.149  0.00  0.00    +0.000 C 
ATOM     15  C   UNL     1       3.292   2.411  20.185  0.00  0.00    +0.000 C 
ATOM     16  C   UNL     1       2.716   2.736  21.565  0.00  0.00    +0.000 C 
ATOM     17  C   UNL     1       1.219   3.006  21.480  0.00  0.00    +0.000 C 
ATOM     18  C   UNL     1       0.937   4.162  20.534  0.00  0.00    +0.000 C 
ATOM     19  C   UNL     1       1.507   3.903  19.142  0.00  0.00    +0.000 C 
ENDBRANCH  13  14
ENDBRANCH  11  13
ENDBRANCH   5  11
ENDBRANCH   1  10
BRANCH   2  20
ATOM     20  C   UNL     1       1.786   8.493  17.939  0.00  0.00    +0.000 C 
BRANCH  20  21
ATOM     21  C   UNL     1       1.117   9.044  19.194  0.00  0.00    +0.000 C 
BRANCH  21  22
ATOM     22  C   UNL     1       0.287  10.273  18.935  0.00  0.00    +0.000 A 
ATOM     23  C   UNL     1       0.320  11.401  19.711  0.00  0.00    +0.000 A 
ATOM     24  N   UNL     1      -0.398  12.371  19.024  0.00  0.00    +0.000 N 
ATOM     25  C   UNL     1      -1.460  11.642  18.523  0.00  0.00    +0.000 A 
ATOM     26  C   UNL     1      -2.812  11.947  18.439  0.00  0.00    +0.000 A 
ATOM     27  C   UNL     1      -3.610  10.998  17.808  0.00  0.00    +0.000 A 
ATOM     28  C   UNL     1      -3.037   9.893  17.169  0.00  0.00    +0.000 A 
ATOM     29  C   UNL     1      -1.666   9.600  17.288  0.00  0.00    +0.000 A 
ATOM     30  C   UNL     1      -0.895  10.430  18.120  0.00  0.00    +0.000 A 
ATOM     31  H   UNL     1       0.085  12.999  18.406  0.00  0.00    +0.000 HD
ENDBRANCH  21  22
ENDBRANCH  20  21
ENDBRANCH   2  20
TORSDOF 7
ENDMDL
MODEL 8
REMARK VINA RESULT:      -8.5      1.710      2.009
REMARK  Name = 
REMARK  8 active torsions:
REMARK  status: ('A' for Active; 'I' for Inactive)
REMARK    1  A    between atoms: C_1  and  N_2
REMARK    2  A    between atoms: N_2  and  C_3
REMARK    3  A    between atoms: N_2  and  C_24
REMARK    4  A    between atoms: C_3  and  C_4
REMARK    5  A    between atoms: C_9  and  N_10
REMARK    6  A    between atoms: C_11  and  C_13
REMARK    7  A    between atoms: C_13  and  C_14
REMARK    8  A    between atoms: C_14  and  C_15
REMARK                            x       y       z     vdW  Elec       q    Type
REMARK                         _______ _______ _______ _____ _____    ______ ____
ROOT
ATOM      1  N   UNL     1       6.819   7.389  16.637  0.00  0.00    +0.000 N 
ATOM      2  C   UNL     1       7.649   7.755  17.693  0.00  0.00    +0.000 C 
ATOM      3  O   UNL     1       8.244   6.975  18.433  0.00  0.00    +0.000 OA
ATOM      4  H   UNL     1       6.551   8.124  15.993  0.00  0.00    +0.000 HD
ENDROOT
BRANCH   1  10
ATOM      5  C   UNL     1       5.546   5.298  17.152  0.00  0.00    +0.000 A 
ATOM      6  C   UNL     1       5.236   3.956  16.802  0.00  0.00    +0.000 A 
ATOM      7  C   UNL     1       5.728   3.382  15.630  0.00  0.00    +0.000 A 
ATOM      8  C   UNL     1       6.527   4.135  14.784  0.00  0.00    +0.000 A 
ATOM      9  C   UNL     1       6.875   5.445  15.133  0.00  0.00    +0.000 A 
ATOM     10  C   UNL     1       6.403   6.052  16.312  0.00  0.00    +0.000 A 
BRANCH   5  11
ATOM     11  C   UNL     1       4.845   5.807  18.380  0.00  0.00    +0.000 C 
BRANCH  11  13
ATOM     12  C   UNL     1       2.627   6.836  18.164  0.00  0.00    +0.000 C 
ATOM     13  N   UNL     1       3.370   5.593  18.387  0.00  0.00    +0.000 NA
BRANCH  13  14
ATOM     14  C   UNL     1       2.925   4.830  19.583  0.00  0.00    +0.000 C 
ATOM     15  C   UNL     1       3.698   3.499  19.757  0.00  0.00    +0.000 C 
ATOM     16  C   UNL     1       3.227   2.707  20.978  0.00  0.00    +0.000 C 
ATOM     17  C   UNL     1       1.728   2.442  20.911  0.00  0.00    +0.000 C 
ATOM     18  C   UNL     1       0.958   3.751  20.835  0.00  0.00    +0.000 C 
ATOM     19  C   UNL     1       1.399   4.596  19.643  0.00  0.00    +0.000 C 
ENDBRANCH  13  14
ENDBRANCH  11  13
ENDBRANCH   5  11
ENDBRANCH   1  10
BRANCH   2  20
ATOM     20  C   UNL     1       7.861   9.249  17.900  0.00  0.00    +0.000 C 
BRANCH  20  21
ATOM     21  C   UNL     1       9.013   9.558  18.851  0.00  0.00    +0.000 C 
BRANCH  21  22
ATOM     22  C   UNL     1       9.656  10.894  18.593  0.00  0.00    +0.000 A 
ATOM     23  C   UNL     1      10.799  11.330  19.208  0.00  0.00    +0.000 A 
ATOM     24  N   UNL     1      11.187  12.486  18.544  0.00  0.00    +0.000 N 
ATOM     25  C   UNL     1       9.975  13.113  18.327  0.00  0.00    +0.000 A 
ATOM     26  C   UNL     1       9.610  14.448  18.442  0.00  0.00    +0.000 A 
ATOM     27  C   UNL     1       8.301  14.752  18.078  0.00  0.00    +0.000 A 
ATOM     28  C   UNL     1       7.479  13.786  17.489  0.00  0.00    +0.000 A 
ATOM     29  C   UNL     1       7.871  12.437  17.403  0.00  0.00    +0.000 A 
ATOM     30  C   UNL     1       9.101  12.080  17.982  0.00  0.00    +0.000 A 
ATOM     31  H   UNL     1      11.836  12.422  17.780  0.00  0.00    +0.000 HD
ENDBRANCH  21  22
ENDBRANCH  20  21
ENDBRANCH   2  20
TORSDOF 7
ENDMDL
MODEL 9
REMARK VINA RESULT:      -8.4      1.389      2.100
REMARK  Name = 
REMARK  8 active torsions:
REMARK  status: ('A' for Active; 'I' for Inactive)
REMARK    1  A    between atoms: C_1  and  N_2
REMARK    2  A    between atoms: N_2  and  C_3
REMARK    3  A    between atoms: N_2  and  C_24
REMARK    4  A    between atoms: C_3  and  C_4
REMARK    5  A    between atoms: C_9  and  N_10
REMARK    6  A    between atoms: C_11  and  C_13
REMARK    7  A    between atoms: C_13  and  C_14
REMARK    8  A    between atoms: C_14  and  C_15
REMARK                            x       y       z     vdW  Elec       q    Type
REMARK                         _______ _______ _______ _____ _____    ______ ____
ROOT
ATOM      1  N   UNL     1       6.646   7.400  16.639  0.00  0.00    +0.000 N 
ATOM      2  C   UNL     1       7.550   7.737  17.641  0.00  0.00    +0.000 C 
ATOM      3  O   UNL     1       8.224   6.939  18.290  0.00  0.00    +0.000 OA
ATOM      4  H   UNL     1       6.308   8.157  16.057  0.00  0.00    +0.000 HD
ENDROOT
BRANCH   1  10
ATOM      5  C   UNL     1       5.136   5.421  16.894  0.00  0.00    +0.000 A 
ATOM      6  C   UNL     1       4.836   4.078  16.541  0.00  0.00    +0.000 A 
ATOM      7  C   UNL     1       5.581   3.401  15.576  0.00  0.00    +0.000 A 
ATOM      8  C   UNL     1       6.628   4.050  14.941  0.00  0.00    +0.000 A 
ATOM      9  C   UNL     1       6.962   5.358  15.306  0.00  0.00    +0.000 A 
ATOM     10  C   UNL     1       6.238   6.069  16.280  0.00  0.00    +0.000 A 
BRANCH   5  11
ATOM     11  C   UNL     1       4.171   6.049  17.860  0.00  0.00    +0.000 C 
BRANCH  11  13
ATOM     12  C   UNL     1       5.716   5.128  19.529  0.00  0.00    +0.000 C 
ATOM     13  N   UNL     1       4.371   5.654  19.283  0.00  0.00    +0.000 NA
BRANCH  13  14
ATOM     14  C   UNL     1       3.279   4.771  19.772  0.00  0.00    +0.000 C 
ATOM     15  C   UNL     1       3.769   3.331  20.064  0.00  0.00    +0.000 C 
ATOM     16  C   UNL     1       2.641   2.419  20.552  0.00  0.00    +0.000 C 
ATOM     17  C   UNL     1       1.491   2.393  19.553  0.00  0.00    +0.000 C 
ATOM     18  C   UNL     1       0.943   3.794  19.333  0.00  0.00    +0.000 C 
ATOM     19  C   UNL     1       2.030   4.757  18.862  0.00  0.00    +0.000 C 
ENDBRANCH  13  14
ENDBRANCH  11  13
ENDBRANCH   5  11
ENDBRANCH   1  10
BRANCH   2  20
ATOM     20  C   UNL     1       7.742   9.226  17.906  0.00  0.00    +0.000 C 
BRANCH  20  21
ATOM     21  C   UNL     1       8.967   9.522  18.766  0.00  0.00    +0.000 C 
BRANCH  21  22
ATOM     22  C   UNL     1       9.470  10.932  18.620  0.00  0.00    +0.000 A 
ATOM     23  C   UNL     1      10.421  11.320  17.714  0.00  0.00    +0.000 A 
ATOM     24  N   UNL     1      10.441  12.709  17.735  0.00  0.00    +0.000 N 
ATOM     25  C   UNL     1      10.305  12.978  19.084  0.00  0.00    +0.000 A 
ATOM     26  C   UNL     1      10.941  13.912  19.891  0.00  0.00    +0.000 A 
ATOM     27  C   UNL     1      10.513  13.959  21.214  0.00  0.00    +0.000 A 
ATOM     28  C   UNL     1       9.405  13.217  21.635  0.00  0.00    +0.000 A 
ATOM     29  C   UNL     1       8.793  12.265  20.799  0.00  0.00    +0.000 A 
ATOM     30  C   UNL     1       9.370  12.045  19.536  0.00  0.00    +0.000 A 
ATOM     31  H   UNL     1       9.871  13.220  17.085  0.00  0.00    +0.000 HD
ENDBRANCH  21  22
ENDBRANCH  20  21
ENDBRANCH   2  20
TORSDOF 7
ENDMDL
