MODEL 1
REMARK VINA RESULT:      -9.0      0.000      0.000
REMARK  Name = 
REMARK  5 active torsions:
REMARK  status: ('A' for Active; 'I' for Inactive)
REMARK    1  A    between atoms: C_2  and  C_3
REMARK    2  A    between atoms: C_3  and  O_4
REMARK    3  A    between atoms: O_4  and  C_5
REMARK    4  A    between atoms: N_15  and  C_16
REMARK    5  A    between atoms: C_16  and  C_17
REMARK                            x       y       z     vdW  Elec       q    Type
REMARK                         _______ _______ _______ _____ _____    ______ ____
ROOT
ATOM      1  O   UNL     1       7.603   6.800  16.408  0.00  0.00    +0.000 OA
ATOM      2  C   UNL     1       7.577   6.733  17.636  0.00  0.00    +0.000 C 
ATOM      3  N   UNL     1       6.980   5.695  18.305  0.00  0.00    +0.000 N 
ATOM      4  H   UNL     1       6.881   5.705  19.316  0.00  0.00    +0.000 HD
ENDROOT
BRANCH   2   5
ATOM      5  C   UNL     1       8.252   7.766  18.535  0.00  0.00    +0.000 C 
BRANCH   5   6
ATOM      6  O   UNL     1       8.191   9.066  17.964  0.00  0.00    +0.000 OA
BRANCH   6   7
ATOM      7  C   UNL     1       8.975  10.023  18.556  0.00  0.00    +0.000 A 
ATOM      8  C   UNL     1       9.125  10.212  19.930  0.00  0.00    +0.000 A 
ATOM      9  C   UNL     1       9.951  11.228  20.418  0.00  0.00    +0.000 A 
ATOM     10  C   UNL     1      10.644  12.076  19.545  0.00  0.00    +0.000 A 
ATOM     11  C   UNL     1      11.477  13.096  20.029  0.00  0.00    +0.000 A 
ATOM     12  C   UNL     1      12.165  13.933  19.151  0.00  0.00    +0.000 A 
ATOM     13  C   UNL     1      12.025  13.759  17.776  0.00  0.00    +0.000 A 
ATOM     14  C   UNL     1      11.199  12.748  17.280  0.00  0.00    +0.000 A 
ATOM     15  C   UNL     1      10.500  11.895  18.151  0.00  0.00    +0.000 A 
ATOM     16  C   UNL     1       9.661  10.867  17.676  0.00  0.00    +0.000 A 
ENDBRANCH   6   7
ENDBRANCH   5   6
ENDBRANCH   2   5
BRANCH   3  17
ATOM     17  C   UNL     1       6.345   4.608  17.602  0.00  0.00    +0.000 C 
BRANCH  17  18
ATOM     18  C   UNL     1       5.069   4.273  18.296  0.00  0.00    +0.000 A 
ATOM     19  N   UNL     1       3.864   4.729  18.008  0.00  0.00    +0.000 NA
ATOM     20  C   UNL     1       3.021   4.154  18.929  0.00  0.00    +0.000 A 
ATOM     21  C   UNL     1       1.636   4.297  19.089  0.00  0.00    +0.000 A 
ATOM     22  C   UNL     1       1.004   3.597  20.125  0.00  0.00    +0.000 A 
ATOM     23  C   UNL     1       1.737   2.770  20.981  0.00  0.00    +0.000 A 
ATOM     24  C   UNL     1       3.120   2.612  20.832  0.00  0.00    +0.000 A 
ATOM     25  C   UNL     1       3.724   3.323  19.794  0.00  0.00    +0.000 A 
ATOM     26  N   UNL     1       5.025   3.411  19.366  0.00  0.00    +0.000 N 
ATOM     27  H   UNL     1       5.812   2.930  19.774  0.00  0.00    +0.000 HD
ENDBRANCH  17  18
ENDBRANCH   3  17
TORSDOF 5
ENDMDL
MODEL 2
REMARK VINA RESULT:      -8.8      5.779      8.168
REMARK  Name = 
REMARK  5 active torsions:
REMARK  status: ('A' for Active; 'I' for Inactive)
REMARK    1  A    between atoms: C_2  and  C_3
REMARK    2  A    between atoms: C_3  and  O_4
REMARK    3  A    between atoms: O_4  and  C_5
REMARK    4  A    between atoms: N_15  and  C_16
REMARK    5  A    between atoms: C_16  and  C_17
REMARK                            x       y       z     vdW  Elec       q    Type
REMARK                         _______ _______ _______ _____ _____    ______ ____
ROOT
ATOM      1  O   UNL     1       4.953   3.532  19.460  0.00  0.00    +0.000 OA
ATOM      2  C   UNL     1       4.769   4.685  19.077  0.00  0.00    +0.000 C 
ATOM      3  N   UNL     1       5.681   5.358  18.303  0.00  0.00    +0.000 N 
ATOM      4  H   UNL     1       5.560   6.342  18.078  0.00  0.00    +0.000 HD
ENDROOT
BRANCH   2   5
ATOM      5  C   UNL     1       3.491   5.463  19.377  0.00  0.00    +0.000 C 
BRANCH   5   6
ATOM      6  O   UNL     1       3.181   6.373  18.329  0.00  0.00    +0.000 OA
BRANCH   6   7
ATOM      7  C   UNL     1       2.421   7.460  18.678  0.00  0.00    +0.000 A 
ATOM      8  C   UNL     1       2.027   8.483  17.817  0.00  0.00    +0.000 A 
ATOM      9  C   UNL     1       1.254   9.548  18.290  0.00  0.00    +0.000 A 
ATOM     10  C   UNL     1       0.861   9.611  19.632  0.00  0.00    +0.000 A 
ATOM     11  C   UNL     1       0.083  10.676  20.113  0.00  0.00    +0.000 A 
ATOM     12  C   UNL     1      -0.306  10.728  21.451  0.00  0.00    +0.000 A 
ATOM     13  C   UNL     1       0.080   9.716  22.325  0.00  0.00    +0.000 A 
ATOM     14  C   UNL     1       0.856   8.650  21.861  0.00  0.00    +0.000 A 
ATOM     15  C   UNL     1       1.255   8.581  20.515  0.00  0.00    +0.000 A 
ATOM     16  C   UNL     1       2.036   7.517  20.022  0.00  0.00    +0.000 A 
ENDBRANCH   6   7
ENDBRANCH   5   6
ENDBRANCH   2   5
BRANCH   3  17
ATOM     17  C   UNL     1       6.917   4.745  17.885  0.00  0.00    +0.000 C 
BRANCH  17  18
ATOM     18  C   UNL     1       6.905   4.613  16.401  0.00  0.00    +0.000 A 
ATOM     19  N   UNL     1       7.633   5.294  15.535  0.00  0.00    +0.000 NA
ATOM     20  C   UNL     1       7.259   4.835  14.295  0.00  0.00    +0.000 A 
ATOM     21  C   UNL     1       7.709   5.219  13.023  0.00  0.00    +0.000 A 
ATOM     22  C   UNL     1       7.154   4.594  11.899  0.00  0.00    +0.000 A 
ATOM     23  C   UNL     1       6.177   3.605  12.038  0.00  0.00    +0.000 A 
ATOM     24  C   UNL     1       5.720   3.206  13.300  0.00  0.00    +0.000 A 
ATOM     25  C   UNL     1       6.287   3.848  14.404  0.00  0.00    +0.000 A 
ATOM     26  N   UNL     1       6.083   3.720  15.754  0.00  0.00    +0.000 N 
ATOM     27  H   UNL     1       5.435   3.084  16.195  0.00  0.00    +0.000 HD
ENDBRANCH  17  18
ENDBRANCH   3  17
TORSDOF 5
ENDMDL
MODEL 3
REMARK VINA RESULT:      -8.7      1.354      2.051
REMARK  Name = 
REMARK  5 active torsions:
REMARK  status: ('A' for Active; 'I' for Inactive)
REMARK    1  A    between atoms: C_2  and  C_3
REMARK    2  A    between atoms: C_3  and  O_4
REMARK    3  A    between atoms: O_4  and  C_5
REMARK    4  A    between atoms: N_15  and  C_16
REMARK    5  A    between atoms: C_16  and  C_17
REMARK                            x       y       z     vdW  Elec       q    Type
REMARK                         _______ _______ _______ _____ _____    ______ ____
ROOT
ATOM      1  O   UNL     1       7.978   6.242  18.942  0.00  0.00    +0.000 OA
ATOM      2  C   UNL     1       7.800   6.910  17.925  0.00  0.00    +0.000 C 
ATOM      3  N   UNL     1       7.375   6.355  16.744  0.00  0.00    +0.000 N 
ATOM      4  H   UNL     1       7.329   6.903  15.890  0.00  0.00    +0.000 HD
ENDROOT
BRANCH   2   5
ATOM      5  C   UNL     1       7.982   8.425  17.888  0.00  0.00    +0.000 C 
BRANCH   5   6
ATOM      6  O   UNL     1       8.776   8.877  18.977  0.00  0.00    +0.000 OA
BRANCH   6   7
ATOM      7  C   UNL     1       9.152  10.196  18.944  0.00  0.00    +0.000 A 
ATOM      8  C   UNL     1       9.426  10.931  17.791  0.00  0.00    +0.000 A 
ATOM      9  C   UNL     1       9.808  12.273  17.882  0.00  0.00    +0.000 A 
ATOM     10  C   UNL     1       9.922  12.906  19.126  0.00  0.00    +0.000 A 
ATOM     11  C   UNL     1      10.302  14.254  19.223  0.00  0.00    +0.000 A 
ATOM     12  C   UNL     1      10.410  14.877  20.467  0.00  0.00    +0.000 A 
ATOM     13  C   UNL     1      10.140  14.157  21.627  0.00  0.00    +0.000 A 
ATOM     14  C   UNL     1       9.762  12.814  21.546  0.00  0.00    +0.000 A 
ATOM     15  C   UNL     1       9.647  12.172  20.301  0.00  0.00    +0.000 A 
ATOM     16  C   UNL     1       9.267  10.819  20.191  0.00  0.00    +0.000 A 
ENDBRANCH   6   7
ENDBRANCH   5   6
ENDBRANCH   2   5
BRANCH   3  17
ATOM     17  C   UNL     1       7.104   4.945  16.626  0.00  0.00    +0.000 C 
BRANCH  17  18
ATOM     18  C   UNL     1       5.790   4.657  17.266  0.00  0.00    +0.000 A 
ATOM     19  N   UNL     1       4.599   5.048  16.849  0.00  0.00    +0.000 NA
ATOM     20  C   UNL     1       3.705   4.557  17.769  0.00  0.00    +0.000 A 
ATOM     21  C   UNL     1       2.309   4.682  17.819  0.00  0.00    +0.000 A 
ATOM     22  C   UNL     1       1.620   4.087  18.883  0.00  0.00    +0.000 A 
ATOM     23  C   UNL     1       2.306   3.379  19.874  0.00  0.00    +0.000 A 
ATOM     24  C   UNL     1       3.698   3.240  19.837  0.00  0.00    +0.000 A 
ATOM     25  C   UNL     1       4.361   3.847  18.768  0.00  0.00    +0.000 A 
ATOM     26  N   UNL     1       5.686   3.919  18.421  0.00  0.00    +0.000 N 
ATOM     27  H   UNL     1       6.452   3.507  18.932  0.00  0.00    +0.000 HD
ENDBRANCH  17  18
ENDBRANCH   3  17
TORSDOF 5
ENDMDL
MODEL 4
REMARK VINA RESULT:      -8.6      1.281      1.477
REMARK  Name = 
REMARK  5 active torsions:
REMARK  status: ('A' for Active; 'I' for Inactive)
REMARK    1  A    between atoms: C_2  and  C_3
REMARK    2  A    between atoms: C_3  and  O_4
REMARK    3  A    between atoms: O_4  and  C_5
REMARK    4  A    between atoms: N_15  and  C_16
REMARK    5  A    between atoms: C_16  and  C_17
REMARK                            x       y       z     vdW  Elec       q    Type
REMARK                         _______ _______ _______ _____ _____    ______ ____
ROOT
ATOM      1  O   UNL     1       7.949   6.413  18.780  0.00  0.00    +0.000 OA
ATOM      2  C   UNL     1       7.842   7.219  17.858  0.00  0.00    +0.000 C 
ATOM      3  N   UNL     1       7.434   6.851  16.601  0.00  0.00    +0.000 N 
ATOM      4  H   UNL     1       7.446   7.510  15.827  0.00  0.00    +0.000 HD
ENDROOT
BRANCH   2   5
ATOM      5  C   UNL     1       8.100   8.714  18.032  0.00  0.00    +0.000 C 
BRANCH   5   6
ATOM      6  O   UNL     1       9.016   8.961  19.090  0.00  0.00    +0.000 OA
BRANCH   6   7
ATOM      7  C   UNL     1       9.385  10.269  19.276  0.00  0.00    +0.000 A 
ATOM      8  C   UNL     1       9.333  10.962  20.485  0.00  0.00    +0.000 A 
ATOM      9  C   UNL     1       9.732  12.299  20.551  0.00  0.00    +0.000 A 
ATOM     10  C   UNL     1      10.192  12.971  19.412  0.00  0.00    +0.000 A 
ATOM     11  C   UNL     1      10.597  14.314  19.473  0.00  0.00    +0.000 A 
ATOM     12  C   UNL     1      11.057  14.973  18.333  0.00  0.00    +0.000 A 
ATOM     13  C   UNL     1      11.115  14.296  17.118  0.00  0.00    +0.000 A 
ATOM     14  C   UNL     1      10.713  12.960  17.042  0.00  0.00    +0.000 A 
ATOM     15  C   UNL     1      10.249  12.280  18.181  0.00  0.00    +0.000 A 
ATOM     16  C   UNL     1       9.840  10.933  18.132  0.00  0.00    +0.000 A 
ENDBRANCH   6   7
ENDBRANCH   5   6
ENDBRANCH   2   5
BRANCH   3  17
ATOM     17  C   UNL     1       7.097   5.486  16.285  0.00  0.00    +0.000 C 
BRANCH  17  18
ATOM     18  C   UNL     1       5.846   5.124  17.008  0.00  0.00    +0.000 A 
ATOM     19  N   UNL     1       4.634   5.603  16.790  0.00  0.00    +0.000 NA
ATOM     20  C   UNL     1       3.822   4.987  17.711  0.00  0.00    +0.000 A 
ATOM     21  C   UNL     1       2.444   5.131  17.930  0.00  0.00    +0.000 A 
ATOM     22  C   UNL     1       1.845   4.383  18.952  0.00  0.00    +0.000 A 
ATOM     23  C   UNL     1       2.602   3.507  19.736  0.00  0.00    +0.000 A 
ATOM     24  C   UNL     1       3.977   3.347  19.527  0.00  0.00    +0.000 A 
ATOM     25  C   UNL     1       4.549   4.107  18.504  0.00  0.00    +0.000 A 
ATOM     26  N   UNL     1       5.833   4.208  18.033  0.00  0.00    +0.000 N 
ATOM     27  H   UNL     1       6.631   3.701  18.385  0.00  0.00    +0.000 HD
ENDBRANCH  17  18
ENDBRANCH   3  17
TORSDOF 5
ENDMDL
MODEL 5
REMARK VINA RESULT:      -8.6      1.001      1.547
REMARK  Name = 
REMARK  5 active torsions:
REMARK  status: ('A' for Active; 'I' for Inactive)
REMARK    1  A    between atoms: C_2  and  C_3
REMARK    2  A    between atoms: C_3  and  O_4
REMARK    3  A    between atoms: O_4  and  C_5
REMARK    4  A    between atoms: N_15  and  C_16
REMARK    5  A    between atoms: C_16  and  C_17
REMARK                            x       y       z     vdW  Elec       q    Type
REMARK                         _______ _______ _______ _____ _____    ______ ____
ROOT
ATOM      1  O   UNL     1       6.769   7.468  16.640  0.00  0.00    +0.000 OA
ATOM      2  C   UNL     1       7.499   7.117  17.565  0.00  0.00    +0.000 C 
ATOM      3  N   UNL     1       7.707   5.797  17.878  0.00  0.00    +0.000 N 
ATOM      4  H   UNL     1       8.234   5.527  18.705  0.00  0.00    +0.000 HD
ENDROOT
BRANCH   2   5
ATOM      5  C   UNL     1       8.287   8.106  18.419  0.00  0.00    +0.000 C 
BRANCH   5   6
ATOM      6  O   UNL     1       8.284   9.405  17.841  0.00  0.00    +0.000 OA
BRANCH   6   7
ATOM      7  C   UNL     1       8.925  10.385  18.554  0.00  0.00    +0.000 A 
ATOM      8  C   UNL     1       9.369  10.270  19.872  0.00  0.00    +0.000 A 
ATOM      9  C   UNL     1      10.007  11.343  20.499  0.00  0.00    +0.000 A 
ATOM     10  C   UNL     1      10.215  12.552  19.824  0.00  0.00    +0.000 A 
ATOM     11  C   UNL     1      10.858  13.633  20.448  0.00  0.00    +0.000 A 
ATOM     12  C   UNL     1      11.063  14.832  19.766  0.00  0.00    +0.000 A 
ATOM     13  C   UNL     1      10.626  14.963  18.451  0.00  0.00    +0.000 A 
ATOM     14  C   UNL     1       9.983  13.897  17.817  0.00  0.00    +0.000 A 
ATOM     15  C   UNL     1       9.770  12.682  18.490  0.00  0.00    +0.000 A 
ATOM     16  C   UNL     1       9.126  11.590  17.873  0.00  0.00    +0.000 A 
ENDBRANCH   6   7
ENDBRANCH   5   6
ENDBRANCH   2   5
BRANCH   3  17
ATOM     17  C   UNL     1       7.080   4.734  17.133  0.00  0.00    +0.000 C 
BRANCH  17  18
ATOM     18  C   UNL     1       5.750   4.447  17.741  0.00  0.00    +0.000 A 
ATOM     19  N   UNL     1       5.514   3.976  18.952  0.00  0.00    +0.000 NA
ATOM     20  C   UNL     1       4.148   3.863  19.044  0.00  0.00    +0.000 A 
ATOM     21  C   UNL     1       3.355   3.408  20.108  0.00  0.00    +0.000 A 
ATOM     22  C   UNL     1       1.964   3.383  19.946  0.00  0.00    +0.000 A 
ATOM     23  C   UNL     1       1.375   3.807  18.751  0.00  0.00    +0.000 A 
ATOM     24  C   UNL     1       2.151   4.269  17.681  0.00  0.00    +0.000 A 
ATOM     25  C   UNL     1       3.535   4.279  17.868  0.00  0.00    +0.000 A 
ATOM     26  N   UNL     1       4.576   4.652  17.057  0.00  0.00    +0.000 N 
ATOM     27  H   UNL     1       4.491   5.009  16.117  0.00  0.00    +0.000 HD
ENDBRANCH  17  18
ENDBRANCH   3  17
TORSDOF 5
ENDMDL
MODEL 6
REMARK VINA RESULT:      -8.6      2.066     10.092
REMARK  Name = 
REMARK  5 active torsions:
REMARK  status: ('A' for Active; 'I' for Inactive)
REMARK    1  A    between atoms: C_2  and  C_3
REMARK    2  A    between atoms: C_3  and  O_4
REMARK    3  A    between atoms: O_4  and  C_5
REMARK    4  A    between atoms: N_15  and  C_16
REMARK    5  A    between atoms: C_16  and  C_17
REMARK                            x       y       z     vdW  Elec       q    Type
REMARK                         _______ _______ _______ _____ _____    ______ ____
ROOT
ATOM      1  O   UNL     1       7.492   6.448  16.606  0.00  0.00    +0.000 OA
ATOM      2  C   UNL     1       7.547   6.678  17.813  0.00  0.00    +0.000 C 
ATOM      3  N   UNL     1       7.884   7.911  18.312  0.00  0.00    +0.000 N 
ATOM      4  H   UNL     1       8.022   8.058  19.308  0.00  0.00    +0.000 HD
ENDROOT
BRANCH   2   5
ATOM      5  C   UNL     1       7.196   5.636  18.871  0.00  0.00    +0.000 C 
BRANCH   5   6
ATOM      6  O   UNL     1       6.801   4.408  18.277  0.00  0.00    +0.000 OA
BRANCH   6   7
ATOM      7  C   UNL     1       5.451   4.176  18.211  0.00  0.00    +0.000 A 
ATOM      8  C   UNL     1       4.661   4.303  17.068  0.00  0.00    +0.000 A 
ATOM      9  C   UNL     1       3.288   4.044  17.125  0.00  0.00    +0.000 A 
ATOM     10  C   UNL     1       2.678   3.653  18.323  0.00  0.00    +0.000 A 
ATOM     11  C   UNL     1       1.301   3.388  18.385  0.00  0.00    +0.000 A 
ATOM     12  C   UNL     1       0.703   2.996  19.582  0.00  0.00    +0.000 A 
ATOM     13  C   UNL     1       1.477   2.865  20.732  0.00  0.00    +0.000 A 
ATOM     14  C   UNL     1       2.848   3.126  20.686  0.00  0.00    +0.000 A 
ATOM     15  C   UNL     1       3.467   3.521  19.487  0.00  0.00    +0.000 A 
ATOM     16  C   UNL     1       4.849   3.789  19.413  0.00  0.00    +0.000 A 
ENDBRANCH   6   7
ENDBRANCH   5   6
ENDBRANCH   2   5
BRANCH   3  17
ATOM     17  C   UNL     1       8.191   9.021  17.444  0.00  0.00    +0.000 C 
BRANCH  17  18
ATOM     18  C   UNL     1       8.737  10.135  18.270  0.00  0.00    +0.000 A 
ATOM     19  N   UNL     1       9.238  10.050  19.489  0.00  0.00    +0.000 NA
ATOM     20  C   UNL     1       9.589  11.332  19.835  0.00  0.00    +0.000 A 
ATOM     21  C   UNL     1      10.160  11.817  21.021  0.00  0.00    +0.000 A 
ATOM     22  C   UNL     1      10.417  13.190  21.129  0.00  0.00    +0.000 A 
ATOM     23  C   UNL     1      10.118  14.060  20.077  0.00  0.00    +0.000 A 
ATOM     24  C   UNL     1       9.553  13.592  18.885  0.00  0.00    +0.000 A 
ATOM     25  C   UNL     1       9.303  12.220  18.805  0.00  0.00    +0.000 A 
ATOM     26  N   UNL     1       8.767  11.432  17.818  0.00  0.00    +0.000 N 
ATOM     27  H   UNL     1       8.444  11.754  16.918  0.00  0.00    +0.000 HD
ENDBRANCH  17  18
ENDBRANCH   3  17
TORSDOF 5
ENDMDL
MODEL 7
REMARK VINA RESULT:      -8.4      1.153      1.592
REMARK  Name = 
REMARK  5 active torsions:
REMARK  status: ('A' for Active; 'I' for Inactive)
REMARK    1  A    between atoms: C_2  and  C_3
REMARK    2  A    between atoms: C_3  and  O_4
REMARK    3  A    between atoms: O_4  and  C_5
REMARK    4  A    between atoms: N_15  and  C_16
REMARK    5  A    between atoms: C_16  and  C_17
REMARK                            x       y       z     vdW  Elec       q    Type
REMARK                         _______ _______ _______ _____ _____    ______ ____
ROOT
ATOM      1  O   UNL     1       7.705   6.502  16.282  0.00  0.00    +0.000 OA
ATOM      2  C   UNL     1       7.269   7.016  17.310  0.00  0.00    +0.000 C 
ATOM      3  N   UNL     1       6.725   6.276  18.330  0.00  0.00    +0.000 N 
ATOM      4  H   UNL     1       6.280   6.722  19.127  0.00  0.00    +0.000 HD
ENDROOT
BRANCH   2   5
ATOM      5  C   UNL     1       7.337   8.517  17.579  0.00  0.00    +0.000 C 
BRANCH   5   6
ATOM      6  O   UNL     1       8.474   8.851  18.363  0.00  0.00    +0.000 OA
BRANCH   6   7
ATOM      7  C   UNL     1       8.871  10.163  18.325  0.00  0.00    +0.000 A 
ATOM      8  C   UNL     1       8.208  11.191  17.654  0.00  0.00    +0.000 A 
ATOM      9  C   UNL     1       8.712  12.494  17.681  0.00  0.00    +0.000 A 
ATOM     10  C   UNL     1       9.888  12.797  18.379  0.00  0.00    +0.000 A 
ATOM     11  C   UNL     1      10.398  14.105  18.412  0.00  0.00    +0.000 A 
ATOM     12  C   UNL     1      11.568  14.396  19.112  0.00  0.00    +0.000 A 
ATOM     13  C   UNL     1      12.243  13.382  19.786  0.00  0.00    +0.000 A 
ATOM     14  C   UNL     1      11.748  12.075  19.761  0.00  0.00    +0.000 A 
ATOM     15  C   UNL     1      10.569  11.765  19.062  0.00  0.00    +0.000 A 
ATOM     16  C   UNL     1      10.048  10.456  19.021  0.00  0.00    +0.000 A 
ENDBRANCH   6   7
ENDBRANCH   5   6
ENDBRANCH   2   5
BRANCH   3  17
ATOM     17  C   UNL     1       6.636   4.840  18.258  0.00  0.00    +0.000 C 
BRANCH  17  18
ATOM     18  C   UNL     1       5.230   4.435  18.540  0.00  0.00    +0.000 A 
ATOM     19  N   UNL     1       4.510   3.547  17.877  0.00  0.00    +0.000 NA
ATOM     20  C   UNL     1       3.282   3.533  18.494  0.00  0.00    +0.000 A 
ATOM     21  C   UNL     1       2.137   2.780  18.196  0.00  0.00    +0.000 A 
ATOM     22  C   UNL     1       0.993   2.958  18.984  0.00  0.00    +0.000 A 
ATOM     23  C   UNL     1       0.991   3.863  20.049  0.00  0.00    +0.000 A 
ATOM     24  C   UNL     1       2.126   4.619  20.364  0.00  0.00    +0.000 A 
ATOM     25  C   UNL     1       3.252   4.424  19.560  0.00  0.00    +0.000 A 
ATOM     26  N   UNL     1       4.505   4.981  19.571  0.00  0.00    +0.000 N 
ATOM     27  H   UNL     1       4.834   5.678  20.223  0.00  0.00    +0.000 HD
ENDBRANCH  17  18
ENDBRANCH   3  17
TORSDOF 5
ENDMDL
MODEL 8
REMARK VINA RESULT:      -8.4      5.765      8.611
REMARK  Name = 
REMARK  5 active torsions:
REMARK  status: ('A' for Active; 'I' for Inactive)
REMARK    1  A    between atoms: C_2  and  C_3
REMARK    2  A    between atoms: C_3  and  O_4
REMARK    3  A    between atoms: O_4  and  C_5
REMARK    4  A    between atoms: N_15  and  C_16
REMARK    5  A    between atoms: C_16  and  C_17
REMARK                            x       y       z     vdW  Elec       q    Type
REMARK                         _______ _______ _______ _____ _____    ______ ____
ROOT
ATOM      1  O   UNL     1       4.086   4.616  18.916  0.00  0.00    +0.000 OA
ATOM      2  C   UNL     1       4.142   5.743  18.429  0.00  0.00    +0.000 C 
ATOM      3  N   UNL     1       5.256   6.209  17.776  0.00  0.00    +0.000 N 
ATOM      4  H   UNL     1       5.322   7.174  17.467  0.00  0.00    +0.000 HD
ENDROOT
BRANCH   2   5
ATOM      5  C   UNL     1       2.966   6.715  18.454  0.00  0.00    +0.000 C 
BRANCH   5   6
ATOM      6  O   UNL     1       2.486   6.913  19.777  0.00  0.00    +0.000 OA
BRANCH   6   7
ATOM      7  C   UNL     1       1.729   8.038  19.983  0.00  0.00    +0.000 A 
ATOM      8  C   UNL     1       1.493   9.040  19.042  0.00  0.00    +0.000 A 
ATOM      9  C   UNL     1       0.706  10.147  19.371  0.00  0.00    +0.000 A 
ATOM     10  C   UNL     1       0.140  10.276  20.645  0.00  0.00    +0.000 A 
ATOM     11  C   UNL     1      -0.653  11.385  20.979  0.00  0.00    +0.000 A 
ATOM     12  C   UNL     1      -1.215  11.502  22.251  0.00  0.00    +0.000 A 
ATOM     13  C   UNL     1      -0.989  10.511  23.202  0.00  0.00    +0.000 A 
ATOM     14  C   UNL     1      -0.200   9.403  22.884  0.00  0.00    +0.000 A 
ATOM     15  C   UNL     1       0.372   9.268  21.607  0.00  0.00    +0.000 A 
ATOM     16  C   UNL     1       1.170   8.160  21.260  0.00  0.00    +0.000 A 
ENDBRANCH   6   7
ENDBRANCH   5   6
ENDBRANCH   2   5
BRANCH   3  17
ATOM     17  C   UNL     1       6.434   5.394  17.616  0.00  0.00    +0.000 C 
BRANCH  17  18
ATOM     18  C   UNL     1       6.588   5.057  16.173  0.00  0.00    +0.000 A 
ATOM     19  N   UNL     1       7.477   5.552  15.330  0.00  0.00    +0.000 NA
ATOM     20  C   UNL     1       7.213   4.956  14.121  0.00  0.00    +0.000 A 
ATOM     21  C   UNL     1       7.847   5.122  12.882  0.00  0.00    +0.000 A 
ATOM     22  C   UNL     1       7.376   4.392  11.783  0.00  0.00    +0.000 A 
ATOM     23  C   UNL     1       6.299   3.511  11.918  0.00  0.00    +0.000 A 
ATOM     24  C   UNL     1       5.658   3.329  13.149  0.00  0.00    +0.000 A 
ATOM     25  C   UNL     1       6.146   4.072  14.226  0.00  0.00    +0.000 A 
ATOM     26  N   UNL     1       5.770   4.150  15.543  0.00  0.00    +0.000 N 
ATOM     27  H   UNL     1       5.016   3.634  15.972  0.00  0.00    +0.000 HD
ENDBRANCH  17  18
ENDBRANCH   3  17
TORSDOF 5
ENDMDL
MODEL 9
REMARK VINA RESULT:      -8.3      4.310      6.943
REMARK  Name = 
REMARK  5 active torsions:
REMARK  status: ('A' for Active; 'I' for Inactive)
REMARK    1  A    between atoms: C_2  and  C_3
REMARK    2  A    between atoms: C_3  and  O_4
REMARK    3  A    between atoms: O_4  and  C_5
REMARK    4  A    between atoms: N_15  and  C_16
REMARK    5  A    between atoms: C_16  and  C_17
REMARK                            x       y       z     vdW  Elec       q    Type
REMARK                         _______ _______ _______ _____ _____    ______ ____
ROOT
ATOM      1  O   UNL     1       1.425   2.512  19.762  0.00  0.00    +0.000 OA
ATOM      2  C   UNL     1       2.591   2.903  19.762  0.00  0.00    +0.000 C 
ATOM      3  N   UNL     1       2.988   4.035  20.430  0.00  0.00    +0.000 N 
ATOM      4  H   UNL     1       3.932   4.398  20.339  0.00  0.00    +0.000 HD
ENDROOT
BRANCH   2   5
ATOM      5  C   UNL     1       3.718   2.144  19.069  0.00  0.00    +0.000 C 
BRANCH   5   6
ATOM      6  O   UNL     1       3.861   2.552  17.715  0.00  0.00    +0.000 OA
BRANCH   6   7
ATOM      7  C   UNL     1       4.487   3.755  17.510  0.00  0.00    +0.000 A 
ATOM      8  C   UNL     1       4.102   4.720  16.579  0.00  0.00    +0.000 A 
ATOM      9  C   UNL     1       4.824   5.911  16.456  0.00  0.00    +0.000 A 
ATOM     10  C   UNL     1       5.943   6.161  17.259  0.00  0.00    +0.000 A 
ATOM     11  C   UNL     1       6.670   7.356  17.141  0.00  0.00    +0.000 A 
ATOM     12  C   UNL     1       7.782   7.597  17.949  0.00  0.00    +0.000 A 
ATOM     13  C   UNL     1       8.180   6.643  18.882  0.00  0.00    +0.000 A 
ATOM     14  C   UNL     1       7.467   5.449  19.009  0.00  0.00    +0.000 A 
ATOM     15  C   UNL     1       6.344   5.191  18.205  0.00  0.00    +0.000 A 
ATOM     16  C   UNL     1       5.606   3.995  18.314  0.00  0.00    +0.000 A 
ENDBRANCH   6   7
ENDBRANCH   5   6
ENDBRANCH   2   5
BRANCH   3  17
ATOM     17  C   UNL     1       2.054   4.836  21.181  0.00  0.00    +0.000 C 
BRANCH  17  18
ATOM     18  C   UNL     1       1.930   6.167  20.521  0.00  0.00    +0.000 A 
ATOM     19  N   UNL     1       1.309   7.233  20.991  0.00  0.00    +0.000 NA
ATOM     20  C   UNL     1       1.451   8.199  20.025  0.00  0.00    +0.000 A 
ATOM     21  C   UNL     1       0.979   9.520  20.001  0.00  0.00    +0.000 A 
ATOM     22  C   UNL     1       1.255  10.311  18.878  0.00  0.00    +0.000 A 
ATOM     23  C   UNL     1       1.989   9.798  17.804  0.00  0.00    +0.000 A 
ATOM     24  C   UNL     1       2.471   8.484  17.813  0.00  0.00    +0.000 A 
ATOM     25  C   UNL     1       2.178   7.717  18.943  0.00  0.00    +0.000 A 
ATOM     26  N   UNL     1       2.477   6.423  19.286  0.00  0.00    +0.000 N 
ATOM     27  H   UNL     1       3.003   5.771  18.724  0.00  0.00    +0.000 HD
ENDBRANCH  17  18
ENDBRANCH   3  17
TORSDOF 5
ENDMDL
