MODEL 1
REMARK VINA RESULT:      -9.1      0.000      0.000
REMARK  Name = 
REMARK  7 active torsions:
REMARK  status: ('A' for Active; 'I' for Inactive)
REMARK    1  A    between atoms: C_1  and  N_2
REMARK    2  A    between atoms: C_6  and  C_7
REMARK    3  A    between atoms: C_7  and  N_8
REMARK    4  A    between atoms: C_7  and  C_24
REMARK    5  A    between atoms: C_9  and  C_11
REMARK    6  A    between atoms: C_13  and  C_14
REMARK    7  A    between atoms: C_17  and  C_18
REMARK                            x       y       z     vdW  Elec       q    Type
REMARK                         _______ _______ _______ _____ _____    ______ ____
ROOT
ATOM      1  N   UNL     1       4.046   5.841  18.971  0.00  0.00    +0.000 N 
ATOM      2  C   UNL     1       4.931   6.319  18.043  0.00  0.00    +0.000 C 
ATOM      3  O   UNL     1       4.593   6.824  16.976  0.00  0.00    +0.000 OA
ATOM      4  H   UNL     1       4.357   5.552  19.887  0.00  0.00    +0.000 HD
ENDROOT
BRANCH   2   5
ATOM      5  C   UNL     1       6.364   6.180  18.426  0.00  0.00    +0.000 C 
ATOM      6  C   UNL     1       7.409   7.043  17.761  0.00  0.00    +0.000 C 
ATOM      7  C   UNL     1       7.385   5.561  17.478  0.00  0.00    +0.000 C 
BRANCH   7   8
ATOM      8  C   UNL     1       6.928   5.005  16.148  0.00  0.00    +0.000 A 
ATOM      9  C   UNL     1       6.025   3.936  16.045  0.00  0.00    +0.000 A 
ATOM     10  C   UNL     1       5.683   3.381  14.808  0.00  0.00    +0.000 A 
ATOM     11  C   UNL     1       6.225   3.899  13.625  0.00  0.00    +0.000 A 
ATOM     12  C   UNL     1       7.081   5.005  13.707  0.00  0.00    +0.000 A 
ATOM     13  C   UNL     1       7.422   5.546  14.949  0.00  0.00    +0.000 A 
BRANCH  11  14
ATOM     14  C   UNL     1       5.922   3.276  12.286  0.00  0.00    +0.000 C 
ATOM     15  F   UNL     1       6.026   1.918  12.275  0.00  0.00    +0.000 F 
ATOM     16  F   UNL     1       4.661   3.556  11.852  0.00  0.00    +0.000 F 
ATOM     17  F   UNL     1       6.758   3.721  11.308  0.00  0.00    +0.000 F 
ENDBRANCH  11  14
ENDBRANCH   7   8
ENDBRANCH   2   5
BRANCH   1  18
ATOM     18  C   UNL     1       2.614   5.929  18.778  0.00  0.00    +0.000 C 
BRANCH  18  19
ATOM     19  C   UNL     1       1.958   4.602  19.149  0.00  0.00    +0.000 A 
ATOM     20  C   UNL     1       1.479   3.765  18.120  0.00  0.00    +0.000 A 
ATOM     21  C   UNL     1       0.844   2.554  18.404  0.00  0.00    +0.000 A 
ATOM     22  C   UNL     1       0.689   2.147  19.725  0.00  0.00    +0.000 A 
ATOM     23  C   UNL     1       1.194   2.939  20.747  0.00  0.00    +0.000 A 
ATOM     24  F   UNL     1       1.063   2.535  22.018  0.00  0.00    +0.000 F 
ATOM     25  C   UNL     1       1.832   4.148  20.473  0.00  0.00    +0.000 A 
ENDBRANCH  18  19
BRANCH  18  31
ATOM     26  C   UNL     1       2.059   8.793  17.666  0.00  0.00    +0.000 C 
ATOM     27  N   UNL     1       1.863   8.367  19.032  0.00  0.00    +0.000 N 
ATOM     28  C   UNL     1       1.393   9.171  20.035  0.00  0.00    +0.000 A 
ATOM     29  C   UNL     1       1.421   8.394  21.164  0.00  0.00    +0.000 A 
ATOM     30  N   UNL     1       1.904   7.145  20.879  0.00  0.00    +0.000 NA
ATOM     31  C   UNL     1       2.125   7.124  19.570  0.00  0.00    +0.000 A 
ENDBRANCH  18  31
ENDBRANCH   1  18
TORSDOF 6
ENDMDL
MODEL 2
REMARK VINA RESULT:      -9.0      0.226      1.113
REMARK  Name = 
REMARK  7 active torsions:
REMARK  status: ('A' for Active; 'I' for Inactive)
REMARK    1  A    between atoms: C_1  and  N_2
REMARK    2  A    between atoms: C_6  and  C_7
REMARK    3  A    between atoms: C_7  and  N_8
REMARK    4  A    between atoms: C_7  and  C_24
REMARK    5  A    between atoms: C_9  and  C_11
REMARK    6  A    between atoms: C_13  and  C_14
REMARK    7  A    between atoms: C_17  and  C_18
REMARK                            x       y       z     vdW  Elec       q    Type
REMARK                         _______ _______ _______ _____ _____    ______ ____
ROOT
ATOM      1  N   UNL     1       4.069   5.934  18.918  0.00  0.00    +0.000 N 
ATOM      2  C   UNL     1       4.974   6.321  17.967  0.00  0.00    +0.000 C 
ATOM      3  O   UNL     1       4.660   6.721  16.851  0.00  0.00    +0.000 OA
ATOM      4  H   UNL     1       4.360   5.733  19.864  0.00  0.00    +0.000 HD
ENDROOT
BRANCH   2   5
ATOM      5  C   UNL     1       6.399   6.220  18.393  0.00  0.00    +0.000 C 
ATOM      6  C   UNL     1       7.445   7.083  17.731  0.00  0.00    +0.000 C 
ATOM      7  C   UNL     1       7.456   5.594  17.491  0.00  0.00    +0.000 C 
BRANCH   7   8
ATOM      8  C   UNL     1       7.045   4.990  16.166  0.00  0.00    +0.000 A 
ATOM      9  C   UNL     1       7.543   5.452  14.938  0.00  0.00    +0.000 A 
ATOM     10  C   UNL     1       7.083   4.938  13.721  0.00  0.00    +0.000 A 
ATOM     11  C   UNL     1       6.119   3.922  13.699  0.00  0.00    +0.000 A 
ATOM     12  C   UNL     1       5.658   3.410  14.918  0.00  0.00    +0.000 A 
ATOM     13  C   UNL     1       6.117   3.936  16.129  0.00  0.00    +0.000 A 
BRANCH  11  14
ATOM     14  C   UNL     1       5.563   3.399  12.400  0.00  0.00    +0.000 C 
ATOM     15  F   UNL     1       4.225   3.604  12.252  0.00  0.00    +0.000 F 
ATOM     16  F   UNL     1       6.150   3.972  11.312  0.00  0.00    +0.000 F 
ATOM     17  F   UNL     1       5.751   2.057  12.260  0.00  0.00    +0.000 F 
ENDBRANCH  11  14
ENDBRANCH   7   8
ENDBRANCH   2   5
BRANCH   1  18
ATOM     18  C   UNL     1       2.641   6.002  18.687  0.00  0.00    +0.000 C 
BRANCH  18  19
ATOM     19  C   UNL     1       1.995   4.662  19.031  0.00  0.00    +0.000 A 
ATOM     20  C   UNL     1       1.610   3.800  17.983  0.00  0.00    +0.000 A 
ATOM     21  C   UNL     1       0.989   2.576  18.239  0.00  0.00    +0.000 A 
ATOM     22  C   UNL     1       0.753   2.181  19.552  0.00  0.00    +0.000 A 
ATOM     23  C   UNL     1       1.165   2.999  20.595  0.00  0.00    +0.000 A 
ATOM     24  F   UNL     1       0.958   2.608  21.859  0.00  0.00    +0.000 F 
ATOM     25  C   UNL     1       1.789   4.221  20.348  0.00  0.00    +0.000 A 
ENDBRANCH  18  19
BRANCH  18  31
ATOM     26  C   UNL     1       2.115   8.878  17.592  0.00  0.00    +0.000 C 
ATOM     27  N   UNL     1       1.866   8.432  18.942  0.00  0.00    +0.000 N 
ATOM     28  C   UNL     1       1.351   9.220  19.936  0.00  0.00    +0.000 A 
ATOM     29  C   UNL     1       1.337   8.428  21.055  0.00  0.00    +0.000 A 
ATOM     30  N   UNL     1       1.839   7.185  20.774  0.00  0.00    +0.000 NA
ATOM     31  C   UNL     1       2.113   7.184  19.475  0.00  0.00    +0.000 A 
ENDBRANCH  18  31
ENDBRANCH   1  18
TORSDOF 6
ENDMDL
MODEL 3
REMARK VINA RESULT:      -8.9      1.136      1.531
REMARK  Name = 
REMARK  7 active torsions:
REMARK  status: ('A' for Active; 'I' for Inactive)
REMARK    1  A    between atoms: C_1  and  N_2
REMARK    2  A    between atoms: C_6  and  C_7
REMARK    3  A    between atoms: C_7  and  N_8
REMARK    4  A    between atoms: C_7  and  C_24
REMARK    5  A    between atoms: C_9  and  C_11
REMARK    6  A    between atoms: C_13  and  C_14
REMARK    7  A    between atoms: C_17  and  C_18
REMARK                            x       y       z     vdW  Elec       q    Type
REMARK                         _______ _______ _______ _____ _____    ______ ____
ROOT
ATOM      1  N   UNL     1       4.326   5.824  18.510  0.00  0.00    +0.000 N 
ATOM      2  C   UNL     1       5.138   6.499  17.639  0.00  0.00    +0.000 C 
ATOM      3  O   UNL     1       4.731   7.074  16.634  0.00  0.00    +0.000 OA
ATOM      4  H   UNL     1       4.680   5.475  19.389  0.00  0.00    +0.000 HD
ENDROOT
BRANCH   2   5
ATOM      5  C   UNL     1       6.582   6.486  18.004  0.00  0.00    +0.000 C 
ATOM      6  C   UNL     1       7.559   7.349  17.244  0.00  0.00    +0.000 C 
ATOM      7  C   UNL     1       7.627   5.849  17.095  0.00  0.00    +0.000 C 
BRANCH   7   8
ATOM      8  C   UNL     1       7.188   5.147  15.829  0.00  0.00    +0.000 A 
ATOM      9  C   UNL     1       7.639   5.528  14.557  0.00  0.00    +0.000 A 
ATOM     10  C   UNL     1       7.152   4.921  13.394  0.00  0.00    +0.000 A 
ATOM     11  C   UNL     1       6.207   3.891  13.475  0.00  0.00    +0.000 A 
ATOM     12  C   UNL     1       5.792   3.459  14.741  0.00  0.00    +0.000 A 
ATOM     13  C   UNL     1       6.279   4.078  15.896  0.00  0.00    +0.000 A 
BRANCH  11  14
ATOM     14  C   UNL     1       5.621   3.268  12.234  0.00  0.00    +0.000 C 
ATOM     15  F   UNL     1       5.831   1.926  12.140  0.00  0.00    +0.000 F 
ATOM     16  F   UNL     1       4.272   3.440  12.149  0.00  0.00    +0.000 F 
ATOM     17  F   UNL     1       6.136   3.805  11.093  0.00  0.00    +0.000 F 
ENDBRANCH  11  14
ENDBRANCH   7   8
ENDBRANCH   2   5
BRANCH   1  18
ATOM     18  C   UNL     1       2.890   5.767  18.328  0.00  0.00    +0.000 C 
BRANCH  18  19
ATOM     19  C   UNL     1       2.409   4.323  18.455  0.00  0.00    +0.000 A 
ATOM     20  C   UNL     1       1.039   4.077  18.683  0.00  0.00    +0.000 A 
ATOM     21  C   UNL     1       0.550   2.778  18.837  0.00  0.00    +0.000 A 
ATOM     22  C   UNL     1       1.420   1.696  18.750  0.00  0.00    +0.000 A 
ATOM     23  C   UNL     1       2.763   1.920  18.483  0.00  0.00    +0.000 A 
ATOM     24  F   UNL     1       3.596   0.876  18.379  0.00  0.00    +0.000 F 
ATOM     25  C   UNL     1       3.260   3.213  18.325  0.00  0.00    +0.000 A 
ENDBRANCH  18  19
BRANCH  18  31
ATOM     26  C   UNL     1       2.164   8.756  17.797  0.00  0.00    +0.000 C 
ATOM     27  N   UNL     1       1.938   8.041  19.030  0.00  0.00    +0.000 N 
ATOM     28  C   UNL     1       1.360   8.583  20.146  0.00  0.00    +0.000 A 
ATOM     29  C   UNL     1       1.396   7.590  21.091  0.00  0.00    +0.000 A 
ATOM     30  N   UNL     1       1.989   6.464  20.586  0.00  0.00    +0.000 NA
ATOM     31  C   UNL     1       2.272   6.733  19.317  0.00  0.00    +0.000 A 
ENDBRANCH  18  31
ENDBRANCH   1  18
TORSDOF 6
ENDMDL
MODEL 4
REMARK VINA RESULT:      -8.8      1.188      1.504
REMARK  Name = 
REMARK  7 active torsions:
REMARK  status: ('A' for Active; 'I' for Inactive)
REMARK    1  A    between atoms: C_1  and  N_2
REMARK    2  A    between atoms: C_6  and  C_7
REMARK    3  A    between atoms: C_7  and  N_8
REMARK    4  A    between atoms: C_7  and  C_24
REMARK    5  A    between atoms: C_9  and  C_11
REMARK    6  A    between atoms: C_13  and  C_14
REMARK    7  A    between atoms: C_17  and  C_18
REMARK                            x       y       z     vdW  Elec       q    Type
REMARK                         _______ _______ _______ _____ _____    ______ ____
ROOT
ATOM      1  N   UNL     1       4.362   5.770  18.424  0.00  0.00    +0.000 N 
ATOM      2  C   UNL     1       5.133   6.534  17.590  0.00  0.00    +0.000 C 
ATOM      3  O   UNL     1       4.682   7.188  16.655  0.00  0.00    +0.000 OA
ATOM      4  H   UNL     1       4.753   5.350  19.256  0.00  0.00    +0.000 HD
ENDROOT
BRANCH   2   5
ATOM      5  C   UNL     1       6.589   6.516  17.905  0.00  0.00    +0.000 C 
ATOM      6  C   UNL     1       7.542   7.376  17.111  0.00  0.00    +0.000 C 
ATOM      7  C   UNL     1       7.599   5.876  16.959  0.00  0.00    +0.000 C 
BRANCH   7   8
ATOM      8  C   UNL     1       7.113   5.176  15.709  0.00  0.00    +0.000 A 
ATOM      9  C   UNL     1       6.235   4.082  15.748  0.00  0.00    +0.000 A 
ATOM     10  C   UNL     1       5.867   3.397  14.586  0.00  0.00    +0.000 A 
ATOM     11  C   UNL     1       6.356   3.802  13.338  0.00  0.00    +0.000 A 
ATOM     12  C   UNL     1       7.186   4.929  13.278  0.00  0.00    +0.000 A 
ATOM     13  C   UNL     1       7.554   5.603  14.445  0.00  0.00    +0.000 A 
BRANCH  11  14
ATOM     14  C   UNL     1       6.026   3.039  12.082  0.00  0.00    +0.000 C 
ATOM     15  F   UNL     1       5.054   3.618  11.324  0.00  0.00    +0.000 F 
ATOM     16  F   UNL     1       7.103   2.894  11.259  0.00  0.00    +0.000 F 
ATOM     17  F   UNL     1       5.588   1.776  12.345  0.00  0.00    +0.000 F 
ENDBRANCH  11  14
ENDBRANCH   7   8
ENDBRANCH   2   5
BRANCH   1  18
ATOM     18  C   UNL     1       2.923   5.701  18.286  0.00  0.00    +0.000 C 
BRANCH  18  19
ATOM     19  C   UNL     1       2.457   4.253  18.415  0.00  0.00    +0.000 A 
ATOM     20  C   UNL     1       1.088   3.991  18.626  0.00  0.00    +0.000 A 
ATOM     21  C   UNL     1       0.612   2.687  18.782  0.00  0.00    +0.000 A 
ATOM     22  C   UNL     1       1.497   1.615  18.713  0.00  0.00    +0.000 A 
ATOM     23  C   UNL     1       2.841   1.854  18.463  0.00  0.00    +0.000 A 
ATOM     24  F   UNL     1       3.687   0.820  18.376  0.00  0.00    +0.000 F 
ATOM     25  C   UNL     1       3.324   3.152  18.304  0.00  0.00    +0.000 A 
ENDBRANCH  18  19
BRANCH  18  31
ATOM     26  C   UNL     1       2.076   8.663  17.780  0.00  0.00    +0.000 C 
ATOM     27  N   UNL     1       1.938   7.949  19.027  0.00  0.00    +0.000 N 
ATOM     28  C   UNL     1       1.402   8.480  20.169  0.00  0.00    +0.000 A 
ATOM     29  C   UNL     1       1.518   7.494  21.115  0.00  0.00    +0.000 A 
ATOM     30  N   UNL     1       2.119   6.384  20.585  0.00  0.00    +0.000 NA
ATOM     31  C   UNL     1       2.327   6.654  19.302  0.00  0.00    +0.000 A 
ENDBRANCH  18  31
ENDBRANCH   1  18
TORSDOF 6
ENDMDL
MODEL 5
REMARK VINA RESULT:      -8.6      0.774      1.160
REMARK  Name = 
REMARK  7 active torsions:
REMARK  status: ('A' for Active; 'I' for Inactive)
REMARK    1  A    between atoms: C_1  and  N_2
REMARK    2  A    between atoms: C_6  and  C_7
REMARK    3  A    between atoms: C_7  and  N_8
REMARK    4  A    between atoms: C_7  and  C_24
REMARK    5  A    between atoms: C_9  and  C_11
REMARK    6  A    between atoms: C_13  and  C_14
REMARK    7  A    between atoms: C_17  and  C_18
REMARK                            x       y       z     vdW  Elec       q    Type
REMARK                         _______ _______ _______ _____ _____    ______ ____
ROOT
ATOM      1  N   UNL     1       4.089   5.943  19.035  0.00  0.00    +0.000 N 
ATOM      2  C   UNL     1       4.930   6.398  18.056  0.00  0.00    +0.000 C 
ATOM      3  O   UNL     1       4.544   6.835  16.976  0.00  0.00    +0.000 OA
ATOM      4  H   UNL     1       4.438   5.712  19.955  0.00  0.00    +0.000 HD
ENDROOT
BRANCH   2   5
ATOM      5  C   UNL     1       6.378   6.326  18.400  0.00  0.00    +0.000 C 
ATOM      6  C   UNL     1       7.367   7.212  17.684  0.00  0.00    +0.000 C 
ATOM      7  C   UNL     1       7.395   5.724  17.438  0.00  0.00    +0.000 C 
BRANCH   7   8
ATOM      8  C   UNL     1       6.923   5.116  16.136  0.00  0.00    +0.000 A 
ATOM      9  C   UNL     1       6.098   3.982  16.086  0.00  0.00    +0.000 A 
ATOM     10  C   UNL     1       5.745   3.386  14.871  0.00  0.00    +0.000 A 
ATOM     11  C   UNL     1       6.195   3.925  13.659  0.00  0.00    +0.000 A 
ATOM     12  C   UNL     1       6.971   5.091  13.691  0.00  0.00    +0.000 A 
ATOM     13  C   UNL     1       7.324   5.674  14.911  0.00  0.00    +0.000 A 
BRANCH  11  14
ATOM     14  C   UNL     1       5.882   3.261  12.343  0.00  0.00    +0.000 C 
ATOM     15  F   UNL     1       5.994   1.904  12.370  0.00  0.00    +0.000 F 
ATOM     16  F   UNL     1       4.615   3.522  11.915  0.00  0.00    +0.000 F 
ATOM     17  F   UNL     1       6.705   3.682  11.343  0.00  0.00    +0.000 F 
ENDBRANCH  11  14
ENDBRANCH   7   8
ENDBRANCH   2   5
BRANCH   1  18
ATOM     18  C   UNL     1       2.650   5.974  18.883  0.00  0.00    +0.000 C 
BRANCH  18  19
ATOM     19  C   UNL     1       2.047   4.663  19.380  0.00  0.00    +0.000 A 
ATOM     20  C   UNL     1       2.221   4.300  20.732  0.00  0.00    +0.000 A 
ATOM     21  C   UNL     1       1.716   3.097  21.232  0.00  0.00    +0.000 A 
ATOM     22  C   UNL     1       1.012   2.239  20.393  0.00  0.00    +0.000 A 
ATOM     23  C   UNL     1       0.796   2.603  19.071  0.00  0.00    +0.000 A 
ATOM     24  F   UNL     1       0.100   1.786  18.270  0.00  0.00    +0.000 F 
ATOM     25  C   UNL     1       1.293   3.803  18.564  0.00  0.00    +0.000 A 
ENDBRANCH  18  19
BRANCH  18  31
ATOM     26  C   UNL     1       2.088   8.758  17.587  0.00  0.00    +0.000 C 
ATOM     27  N   UNL     1       1.884   8.419  18.975  0.00  0.00    +0.000 N 
ATOM     28  C   UNL     1       1.403   9.283  19.921  0.00  0.00    +0.000 A 
ATOM     29  C   UNL     1       1.427   8.580  21.099  0.00  0.00    +0.000 A 
ATOM     30  N   UNL     1       1.919   7.318  20.897  0.00  0.00    +0.000 NA
ATOM     31  C   UNL     1       2.149   7.215  19.594  0.00  0.00    +0.000 A 
ENDBRANCH  18  31
ENDBRANCH   1  18
TORSDOF 6
ENDMDL
MODEL 6
REMARK VINA RESULT:      -8.5      4.326      6.066
REMARK  Name = 
REMARK  7 active torsions:
REMARK  status: ('A' for Active; 'I' for Inactive)
REMARK    1  A    between atoms: C_1  and  N_2
REMARK    2  A    between atoms: C_6  and  C_7
REMARK    3  A    between atoms: C_7  and  N_8
REMARK    4  A    between atoms: C_7  and  C_24
REMARK    5  A    between atoms: C_9  and  C_11
REMARK    6  A    between atoms: C_13  and  C_14
REMARK    7  A    between atoms: C_17  and  C_18
REMARK                            x       y       z     vdW  Elec       q    Type
REMARK                         _______ _______ _______ _____ _____    ______ ____
ROOT
ATOM      1  N   UNL     1       3.917   5.759  18.529  0.00  0.00    +0.000 N 
ATOM      2  C   UNL     1       5.218   5.342  18.605  0.00  0.00    +0.000 C 
ATOM      3  O   UNL     1       5.848   5.263  19.655  0.00  0.00    +0.000 OA
ATOM      4  H   UNL     1       3.396   5.688  17.666  0.00  0.00    +0.000 HD
ENDROOT
BRANCH   2   5
ATOM      5  C   UNL     1       5.829   4.982  17.294  0.00  0.00    +0.000 C 
ATOM      6  C   UNL     1       7.214   4.385  17.248  0.00  0.00    +0.000 C 
ATOM      7  C   UNL     1       6.992   5.778  16.713  0.00  0.00    +0.000 C 
BRANCH   7   8
ATOM      8  C   UNL     1       7.493   7.006  17.439  0.00  0.00    +0.000 A 
ATOM      9  C   UNL     1       7.206   8.310  17.007  0.00  0.00    +0.000 A 
ATOM     10  C   UNL     1       7.752   9.430  17.643  0.00  0.00    +0.000 A 
ATOM     11  C   UNL     1       8.590   9.276  18.754  0.00  0.00    +0.000 A 
ATOM     12  C   UNL     1       8.838   7.983  19.233  0.00  0.00    +0.000 A 
ATOM     13  C   UNL     1       8.294   6.871  18.585  0.00  0.00    +0.000 A 
BRANCH  11  14
ATOM     14  C   UNL     1       9.241  10.464  19.414  0.00  0.00    +0.000 C 
ATOM     15  F   UNL     1       9.182  10.439  20.774  0.00  0.00    +0.000 F 
ATOM     16  F   UNL     1      10.562  10.578  19.101  0.00  0.00    +0.000 F 
ATOM     17  F   UNL     1       8.668  11.642  19.039  0.00  0.00    +0.000 F 
ENDBRANCH  11  14
ENDBRANCH   7   8
ENDBRANCH   2   5
BRANCH   1  18
ATOM     18  C   UNL     1       3.157   6.113  19.710  0.00  0.00    +0.000 C 
BRANCH  18  19
ATOM     19  C   UNL     1       2.354   7.385  19.448  0.00  0.00    +0.000 A 
ATOM     20  C   UNL     1       2.370   7.949  18.156  0.00  0.00    +0.000 A 
ATOM     21  C   UNL     1       1.677   9.128  17.869  0.00  0.00    +0.000 A 
ATOM     22  C   UNL     1       0.941   9.758  18.867  0.00  0.00    +0.000 A 
ATOM     23  C   UNL     1       0.881   9.192  20.132  0.00  0.00    +0.000 A 
ATOM     24  F   UNL     1       0.155   9.789  21.086  0.00  0.00    +0.000 F 
ATOM     25  C   UNL     1       1.567   8.014  20.427  0.00  0.00    +0.000 A 
ENDBRANCH  18  19
BRANCH  18  31
ATOM     26  C   UNL     1       1.479   4.328  17.776  0.00  0.00    +0.000 C 
ATOM     27  N   UNL     1       1.625   4.123  19.198  0.00  0.00    +0.000 N 
ATOM     28  C   UNL     1       1.045   3.100  19.897  0.00  0.00    +0.000 A 
ATOM     29  C   UNL     1       1.389   3.317  21.207  0.00  0.00    +0.000 A 
ATOM     30  N   UNL     1       2.151   4.447  21.325  0.00  0.00    +0.000 NA
ATOM     31  C   UNL     1       2.328   4.904  20.092  0.00  0.00    +0.000 A 
ENDBRANCH  18  31
ENDBRANCH   1  18
TORSDOF 6
ENDMDL
MODEL 7
REMARK VINA RESULT:      -8.2      1.125      1.260
REMARK  Name = 
REMARK  7 active torsions:
REMARK  status: ('A' for Active; 'I' for Inactive)
REMARK    1  A    between atoms: C_1  and  N_2
REMARK    2  A    between atoms: C_6  and  C_7
REMARK    3  A    between atoms: C_7  and  N_8
REMARK    4  A    between atoms: C_7  and  C_24
REMARK    5  A    between atoms: C_9  and  C_11
REMARK    6  A    between atoms: C_13  and  C_14
REMARK    7  A    between atoms: C_17  and  C_18
REMARK                            x       y       z     vdW  Elec       q    Type
REMARK                         _______ _______ _______ _____ _____    ______ ____
ROOT
ATOM      1  N   UNL     1       4.434   5.859  18.332  0.00  0.00    +0.000 N 
ATOM      2  C   UNL     1       5.160   6.618  17.455  0.00  0.00    +0.000 C 
ATOM      3  O   UNL     1       4.667   7.222  16.507  0.00  0.00    +0.000 OA
ATOM      4  H   UNL     1       4.855   5.484  19.170  0.00  0.00    +0.000 HD
ENDROOT
BRANCH   2   5
ATOM      5  C   UNL     1       6.622   6.662  17.739  0.00  0.00    +0.000 C 
ATOM      6  C   UNL     1       7.525   7.534  16.902  0.00  0.00    +0.000 C 
ATOM      7  C   UNL     1       7.635   6.034  16.789  0.00  0.00    +0.000 C 
BRANCH   7   8
ATOM      8  C   UNL     1       7.151   5.283  15.569  0.00  0.00    +0.000 A 
ATOM      9  C   UNL     1       6.227   4.229  15.648  0.00  0.00    +0.000 A 
ATOM     10  C   UNL     1       5.860   3.492  14.517  0.00  0.00    +0.000 A 
ATOM     11  C   UNL     1       6.394   3.805  13.261  0.00  0.00    +0.000 A 
ATOM     12  C   UNL     1       7.270   4.892  13.158  0.00  0.00    +0.000 A 
ATOM     13  C   UNL     1       7.638   5.618  14.295  0.00  0.00    +0.000 A 
BRANCH  11  14
ATOM     14  C   UNL     1       6.062   2.983  12.043  0.00  0.00    +0.000 C 
ATOM     15  F   UNL     1       5.795   1.676  12.316  0.00  0.00    +0.000 F 
ATOM     16  F   UNL     1       4.971   3.454  11.375  0.00  0.00    +0.000 F 
ATOM     17  F   UNL     1       7.077   2.973  11.134  0.00  0.00    +0.000 F 
ENDBRANCH  11  14
ENDBRANCH   7   8
ENDBRANCH   2   5
BRANCH   1  18
ATOM     18  C   UNL     1       2.995   5.736  18.228  0.00  0.00    +0.000 C 
BRANCH  18  19
ATOM     19  C   UNL     1       2.588   4.271  18.373  0.00  0.00    +0.000 A 
ATOM     20  C   UNL     1       3.592   3.282  18.390  0.00  0.00    +0.000 A 
ATOM     21  C   UNL     1       3.274   1.925  18.491  0.00  0.00    +0.000 A 
ATOM     22  C   UNL     1       1.944   1.532  18.593  0.00  0.00    +0.000 A 
ATOM     23  C   UNL     1       0.947   2.497  18.620  0.00  0.00    +0.000 A 
ATOM     24  F   UNL     1      -0.332   2.118  18.740  0.00  0.00    +0.000 F 
ATOM     25  C   UNL     1       1.255   3.853  18.523  0.00  0.00    +0.000 A 
ENDBRANCH  18  19
BRANCH  18  31
ATOM     26  C   UNL     1       2.138   8.701  17.760  0.00  0.00    +0.000 C 
ATOM     27  N   UNL     1       1.994   7.967  18.995  0.00  0.00    +0.000 N 
ATOM     28  C   UNL     1       1.446   8.479  20.140  0.00  0.00    +0.000 A 
ATOM     29  C   UNL     1       1.560   7.479  21.073  0.00  0.00    +0.000 A 
ATOM     30  N   UNL     1       2.170   6.380  20.530  0.00  0.00    +0.000 NA
ATOM     31  C   UNL     1       2.387   6.670  19.253  0.00  0.00    +0.000 A 
ENDBRANCH  18  31
ENDBRANCH   1  18
TORSDOF 6
ENDMDL
MODEL 8
REMARK VINA RESULT:      -8.2      4.136      7.803
REMARK  Name = 
REMARK  7 active torsions:
REMARK  status: ('A' for Active; 'I' for Inactive)
REMARK    1  A    between atoms: C_1  and  N_2
REMARK    2  A    between atoms: C_6  and  C_7
REMARK    3  A    between atoms: C_7  and  N_8
REMARK    4  A    between atoms: C_7  and  C_24
REMARK    5  A    between atoms: C_9  and  C_11
REMARK    6  A    between atoms: C_13  and  C_14
REMARK    7  A    between atoms: C_17  and  C_18
REMARK                            x       y       z     vdW  Elec       q    Type
REMARK                         _______ _______ _______ _____ _____    ______ ____
ROOT
ATOM      1  N   UNL     1       2.241   6.958  20.129  0.00  0.00    +0.000 N 
ATOM      2  C   UNL     1       1.225   7.478  20.885  0.00  0.00    +0.000 C 
ATOM      3  O   UNL     1       0.089   7.014  20.911  0.00  0.00    +0.000 OA
ATOM      4  H   UNL     1       3.190   7.289  20.233  0.00  0.00    +0.000 HD
ENDROOT
BRANCH   2   5
ATOM      5  C   UNL     1       1.604   8.672  21.693  0.00  0.00    +0.000 C 
ATOM      6  C   UNL     1       0.588   9.321  22.599  0.00  0.00    +0.000 C 
ATOM      7  C   UNL     1       1.056  10.057  21.369  0.00  0.00    +0.000 C 
BRANCH   7   8
ATOM      8  C   UNL     1       0.169  10.245  20.159  0.00  0.00    +0.000 A 
ATOM      9  C   UNL     1      -1.120  10.794  20.244  0.00  0.00    +0.000 A 
ATOM     10  C   UNL     1      -1.955  10.879  19.125  0.00  0.00    +0.000 A 
ATOM     11  C   UNL     1      -1.513  10.432  17.874  0.00  0.00    +0.000 A 
ATOM     12  C   UNL     1      -0.208   9.936  17.762  0.00  0.00    +0.000 A 
ATOM     13  C   UNL     1       0.616   9.849  18.887  0.00  0.00    +0.000 A 
BRANCH  11  14
ATOM     14  C   UNL     1      -2.419  10.453  16.670  0.00  0.00    +0.000 C 
ATOM     15  F   UNL     1      -2.274  11.560  15.891  0.00  0.00    +0.000 F 
ATOM     16  F   UNL     1      -2.217   9.388  15.845  0.00  0.00    +0.000 F 
ATOM     17  F   UNL     1      -3.737  10.411  17.014  0.00  0.00    +0.000 F 
ENDBRANCH  11  14
ENDBRANCH   7   8
ENDBRANCH   2   5
BRANCH   1  18
ATOM     18  C   UNL     1       2.059   5.776  19.313  0.00  0.00    +0.000 C 
BRANCH  18  19
ATOM     19  C   UNL     1       3.159   5.701  18.257  0.00  0.00    +0.000 A 
ATOM     20  C   UNL     1       3.690   6.899  17.737  0.00  0.00    +0.000 A 
ATOM     21  C   UNL     1       4.677   6.888  16.748  0.00  0.00    +0.000 A 
ATOM     22  C   UNL     1       5.164   5.675  16.270  0.00  0.00    +0.000 A 
ATOM     23  C   UNL     1       4.682   4.488  16.803  0.00  0.00    +0.000 A 
ATOM     24  F   UNL     1       5.167   3.322  16.357  0.00  0.00    +0.000 F 
ATOM     25  C   UNL     1       3.699   4.490  17.792  0.00  0.00    +0.000 A 
ENDBRANCH  18  19
BRANCH  18  31
ATOM     26  C   UNL     1       0.541   3.096  18.807  0.00  0.00    +0.000 C 
ATOM     27  N   UNL     1       1.334   3.408  19.972  0.00  0.00    +0.000 N 
ATOM     28  C   UNL     1       1.536   2.554  21.023  0.00  0.00    +0.000 A 
ATOM     29  C   UNL     1       2.286   3.264  21.926  0.00  0.00    +0.000 A 
ATOM     30  N   UNL     1       2.536   4.527  21.460  0.00  0.00    +0.000 NA
ATOM     31  C   UNL     1       1.993   4.587  20.250  0.00  0.00    +0.000 A 
ENDBRANCH  18  31
ENDBRANCH   1  18
TORSDOF 6
ENDMDL
MODEL 9
REMARK VINA RESULT:      -8.0      1.221      2.061
REMARK  Name = 
REMARK  7 active torsions:
REMARK  status: ('A' for Active; 'I' for Inactive)
REMARK    1  A    between atoms: C_1  and  N_2
REMARK    2  A    between atoms: C_6  and  C_7
REMARK    3  A    between atoms: C_7  and  N_8
REMARK    4  A    between atoms: C_7  and  C_24
REMARK    5  A    between atoms: C_9  and  C_11
REMARK    6  A    between atoms: C_13  and  C_14
REMARK    7  A    between atoms: C_17  and  C_18
REMARK                            x       y       z     vdW  Elec       q    Type
REMARK                         _______ _______ _______ _____ _____    ______ ____
ROOT
ATOM      1  N   UNL     1       4.410   5.677  18.322  0.00  0.00    +0.000 N 
ATOM      2  C   UNL     1       5.201   6.546  17.620  0.00  0.00    +0.000 C 
ATOM      3  O   UNL     1       4.776   7.307  16.756  0.00  0.00    +0.000 OA
ATOM      4  H   UNL     1       4.775   5.161  19.111  0.00  0.00    +0.000 HD
ENDROOT
BRANCH   2   5
ATOM      5  C   UNL     1       6.644   6.503  17.987  0.00  0.00    +0.000 C 
ATOM      6  C   UNL     1       7.640   7.343  17.226  0.00  0.00    +0.000 C 
ATOM      7  C   UNL     1       7.676   5.842  17.079  0.00  0.00    +0.000 C 
BRANCH   7   8
ATOM      8  C   UNL     1       7.223   5.148  15.814  0.00  0.00    +0.000 A 
ATOM      9  C   UNL     1       7.652   5.543  14.538  0.00  0.00    +0.000 A 
ATOM     10  C   UNL     1       7.152   4.942  13.378  0.00  0.00    +0.000 A 
ATOM     11  C   UNL     1       6.216   3.905  13.464  0.00  0.00    +0.000 A 
ATOM     12  C   UNL     1       5.823   3.459  14.732  0.00  0.00    +0.000 A 
ATOM     13  C   UNL     1       6.322   4.071  15.885  0.00  0.00    +0.000 A 
BRANCH  11  14
ATOM     14  C   UNL     1       5.616   3.288  12.227  0.00  0.00    +0.000 C 
ATOM     15  F   UNL     1       6.122   3.783  11.064  0.00  0.00    +0.000 F 
ATOM     16  F   UNL     1       5.804   1.940  12.170  0.00  0.00    +0.000 F 
ATOM     17  F   UNL     1       4.269   3.478  12.156  0.00  0.00    +0.000 F 
ENDBRANCH  11  14
ENDBRANCH   7   8
ENDBRANCH   2   5
BRANCH   1  18
ATOM     18  C   UNL     1       2.978   5.613  18.120  0.00  0.00    +0.000 C 
BRANCH  18  19
ATOM     19  C   UNL     1       2.492   4.177  18.304  0.00  0.00    +0.000 A 
ATOM     20  C   UNL     1       1.110   3.936  18.440  0.00  0.00    +0.000 A 
ATOM     21  C   UNL     1       0.613   2.646  18.641  0.00  0.00    +0.000 A 
ATOM     22  C   UNL     1       1.490   1.567  18.693  0.00  0.00    +0.000 A 
ATOM     23  C   UNL     1       2.849   1.783  18.518  0.00  0.00    +0.000 A 
ATOM     24  F   UNL     1       3.690   0.741  18.547  0.00  0.00    +0.000 F 
ATOM     25  C   UNL     1       3.354   3.067  18.314  0.00  0.00    +0.000 A 
ENDBRANCH  18  19
BRANCH  18  31
ATOM     26  C   UNL     1       2.243   5.161  21.120  0.00  0.00    +0.000 C 
ATOM     27  N   UNL     1       2.065   6.391  20.385  0.00  0.00    +0.000 N 
ATOM     28  C   UNL     1       1.550   7.543  20.916  0.00  0.00    +0.000 A 
ATOM     29  C   UNL     1       1.501   8.431  19.871  0.00  0.00    +0.000 A 
ATOM     30  N   UNL     1       1.961   7.849  18.721  0.00  0.00    +0.000 NA
ATOM     31  C   UNL     1       2.346   6.623  19.055  0.00  0.00    +0.000 A 
ENDBRANCH  18  31
ENDBRANCH   1  18
TORSDOF 6
ENDMDL
