MODEL 1
REMARK VINA RESULT:      -9.8      0.000      0.000
REMARK  Name = 
REMARK  7 active torsions:
REMARK  status: ('A' for Active; 'I' for Inactive)
REMARK    1  A    between atoms: C_1  and  C_2
REMARK    2  A    between atoms: C_2  and  C_3
REMARK    3  A    between atoms: C_2  and  C_10
REMARK    4  A    between atoms: C_3  and  C_4
REMARK    5  A    between atoms: N_8  and  C_9
REMARK    6  A    between atoms: C_14  and  N_15
REMARK    7  A    between atoms: C_16  and  C_18
REMARK                            x       y       z     vdW  Elec       q    Type
REMARK                         _______ _______ _______ _____ _____    ______ ____
ROOT
ATOM      1  C   UNL     1       4.534   4.965  17.187  0.00  0.00    +0.000 A 
ATOM      2  C   UNL     1       3.782   3.786  17.102  0.00  0.00    +0.000 A 
ATOM      3  C   UNL     1       2.469   3.765  17.550  0.00  0.00    +0.000 A 
ATOM      4  C   UNL     1       1.911   4.902  18.132  0.00  0.00    +0.000 A 
ATOM      5  C   UNL     1       2.654   6.076  18.294  0.00  0.00    +0.000 A 
ATOM      6  C   UNL     1       3.950   6.112  17.778  0.00  0.00    +0.000 A 
ENDROOT
BRANCH   5   7
ATOM      7  N   UNL     1       2.153   7.203  18.994  0.00  0.00    +0.000 N 
ATOM      8  C   UNL     1       2.006   8.458  18.433  0.00  0.00    +0.000 C 
ATOM      9  O   UNL     1       2.308   8.771  17.276  0.00  0.00    +0.000 OA
ATOM     10  H   UNL     1       1.730   7.062  19.908  0.00  0.00    +0.000 HD
BRANCH   8  11
ATOM     11  C   UNL     1       1.398   9.526  19.268  0.00  0.00    +0.000 A 
ATOM     12  C   UNL     1       0.827   9.130  20.479  0.00  0.00    +0.000 A 
ATOM     13  C   UNL     1       0.152  10.068  21.248  0.00  0.00    +0.000 A 
ATOM     14  C   UNL     1       0.056  11.370  20.760  0.00  0.00    +0.000 A 
ATOM     15  C   UNL     1       0.668  11.683  19.546  0.00  0.00    +0.000 A 
ATOM     16  N   UNL     1       1.366  10.796  18.789  0.00  0.00    +0.000 NA
ATOM     17  C   UNL     1      -0.679  12.388  21.526  0.00  0.00    +0.000 C 
ATOM     18  O   UNL     1      -0.786  13.530  21.064  0.00  0.00    +0.000 OA
ATOM     19  C   UNL     1      -1.271  12.010  22.876  0.00  0.00    +0.000 C 
ATOM     20  C   UNL     1      -1.101  10.572  23.258  0.00  0.00    +0.000 C 
ATOM     21  C   UNL     1      -0.453   9.670  22.512  0.00  0.00    +0.000 C 
ENDBRANCH   8  11
ENDBRANCH   5   7
BRANCH   1  23
ATOM     22  C   UNL     1       6.954   4.662  17.788  0.00  0.00    +0.000 C 
ATOM     23  C   UNL     1       5.963   4.963  16.657  0.00  0.00    +0.000 C 
BRANCH  23  24
ATOM     24  C   UNL     1       6.093   3.991  15.465  0.00  0.00    +0.000 C 
BRANCH  24  25
ATOM     25  C   UNL     1       6.861   4.588  14.334  0.00  0.00    +0.000 A 
ATOM     26  N   UNL     1       7.782   5.526  14.426  0.00  0.00    +0.000 NA
ATOM     27  N   UNL     1       8.276   5.769  13.167  0.00  0.00    +0.000 NA
ATOM     28  C   UNL     1       7.641   4.981  12.331  0.00  0.00    +0.000 A 
ATOM     29  N   UNL     1       6.741   4.225  13.017  0.00  0.00    +0.000 N 
ATOM     30  C   UNL     1       5.853   3.248  12.450  0.00  0.00    +0.000 C 
ENDBRANCH  24  25
ENDBRANCH  23  24
ENDBRANCH   1  23
TORSDOF 5
ENDMDL
MODEL 2
REMARK VINA RESULT:      -9.2      1.013      1.014
REMARK  Name = 
REMARK  7 active torsions:
REMARK  status: ('A' for Active; 'I' for Inactive)
REMARK    1  A    between atoms: C_1  and  C_2
REMARK    2  A    between atoms: C_2  and  C_3
REMARK    3  A    between atoms: C_2  and  C_10
REMARK    4  A    between atoms: C_3  and  C_4
REMARK    5  A    between atoms: N_8  and  C_9
REMARK    6  A    between atoms: C_14  and  N_15
REMARK    7  A    between atoms: C_16  and  C_18
REMARK                            x       y       z     vdW  Elec       q    Type
REMARK                         _______ _______ _______ _____ _____    ______ ____
ROOT
ATOM      1  C   UNL     1       4.874   4.761  16.972  0.00  0.00    +0.000 A 
ATOM      2  C   UNL     1       4.233   3.517  17.043  0.00  0.00    +0.000 A 
ATOM      3  C   UNL     1       2.905   3.440  17.437  0.00  0.00    +0.000 A 
ATOM      4  C   UNL     1       2.220   4.595  17.810  0.00  0.00    +0.000 A 
ATOM      5  C   UNL     1       2.847   5.845  17.815  0.00  0.00    +0.000 A 
ATOM      6  C   UNL     1       4.160   5.924  17.351  0.00  0.00    +0.000 A 
ENDROOT
BRANCH   5   7
ATOM      7  N   UNL     1       2.212   7.013  18.309  0.00  0.00    +0.000 N 
ATOM      8  C   UNL     1       1.998   7.266  19.651  0.00  0.00    +0.000 C 
ATOM      9  O   UNL     1       2.300   6.515  20.584  0.00  0.00    +0.000 OA
ATOM     10  H   UNL     1       2.040   7.784  17.668  0.00  0.00    +0.000 HD
BRANCH   8  11
ATOM     11  C   UNL     1       1.384   8.568  20.023  0.00  0.00    +0.000 A 
ATOM     12  C   UNL     1       0.740   8.629  21.261  0.00  0.00    +0.000 A 
ATOM     13  C   UNL     1       0.058   9.786  21.613  0.00  0.00    +0.000 A 
ATOM     14  C   UNL     1       0.029  10.835  20.695  0.00  0.00    +0.000 A 
ATOM     15  C   UNL     1       0.712  10.694  19.487  0.00  0.00    +0.000 A 
ATOM     16  N   UNL     1       1.418   9.589  19.131  0.00  0.00    +0.000 NA
ATOM     17  C   UNL     1      -0.710  12.066  21.013  0.00  0.00    +0.000 C 
ATOM     18  O   UNL     1      -0.755  12.975  20.176  0.00  0.00    +0.000 OA
ATOM     19  C   UNL     1      -1.381  12.193  22.373  0.00  0.00    +0.000 C 
ATOM     20  C   UNL     1      -1.278  10.978  23.242  0.00  0.00    +0.000 C 
ATOM     21  C   UNL     1      -0.623   9.864  22.898  0.00  0.00    +0.000 C 
ENDBRANCH   8  11
ENDBRANCH   5   7
BRANCH   1  23
ATOM     22  C   UNL     1       7.275   4.569  17.684  0.00  0.00    +0.000 C 
ATOM     23  C   UNL     1       6.324   4.813  16.505  0.00  0.00    +0.000 C 
BRANCH  23  24
ATOM     24  C   UNL     1       6.548   3.834  15.335  0.00  0.00    +0.000 C 
BRANCH  24  25
ATOM     25  C   UNL     1       7.082   4.519  14.122  0.00  0.00    +0.000 A 
ATOM     26  N   UNL     1       7.934   5.525  14.106  0.00  0.00    +0.000 NA
ATOM     27  N   UNL     1       8.204   5.839  12.796  0.00  0.00    +0.000 NA
ATOM     28  C   UNL     1       7.506   5.025  12.039  0.00  0.00    +0.000 A 
ATOM     29  N   UNL     1       6.784   4.182  12.827  0.00  0.00    +0.000 N 
ATOM     30  C   UNL     1       5.894   3.152  12.367  0.00  0.00    +0.000 C 
ENDBRANCH  24  25
ENDBRANCH  23  24
ENDBRANCH   1  23
TORSDOF 5
ENDMDL
MODEL 3
REMARK VINA RESULT:      -9.1      2.090      3.069
REMARK  Name = 
REMARK  7 active torsions:
REMARK  status: ('A' for Active; 'I' for Inactive)
REMARK    1  A    between atoms: C_1  and  C_2
REMARK    2  A    between atoms: C_2  and  C_3
REMARK    3  A    between atoms: C_2  and  C_10
REMARK    4  A    between atoms: C_3  and  C_4
REMARK    5  A    between atoms: N_8  and  C_9
REMARK    6  A    between atoms: C_14  and  N_15
REMARK    7  A    between atoms: C_16  and  C_18
REMARK                            x       y       z     vdW  Elec       q    Type
REMARK                         _______ _______ _______ _____ _____    ______ ____
ROOT
ATOM      1  C   UNL     1       4.743   4.181  16.611  0.00  0.00    +0.000 A 
ATOM      2  C   UNL     1       4.157   2.931  16.847  0.00  0.00    +0.000 A 
ATOM      3  C   UNL     1       2.907   2.850  17.444  0.00  0.00    +0.000 A 
ATOM      4  C   UNL     1       2.254   4.011  17.855  0.00  0.00    +0.000 A 
ATOM      5  C   UNL     1       2.839   5.272  17.696  0.00  0.00    +0.000 A 
ATOM      6  C   UNL     1       4.063   5.350  17.032  0.00  0.00    +0.000 A 
ENDROOT
BRANCH   5   7
ATOM      7  N   UNL     1       2.254   6.454  18.218  0.00  0.00    +0.000 N 
ATOM      8  C   UNL     1       2.223   6.770  19.563  0.00  0.00    +0.000 C 
ATOM      9  O   UNL     1       2.668   6.072  20.480  0.00  0.00    +0.000 OA
ATOM     10  H   UNL     1       1.978   7.189  17.572  0.00  0.00    +0.000 HD
BRANCH   8  11
ATOM     11  C   UNL     1       1.639   8.080  19.955  0.00  0.00    +0.000 A 
ATOM     12  C   UNL     1       1.058   8.155  21.223  0.00  0.00    +0.000 A 
ATOM     13  C   UNL     1       0.404   9.321  21.599  0.00  0.00    +0.000 A 
ATOM     14  C   UNL     1       0.338  10.363  20.676  0.00  0.00    +0.000 A 
ATOM     15  C   UNL     1       0.958  10.208  19.436  0.00  0.00    +0.000 A 
ATOM     16  N   UNL     1       1.636   9.094  19.054  0.00  0.00    +0.000 NA
ATOM     17  C   UNL     1      -0.375  11.603  21.021  0.00  0.00    +0.000 C 
ATOM     18  O   UNL     1      -0.455  12.506  20.181  0.00  0.00    +0.000 OA
ATOM     19  C   UNL     1      -0.976  11.746  22.411  0.00  0.00    +0.000 C 
ATOM     20  C   UNL     1      -0.839  10.536  23.284  0.00  0.00    +0.000 C 
ATOM     21  C   UNL     1      -0.211   9.414  22.916  0.00  0.00    +0.000 C 
ENDBRANCH   8  11
ENDBRANCH   5   7
BRANCH   1  23
ATOM     22  C   UNL     1       5.962   3.918  14.431  0.00  0.00    +0.000 C 
ATOM     23  C   UNL     1       6.103   4.235  15.925  0.00  0.00    +0.000 C 
BRANCH  23  24
ATOM     24  C   UNL     1       6.788   5.591  16.192  0.00  0.00    +0.000 C 
BRANCH  24  25
ATOM     25  C   UNL     1       7.353   5.675  17.571  0.00  0.00    +0.000 A 
ATOM     26  N   UNL     1       7.542   4.666  18.398  0.00  0.00    +0.000 NA
ATOM     27  N   UNL     1       8.117   5.153  19.547  0.00  0.00    +0.000 NA
ATOM     28  C   UNL     1       8.259   6.450  19.401  0.00  0.00    +0.000 A 
ATOM     29  N   UNL     1       7.791   6.823  18.179  0.00  0.00    +0.000 N 
ATOM     30  C   UNL     1       7.770   8.161  17.654  0.00  0.00    +0.000 C 
ENDBRANCH  24  25
ENDBRANCH  23  24
ENDBRANCH   1  23
TORSDOF 5
ENDMDL
MODEL 4
REMARK VINA RESULT:      -8.9      5.524      7.781
REMARK  Name = 
REMARK  7 active torsions:
REMARK  status: ('A' for Active; 'I' for Inactive)
REMARK    1  A    between atoms: C_1  and  C_2
REMARK    2  A    between atoms: C_2  and  C_3
REMARK    3  A    between atoms: C_2  and  C_10
REMARK    4  A    between atoms: C_3  and  C_4
REMARK    5  A    between atoms: N_8  and  C_9
REMARK    6  A    between atoms: C_14  and  N_15
REMARK    7  A    between atoms: C_16  and  C_18
REMARK                            x       y       z     vdW  Elec       q    Type
REMARK                         _______ _______ _______ _____ _____    ______ ____
ROOT
ATOM      1  C   UNL     1       4.495   5.055  17.082  0.00  0.00    +0.000 A 
ATOM      2  C   UNL     1       5.169   4.148  16.254  0.00  0.00    +0.000 A 
ATOM      3  C   UNL     1       6.444   4.443  15.791  0.00  0.00    +0.000 A 
ATOM      4  C   UNL     1       7.036   5.664  16.109  0.00  0.00    +0.000 A 
ATOM      5  C   UNL     1       6.365   6.621  16.878  0.00  0.00    +0.000 A 
ATOM      6  C   UNL     1       5.114   6.289  17.397  0.00  0.00    +0.000 A 
ENDROOT
BRANCH   5   7
ATOM      7  N   UNL     1       6.893   7.917  17.109  0.00  0.00    +0.000 N 
ATOM      8  C   UNL     1       7.890   8.192  18.027  0.00  0.00    +0.000 C 
ATOM      9  O   UNL     1       8.430   7.370  18.774  0.00  0.00    +0.000 OA
ATOM     10  H   UNL     1       6.647   8.667  16.467  0.00  0.00    +0.000 HD
BRANCH   8  11
ATOM     11  C   UNL     1       8.394   9.588  18.108  0.00  0.00    +0.000 A 
ATOM     12  C   UNL     1       9.359   9.853  19.082  0.00  0.00    +0.000 A 
ATOM     13  C   UNL     1       9.786  11.160  19.274  0.00  0.00    +0.000 A 
ATOM     14  C   UNL     1       9.209  12.160  18.493  0.00  0.00    +0.000 A 
ATOM     15  C   UNL     1       8.261  11.805  17.533  0.00  0.00    +0.000 A 
ATOM     16  N   UNL     1       7.850  10.531  17.297  0.00  0.00    +0.000 NA
ATOM     17  C   UNL     1       9.607  13.563  18.686  0.00  0.00    +0.000 C 
ATOM     18  O   UNL     1       9.063  14.443  18.010  0.00  0.00    +0.000 OA
ATOM     19  C   UNL     1      10.694  13.887  19.700  0.00  0.00    +0.000 C 
ATOM     20  C   UNL     1      11.205  12.711  20.475  0.00  0.00    +0.000 C 
ATOM     21  C   UNL     1      10.788  11.454  20.289  0.00  0.00    +0.000 C 
ENDBRANCH   8  11
ENDBRANCH   5   7
BRANCH   1  23
ATOM     22  C   UNL     1       2.699   3.299  17.086  0.00  0.00    +0.000 C 
ATOM     23  C   UNL     1       3.109   4.685  17.598  0.00  0.00    +0.000 C 
BRANCH  23  24
ATOM     24  C   UNL     1       3.059   4.801  19.135  0.00  0.00    +0.000 C 
BRANCH  24  25
ATOM     25  C   UNL     1       3.620   3.594  19.809  0.00  0.00    +0.000 A 
ATOM     26  N   UNL     1       4.843   3.122  19.671  0.00  0.00    +0.000 NA
ATOM     27  N   UNL     1       4.976   2.026  20.488  0.00  0.00    +0.000 NA
ATOM     28  C   UNL     1       3.830   1.846  21.102  0.00  0.00    +0.000 A 
ATOM     29  N   UNL     1       2.948   2.803  20.704  0.00  0.00    +0.000 N 
ATOM     30  C   UNL     1       1.588   2.935  21.149  0.00  0.00    +0.000 C 
ENDBRANCH  24  25
ENDBRANCH  23  24
ENDBRANCH   1  23
TORSDOF 5
ENDMDL
MODEL 5
REMARK VINA RESULT:      -8.8      0.988      1.854
REMARK  Name = 
REMARK  7 active torsions:
REMARK  status: ('A' for Active; 'I' for Inactive)
REMARK    1  A    between atoms: C_1  and  C_2
REMARK    2  A    between atoms: C_2  and  C_3
REMARK    3  A    between atoms: C_2  and  C_10
REMARK    4  A    between atoms: C_3  and  C_4
REMARK    5  A    between atoms: N_8  and  C_9
REMARK    6  A    between atoms: C_14  and  N_15
REMARK    7  A    between atoms: C_16  and  C_18
REMARK                            x       y       z     vdW  Elec       q    Type
REMARK                         _______ _______ _______ _____ _____    ______ ____
ROOT
ATOM      1  C   UNL     1       4.571   4.932  17.382  0.00  0.00    +0.000 A 
ATOM      2  C   UNL     1       3.899   3.709  17.504  0.00  0.00    +0.000 A 
ATOM      3  C   UNL     1       2.639   3.662  18.083  0.00  0.00    +0.000 A 
ATOM      4  C   UNL     1       2.060   4.825  18.589  0.00  0.00    +0.000 A 
ATOM      5  C   UNL     1       2.730   6.051  18.544  0.00  0.00    +0.000 A 
ATOM      6  C   UNL     1       3.965   6.103  17.898  0.00  0.00    +0.000 A 
ENDROOT
BRANCH   5   7
ATOM      7  N   UNL     1       2.219   7.221  19.163  0.00  0.00    +0.000 N 
ATOM      8  C   UNL     1       2.010   8.416  18.499  0.00  0.00    +0.000 C 
ATOM      9  O   UNL     1       2.258   8.634  17.309  0.00  0.00    +0.000 OA
ATOM     10  H   UNL     1       1.835   7.150  20.102  0.00  0.00    +0.000 HD
BRANCH   8  11
ATOM     11  C   UNL     1       1.400   9.537  19.262  0.00  0.00    +0.000 A 
ATOM     12  C   UNL     1       1.343  10.777  18.622  0.00  0.00    +0.000 A 
ATOM     13  C   UNL     1       0.882  11.881  19.326  0.00  0.00    +0.000 A 
ATOM     14  C   UNL     1       0.514  11.703  20.658  0.00  0.00    +0.000 A 
ATOM     15  C   UNL     1       0.589  10.426  21.215  0.00  0.00    +0.000 A 
ATOM     16  N   UNL     1       1.001   9.320  20.541  0.00  0.00    +0.000 NA
ATOM     17  C   UNL     1       0.052  12.853  21.451  0.00  0.00    +0.000 C 
ATOM     18  O   UNL     1      -0.239  12.687  22.641  0.00  0.00    +0.000 OA
ATOM     19  C   UNL     1      -0.075  14.210  20.776  0.00  0.00    +0.000 C 
ATOM     20  C   UNL     1       0.374  14.248  19.347  0.00  0.00    +0.000 C 
ATOM     21  C   UNL     1       0.822  13.182  18.674  0.00  0.00    +0.000 C 
ENDBRANCH   8  11
ENDBRANCH   5   7
BRANCH   1  23
ATOM     22  C   UNL     1       7.032   4.558  17.715  0.00  0.00    +0.000 C 
ATOM     23  C   UNL     1       5.940   4.952  16.712  0.00  0.00    +0.000 C 
BRANCH  23  24
ATOM     24  C   UNL     1       5.934   4.069  15.448  0.00  0.00    +0.000 C 
BRANCH  24  25
ATOM     25  C   UNL     1       6.810   4.619  14.372  0.00  0.00    +0.000 A 
ATOM     26  N   UNL     1       7.755   5.525  14.524  0.00  0.00    +0.000 NA
ATOM     27  N   UNL     1       8.355   5.730  13.305  0.00  0.00    +0.000 NA
ATOM     28  C   UNL     1       7.758   4.952  12.433  0.00  0.00    +0.000 A 
ATOM     29  N   UNL     1       6.780   4.240  13.055  0.00  0.00    +0.000 N 
ATOM     30  C   UNL     1       5.903   3.286  12.433  0.00  0.00    +0.000 C 
ENDBRANCH  24  25
ENDBRANCH  23  24
ENDBRANCH   1  23
TORSDOF 5
ENDMDL
MODEL 6
REMARK VINA RESULT:      -8.8      1.326      1.951
REMARK  Name = 
REMARK  7 active torsions:
REMARK  status: ('A' for Active; 'I' for Inactive)
REMARK    1  A    between atoms: C_1  and  C_2
REMARK    2  A    between atoms: C_2  and  C_3
REMARK    3  A    between atoms: C_2  and  C_10
REMARK    4  A    between atoms: C_3  and  C_4
REMARK    5  A    between atoms: N_8  and  C_9
REMARK    6  A    between atoms: C_14  and  N_15
REMARK    7  A    between atoms: C_16  and  C_18
REMARK                            x       y       z     vdW  Elec       q    Type
REMARK                         _______ _______ _______ _____ _____    ______ ____
ROOT
ATOM      1  C   UNL     1       4.633   4.853  17.150  0.00  0.00    +0.000 A 
ATOM      2  C   UNL     1       3.991   3.610  17.223  0.00  0.00    +0.000 A 
ATOM      3  C   UNL     1       2.681   3.529  17.673  0.00  0.00    +0.000 A 
ATOM      4  C   UNL     1       2.017   4.677  18.100  0.00  0.00    +0.000 A 
ATOM      5  C   UNL     1       2.649   5.925  18.104  0.00  0.00    +0.000 A 
ATOM      6  C   UNL     1       3.941   6.010  17.584  0.00  0.00    +0.000 A 
ENDROOT
BRANCH   5   7
ATOM      7  N   UNL     1       2.041   7.085  18.649  0.00  0.00    +0.000 N 
ATOM      8  C   UNL     1       1.748   7.243  19.991  0.00  0.00    +0.000 C 
ATOM      9  O   UNL     1       1.948   6.406  20.878  0.00  0.00    +0.000 OA
ATOM     10  H   UNL     1       1.952   7.912  18.064  0.00  0.00    +0.000 HD
BRANCH   8  11
ATOM     11  C   UNL     1       1.177   8.544  20.429  0.00  0.00    +0.000 A 
ATOM     12  C   UNL     1       1.154   9.571  19.483  0.00  0.00    +0.000 A 
ATOM     13  C   UNL     1       0.731  10.836  19.868  0.00  0.00    +0.000 A 
ATOM     14  C   UNL     1       0.366  11.029  21.199  0.00  0.00    +0.000 A 
ATOM     15  C   UNL     1       0.406   9.943  22.074  0.00  0.00    +0.000 A 
ATOM     16  N   UNL     1       0.780   8.686  21.719  0.00  0.00    +0.000 NA
ATOM     17  C   UNL     1      -0.057  12.361  21.658  0.00  0.00    +0.000 C 
ATOM     18  O   UNL     1      -0.344  12.526  22.849  0.00  0.00    +0.000 OA
ATOM     19  C   UNL     1      -0.147  13.495  20.647  0.00  0.00    +0.000 C 
ATOM     20  C   UNL     1       0.294  13.139  19.260  0.00  0.00    +0.000 C 
ATOM     21  C   UNL     1       0.705  11.920  18.894  0.00  0.00    +0.000 C 
ENDBRANCH   8  11
ENDBRANCH   5   7
BRANCH   1  23
ATOM     22  C   UNL     1       7.061   4.630  17.750  0.00  0.00    +0.000 C 
ATOM     23  C   UNL     1       6.061   4.911  16.621  0.00  0.00    +0.000 C 
BRANCH  23  24
ATOM     24  C   UNL     1       6.227   3.963  15.416  0.00  0.00    +0.000 C 
BRANCH  24  25
ATOM     25  C   UNL     1       6.966   4.606  14.291  0.00  0.00    +0.000 A 
ATOM     26  N   UNL     1       7.903   5.527  14.399  0.00  0.00    +0.000 NA
ATOM     27  N   UNL     1       8.359   5.828  13.138  0.00  0.00    +0.000 NA
ATOM     28  C   UNL     1       7.686   5.091  12.286  0.00  0.00    +0.000 A 
ATOM     29  N   UNL     1       6.798   4.312  12.962  0.00  0.00    +0.000 N 
ATOM     30  C   UNL     1       5.879   3.376  12.377  0.00  0.00    +0.000 C 
ENDBRANCH  24  25
ENDBRANCH  23  24
ENDBRANCH   1  23
TORSDOF 5
ENDMDL
MODEL 7
REMARK VINA RESULT:      -8.6      2.111      2.905
REMARK  Name = 
REMARK  7 active torsions:
REMARK  status: ('A' for Active; 'I' for Inactive)
REMARK    1  A    between atoms: C_1  and  C_2
REMARK    2  A    between atoms: C_2  and  C_3
REMARK    3  A    between atoms: C_2  and  C_10
REMARK    4  A    between atoms: C_3  and  C_4
REMARK    5  A    between atoms: N_8  and  C_9
REMARK    6  A    between atoms: C_14  and  N_15
REMARK    7  A    between atoms: C_16  and  C_18
REMARK                            x       y       z     vdW  Elec       q    Type
REMARK                         _______ _______ _______ _____ _____    ______ ____
ROOT
ATOM      1  C   UNL     1       3.081   3.345  19.277  0.00  0.00    +0.000 A 
ATOM      2  C   UNL     1       3.194   2.482  20.375  0.00  0.00    +0.000 A 
ATOM      3  C   UNL     1       2.662   2.847  21.603  0.00  0.00    +0.000 A 
ATOM      4  C   UNL     1       2.058   4.094  21.760  0.00  0.00    +0.000 A 
ATOM      5  C   UNL     1       1.987   5.007  20.703  0.00  0.00    +0.000 A 
ATOM      6  C   UNL     1       2.460   4.606  19.454  0.00  0.00    +0.000 A 
ENDROOT
BRANCH   5   7
ATOM      7  N   UNL     1       1.492   6.326  20.869  0.00  0.00    +0.000 N 
ATOM      8  C   UNL     1       1.891   7.402  20.098  0.00  0.00    +0.000 C 
ATOM      9  O   UNL     1       2.733   7.371  19.194  0.00  0.00    +0.000 OA
ATOM     10  H   UNL     1       0.690   6.474  21.475  0.00  0.00    +0.000 HD
BRANCH   8  11
ATOM     11  C   UNL     1       1.231   8.712  20.339  0.00  0.00    +0.000 A 
ATOM     12  C   UNL     1       0.574   8.870  21.561  0.00  0.00    +0.000 A 
ATOM     13  C   UNL     1      -0.149  10.032  21.796  0.00  0.00    +0.000 A 
ATOM     14  C   UNL     1      -0.205  10.986  20.781  0.00  0.00    +0.000 A 
ATOM     15  C   UNL     1       0.493  10.753  19.596  0.00  0.00    +0.000 A 
ATOM     16  N   UNL     1       1.238   9.643  19.352  0.00  0.00    +0.000 NA
ATOM     17  C   UNL     1      -0.987  12.216  20.974  0.00  0.00    +0.000 C 
ATOM     18  O   UNL     1      -1.056  13.038  20.053  0.00  0.00    +0.000 OA
ATOM     19  C   UNL     1      -1.674  12.451  22.311  0.00  0.00    +0.000 C 
ATOM     20  C   UNL     1      -1.539  11.329  23.295  0.00  0.00    +0.000 C 
ATOM     21  C   UNL     1      -0.844  10.210  23.064  0.00  0.00    +0.000 C 
ENDBRANCH   8  11
ENDBRANCH   5   7
BRANCH   1  23
ATOM     22  C   UNL     1       2.592   2.122  17.138  0.00  0.00    +0.000 C 
ATOM     23  C   UNL     1       3.648   2.900  17.934  0.00  0.00    +0.000 C 
BRANCH  23  24
ATOM     24  C   UNL     1       4.217   4.108  17.162  0.00  0.00    +0.000 C 
BRANCH  24  25
ATOM     25  C   UNL     1       5.657   4.345  17.470  0.00  0.00    +0.000 A 
ATOM     26  N   UNL     1       6.180   4.519  18.667  0.00  0.00    +0.000 NA
ATOM     27  N   UNL     1       7.539   4.666  18.526  0.00  0.00    +0.000 NA
ATOM     28  C   UNL     1       7.817   4.587  17.246  0.00  0.00    +0.000 A 
ATOM     29  N   UNL     1       6.667   4.390  16.544  0.00  0.00    +0.000 N 
ATOM     30  C   UNL     1       6.561   4.259  15.117  0.00  0.00    +0.000 C 
ENDBRANCH  24  25
ENDBRANCH  23  24
ENDBRANCH   1  23
TORSDOF 5
ENDMDL
MODEL 8
REMARK VINA RESULT:      -8.5      5.532      8.087
REMARK  Name = 
REMARK  7 active torsions:
REMARK  status: ('A' for Active; 'I' for Inactive)
REMARK    1  A    between atoms: C_1  and  C_2
REMARK    2  A    between atoms: C_2  and  C_3
REMARK    3  A    between atoms: C_2  and  C_10
REMARK    4  A    between atoms: C_3  and  C_4
REMARK    5  A    between atoms: N_8  and  C_9
REMARK    6  A    between atoms: C_14  and  N_15
REMARK    7  A    between atoms: C_16  and  C_18
REMARK                            x       y       z     vdW  Elec       q    Type
REMARK                         _______ _______ _______ _____ _____    ______ ____
ROOT
ATOM      1  C   UNL     1       4.503   5.288  17.178  0.00  0.00    +0.000 A 
ATOM      2  C   UNL     1       5.216   4.299  16.487  0.00  0.00    +0.000 A 
ATOM      3  C   UNL     1       6.532   4.526  16.110  0.00  0.00    +0.000 A 
ATOM      4  C   UNL     1       7.132   5.756  16.374  0.00  0.00    +0.000 A 
ATOM      5  C   UNL     1       6.428   6.790  17.002  0.00  0.00    +0.000 A 
ATOM      6  C   UNL     1       5.130   6.531  17.440  0.00  0.00    +0.000 A 
ENDROOT
BRANCH   5   7
ATOM      7  N   UNL     1       6.973   8.089  17.168  0.00  0.00    +0.000 N 
ATOM      8  C   UNL     1       7.997   8.390  18.047  0.00  0.00    +0.000 C 
ATOM      9  O   UNL     1       8.550   7.592  18.811  0.00  0.00    +0.000 OA
ATOM     10  H   UNL     1       6.717   8.815  16.504  0.00  0.00    +0.000 HD
BRANCH   8  11
ATOM     11  C   UNL     1       8.514   9.783  18.060  0.00  0.00    +0.000 A 
ATOM     12  C   UNL     1       9.631  10.032  18.862  0.00  0.00    +0.000 A 
ATOM     13  C   UNL     1      10.090  11.335  18.996  0.00  0.00    +0.000 A 
ATOM     14  C   UNL     1       9.395  12.347  18.335  0.00  0.00    +0.000 A 
ATOM     15  C   UNL     1       8.298  12.007  17.544  0.00  0.00    +0.000 A 
ATOM     16  N   UNL     1       7.847  10.738  17.364  0.00  0.00    +0.000 NA
ATOM     17  C   UNL     1       9.828  13.746  18.476  0.00  0.00    +0.000 C 
ATOM     18  O   UNL     1       9.182  14.637  17.913  0.00  0.00    +0.000 OA
ATOM     19  C   UNL     1      11.071  14.054  19.298  0.00  0.00    +0.000 C 
ATOM     20  C   UNL     1      11.699  12.866  19.960  0.00  0.00    +0.000 C 
ATOM     21  C   UNL     1      11.250  11.613  19.832  0.00  0.00    +0.000 C 
ENDBRANCH   8  11
ENDBRANCH   5   7
BRANCH   1  23
ATOM     22  C   UNL     1       2.712   3.533  17.309  0.00  0.00    +0.000 C 
ATOM     23  C   UNL     1       3.069   4.995  17.605  0.00  0.00    +0.000 C 
BRANCH  23  24
ATOM     24  C   UNL     1       2.858   5.382  19.083  0.00  0.00    +0.000 C 
BRANCH  24  25
ATOM     25  C   UNL     1       2.309   4.252  19.888  0.00  0.00    +0.000 A 
ATOM     26  N   UNL     1       1.060   4.114  20.286  0.00  0.00    +0.000 NA
ATOM     27  N   UNL     1       0.954   2.925  20.965  0.00  0.00    +0.000 NA
ATOM     28  C   UNL     1       2.142   2.365  20.975  0.00  0.00    +0.000 A 
ATOM     29  N   UNL     1       3.024   3.164  20.315  0.00  0.00    +0.000 N 
ATOM     30  C   UNL     1       4.422   2.896  20.120  0.00  0.00    +0.000 C 
ENDBRANCH  24  25
ENDBRANCH  23  24
ENDBRANCH   1  23
TORSDOF 5
ENDMDL
MODEL 9
REMARK VINA RESULT:      -8.4      4.275     10.658
REMARK  Name = 
REMARK  7 active torsions:
REMARK  status: ('A' for Active; 'I' for Inactive)
REMARK    1  A    between atoms: C_1  and  C_2
REMARK    2  A    between atoms: C_2  and  C_3
REMARK    3  A    between atoms: C_2  and  C_10
REMARK    4  A    between atoms: C_3  and  C_4
REMARK    5  A    between atoms: N_8  and  C_9
REMARK    6  A    between atoms: C_14  and  N_15
REMARK    7  A    between atoms: C_16  and  C_18
REMARK                            x       y       z     vdW  Elec       q    Type
REMARK                         _______ _______ _______ _____ _____    ______ ____
ROOT
ATOM      1  C   UNL     1      -2.313  11.308  18.235  0.00  0.00    +0.000 A 
ATOM      2  C   UNL     1      -2.320  12.207  19.309  0.00  0.00    +0.000 A 
ATOM      3  C   UNL     1      -1.327  12.143  20.276  0.00  0.00    +0.000 A 
ATOM      4  C   UNL     1      -0.348  11.154  20.207  0.00  0.00    +0.000 A 
ATOM      5  C   UNL     1      -0.348  10.199  19.185  0.00  0.00    +0.000 A 
ATOM      6  C   UNL     1      -1.308  10.312  18.179  0.00  0.00    +0.000 A 
ENDROOT
BRANCH   5   7
ATOM      7  N   UNL     1       0.559   9.109  19.161  0.00  0.00    +0.000 N 
ATOM      8  C   UNL     1       1.632   9.017  18.294  0.00  0.00    +0.000 C 
ATOM      9  O   UNL     1       1.928   9.840  17.422  0.00  0.00    +0.000 OA
ATOM     10  H   UNL     1       0.526   8.429  19.916  0.00  0.00    +0.000 HD
BRANCH   8  11
ATOM     11  C   UNL     1       2.541   7.850  18.435  0.00  0.00    +0.000 A 
ATOM     12  C   UNL     1       3.416   7.601  17.375  0.00  0.00    +0.000 A 
ATOM     13  C   UNL     1       4.210   6.463  17.406  0.00  0.00    +0.000 A 
ATOM     14  C   UNL     1       4.081   5.602  18.494  0.00  0.00    +0.000 A 
ATOM     15  C   UNL     1       3.192   5.934  19.516  0.00  0.00    +0.000 A 
ATOM     16  N   UNL     1       2.429   7.058  19.532  0.00  0.00    +0.000 NA
ATOM     17  C   UNL     1       4.879   4.368  18.551  0.00  0.00    +0.000 C 
ATOM     18  O   UNL     1       4.729   3.596  19.504  0.00  0.00    +0.000 OA
ATOM     19  C   UNL     1       5.882   4.087  17.442  0.00  0.00    +0.000 C 
ATOM     20  C   UNL     1       5.895   5.094  16.333  0.00  0.00    +0.000 C 
ATOM     21  C   UNL     1       5.124   6.187  16.305  0.00  0.00    +0.000 C 
ENDBRANCH   8  11
ENDBRANCH   5   7
BRANCH   1  23
ATOM     22  C   UNL     1      -2.919  10.828  15.845  0.00  0.00    +0.000 C 
ATOM     23  C   UNL     1      -3.400  11.426  17.173  0.00  0.00    +0.000 C 
BRANCH  23  24
ATOM     24  C   UNL     1      -4.715  10.797  17.678  0.00  0.00    +0.000 C 
BRANCH  24  25
ATOM     25  C   UNL     1      -5.831  11.786  17.724  0.00  0.00    +0.000 A 
ATOM     26  N   UNL     1      -5.989  12.821  16.923  0.00  0.00    +0.000 NA
ATOM     27  N   UNL     1      -7.158  13.457  17.267  0.00  0.00    +0.000 NA
ATOM     28  C   UNL     1      -7.685  12.802  18.276  0.00  0.00    +0.000 A 
ATOM     29  N   UNL     1      -6.886  11.750  18.600  0.00  0.00    +0.000 N 
ATOM     30  C   UNL     1      -7.123  10.803  19.654  0.00  0.00    +0.000 C 
ENDBRANCH  24  25
ENDBRANCH  23  24
ENDBRANCH   1  23
TORSDOF 5
ENDMDL
