MODEL 1
REMARK VINA RESULT:      -9.0      0.000      0.000
REMARK  Name = 
REMARK  6 active torsions:
REMARK  status: ('A' for Active; 'I' for Inactive)
REMARK    1  A    between atoms: C_2  and  C_20
REMARK    2  A    between atoms: N_3  and  C_4
REMARK    3  A    between atoms: C_8  and  S_9
REMARK    4  A    between atoms: S_9  and  N_12
REMARK    5  A    between atoms: N_12  and  C_13
REMARK    6  A    between atoms: C_13  and  C_14
REMARK                            x       y       z     vdW  Elec       q    Type
REMARK                         _______ _______ _______ _____ _____    ______ ____
ROOT
ATOM      1  C   UNL     1       3.018   5.384  19.967  0.00  0.00    +0.000 A 
ATOM      2  C   UNL     1       2.654   4.052  20.185  0.00  0.00    +0.000 A 
ATOM      3  C   UNL     1       3.451   3.006  19.704  0.00  0.00    +0.000 A 
ATOM      4  C   UNL     1       4.631   3.278  19.014  0.00  0.00    +0.000 A 
ATOM      5  C   UNL     1       5.007   4.606  18.809  0.00  0.00    +0.000 A 
ATOM      6  C   UNL     1       4.193   5.657  19.259  0.00  0.00    +0.000 A 
ENDROOT
BRANCH   1   9
ATOM      7  O   UNL     1       2.357   7.904  18.565  0.00  0.00    +0.000 OA
ATOM      8  C   UNL     1       2.008   7.668  19.718  0.00  0.00    +0.000 C 
ATOM      9  N   UNL     1       2.243   6.480  20.391  0.00  0.00    +0.000 N 
ATOM     10  H   UNL     1       1.774   6.402  21.289  0.00  0.00    +0.000 HD
BRANCH   8  11
ATOM     11  C   UNL     1       1.278   8.636  20.515  0.00  0.00    +0.000 A 
ATOM     12  C   UNL     1       1.001   8.676  21.870  0.00  0.00    +0.000 A 
ATOM     13  C   UNL     1       0.125   9.773  22.081  0.00  0.00    +0.000 A 
ATOM     14  C   UNL     1      -0.570  10.310  23.180  0.00  0.00    +0.000 A 
ATOM     15  C   UNL     1      -1.422  11.402  22.966  0.00  0.00    +0.000 A 
ATOM     16  C   UNL     1      -1.562  11.972  21.697  0.00  0.00    +0.000 A 
ATOM     17  C   UNL     1      -0.855  11.471  20.599  0.00  0.00    +0.000 A 
ATOM     18  C   UNL     1      -0.039  10.368  20.836  0.00  0.00    +0.000 A 
ATOM     19  O   UNL     1       0.683   9.705  19.892  0.00  0.00    +0.000 OA
ENDBRANCH   8  11
ENDBRANCH   1   9
BRANCH   5  20
ATOM     20  S   UNL     1       6.464   4.981  17.852  0.00  0.00    +0.000 S 
ATOM     21  O   UNL     1       6.330   6.331  17.352  0.00  0.00    +0.000 OA
ATOM     22  O   UNL     1       7.599   4.573  18.647  0.00  0.00    +0.000 OA
BRANCH  20  23
ATOM     23  N   UNL     1       6.357   3.905  16.557  0.00  0.00    +0.000 NA
ATOM     24  H   UNL     1       6.193   2.945  16.861  0.00  0.00    +0.000 HD
BRANCH  23  25
ATOM     25  C   UNL     1       5.430   4.303  15.485  0.00  0.00    +0.000 C 
BRANCH  25  26
ATOM     26  C   UNL     1       6.184   4.375  14.205  0.00  0.00    +0.000 A 
ATOM     27  C   UNL     1       6.118   3.672  13.019  0.00  0.00    +0.000 A 
ATOM     28  C   UNL     1       7.161   4.169  12.196  0.00  0.00    +0.000 A 
ATOM     29  C   UNL     1       7.784   5.151  12.928  0.00  0.00    +0.000 A 
ATOM     30  O   UNL     1       7.195   5.293  14.143  0.00  0.00    +0.000 OA
ENDBRANCH  25  26
ENDBRANCH  23  25
ENDBRANCH  20  23
ENDBRANCH   5  20
TORSDOF 6
ENDMDL
MODEL 2
REMARK VINA RESULT:      -8.6      1.661      1.990
REMARK  Name = 
REMARK  6 active torsions:
REMARK  status: ('A' for Active; 'I' for Inactive)
REMARK    1  A    between atoms: C_2  and  C_20
REMARK    2  A    between atoms: N_3  and  C_4
REMARK    3  A    between atoms: C_8  and  S_9
REMARK    4  A    between atoms: S_9  and  N_12
REMARK    5  A    between atoms: N_12  and  C_13
REMARK    6  A    between atoms: C_13  and  C_14
REMARK                            x       y       z     vdW  Elec       q    Type
REMARK                         _______ _______ _______ _____ _____    ______ ____
ROOT
ATOM      1  C   UNL     1       3.321   5.916  18.165  0.00  0.00    +0.000 A 
ATOM      2  C   UNL     1       2.694   4.700  17.879  0.00  0.00    +0.000 A 
ATOM      3  C   UNL     1       3.334   3.734  17.093  0.00  0.00    +0.000 A 
ATOM      4  C   UNL     1       4.616   3.965  16.596  0.00  0.00    +0.000 A 
ATOM      5  C   UNL     1       5.252   5.171  16.894  0.00  0.00    +0.000 A 
ATOM      6  C   UNL     1       4.600   6.155  17.652  0.00  0.00    +0.000 A 
ENDROOT
BRANCH   1   9
ATOM      7  O   UNL     1       2.067   5.827  20.844  0.00  0.00    +0.000 OA
ATOM      8  C   UNL     1       2.091   6.839  20.149  0.00  0.00    +0.000 C 
ATOM      9  N   UNL     1       2.718   6.943  18.918  0.00  0.00    +0.000 N 
ATOM     10  H   UNL     1       2.755   7.884  18.539  0.00  0.00    +0.000 HD
BRANCH   8  11
ATOM     11  C   UNL     1       1.456   8.075  20.567  0.00  0.00    +0.000 A 
ATOM     12  C   UNL     1       1.026   8.502  21.811  0.00  0.00    +0.000 A 
ATOM     13  C   UNL     1       0.343   9.730  21.613  0.00  0.00    +0.000 A 
ATOM     14  C   UNL     1      -0.374  10.627  22.427  0.00  0.00    +0.000 A 
ATOM     15  C   UNL     1      -0.981  11.739  21.827  0.00  0.00    +0.000 A 
ATOM     16  C   UNL     1      -0.859  11.976  20.455  0.00  0.00    +0.000 A 
ATOM     17  C   UNL     1      -0.124  11.112  19.635  0.00  0.00    +0.000 A 
ATOM     18  C   UNL     1       0.443  10.002  20.255  0.00  0.00    +0.000 A 
ATOM     19  O   UNL     1       1.145   9.020  19.623  0.00  0.00    +0.000 OA
ENDBRANCH   8  11
ENDBRANCH   1   9
BRANCH   5  20
ATOM     20  S   UNL     1       6.853   5.528  16.197  0.00  0.00    +0.000 S 
ATOM     21  O   UNL     1       7.240   6.852  16.630  0.00  0.00    +0.000 OA
ATOM     22  O   UNL     1       7.683   4.372  16.448  0.00  0.00    +0.000 OA
BRANCH  20  23
ATOM     23  N   UNL     1       6.549   5.563  14.537  0.00  0.00    +0.000 NA
ATOM     24  H   UNL     1       6.635   6.502  14.146  0.00  0.00    +0.000 HD
BRANCH  23  25
ATOM     25  C   UNL     1       7.290   4.572  13.741  0.00  0.00    +0.000 C 
BRANCH  25  26
ATOM     26  C   UNL     1       6.330   3.855  12.859  0.00  0.00    +0.000 A 
ATOM     27  C   UNL     1       4.973   3.971  12.636  0.00  0.00    +0.000 A 
ATOM     28  C   UNL     1       4.626   2.944  11.720  0.00  0.00    +0.000 A 
ATOM     29  C   UNL     1       5.795   2.281  11.435  0.00  0.00    +0.000 A 
ATOM     30  O   UNL     1       6.837   2.829  12.111  0.00  0.00    +0.000 OA
ENDBRANCH  25  26
ENDBRANCH  23  25
ENDBRANCH  20  23
ENDBRANCH   5  20
TORSDOF 6
ENDMDL
MODEL 3
REMARK VINA RESULT:      -8.6      1.032      1.197
REMARK  Name = 
REMARK  6 active torsions:
REMARK  status: ('A' for Active; 'I' for Inactive)
REMARK    1  A    between atoms: C_2  and  C_20
REMARK    2  A    between atoms: N_3  and  C_4
REMARK    3  A    between atoms: C_8  and  S_9
REMARK    4  A    between atoms: S_9  and  N_12
REMARK    5  A    between atoms: N_12  and  C_13
REMARK    6  A    between atoms: C_13  and  C_14
REMARK                            x       y       z     vdW  Elec       q    Type
REMARK                         _______ _______ _______ _____ _____    ______ ____
ROOT
ATOM      1  C   UNL     1       3.613   5.449  19.227  0.00  0.00    +0.000 A 
ATOM      2  C   UNL     1       3.177   4.158  18.916  0.00  0.00    +0.000 A 
ATOM      3  C   UNL     1       4.027   3.253  18.269  0.00  0.00    +0.000 A 
ATOM      4  C   UNL     1       5.330   3.623  17.938  0.00  0.00    +0.000 A 
ATOM      5  C   UNL     1       5.775   4.906  18.261  0.00  0.00    +0.000 A 
ATOM      6  C   UNL     1       4.915   5.826  18.879  0.00  0.00    +0.000 A 
ENDROOT
BRANCH   1   9
ATOM      7  O   UNL     1       2.144   7.731  18.049  0.00  0.00    +0.000 OA
ATOM      8  C   UNL     1       2.174   7.505  19.255  0.00  0.00    +0.000 C 
ATOM      9  N   UNL     1       2.797   6.417  19.844  0.00  0.00    +0.000 N 
ATOM     10  H   UNL     1       2.614   6.310  20.837  0.00  0.00    +0.000 HD
BRANCH   8  11
ATOM     11  C   UNL     1       1.526   8.376  20.218  0.00  0.00    +0.000 A 
ATOM     12  C   UNL     1       1.150   8.160  21.532  0.00  0.00    +0.000 A 
ATOM     13  C   UNL     1       0.422   9.306  21.947  0.00  0.00    +0.000 A 
ATOM     14  C   UNL     1      -0.275   9.690  23.107  0.00  0.00    +0.000 A 
ATOM     15  C   UNL     1      -0.946  10.921  23.110  0.00  0.00    +0.000 A 
ATOM     16  C   UNL     1      -0.903  11.770  21.999  0.00  0.00    +0.000 A 
ATOM     17  C   UNL     1      -0.188  11.418  20.849  0.00  0.00    +0.000 A 
ATOM     18  C   UNL     1       0.443  10.177  20.866  0.00  0.00    +0.000 A 
ATOM     19  O   UNL     1       1.138   9.634  19.829  0.00  0.00    +0.000 OA
ENDBRANCH   8  11
ENDBRANCH   1   9
BRANCH   5  20
ATOM     20  S   UNL     1       7.405   5.432  17.769  0.00  0.00    +0.000 S 
ATOM     21  O   UNL     1       7.752   6.595  18.556  0.00  0.00    +0.000 OA
ATOM     22  O   UNL     1       8.236   4.250  17.750  0.00  0.00    +0.000 OA
BRANCH  20  23
ATOM     23  N   UNL     1       7.186   5.905  16.164  0.00  0.00    +0.000 NA
ATOM     24  H   UNL     1       8.032   5.790  15.606  0.00  0.00    +0.000 HD
BRANCH  23  25
ATOM     25  C   UNL     1       6.010   5.326  15.494  0.00  0.00    +0.000 C 
BRANCH  25  26
ATOM     26  C   UNL     1       6.437   4.764  14.184  0.00  0.00    +0.000 A 
ATOM     27  C   UNL     1       7.532   4.972  13.370  0.00  0.00    +0.000 A 
ATOM     28  C   UNL     1       7.327   4.182  12.210  0.00  0.00    +0.000 A 
ATOM     29  C   UNL     1       6.130   3.536  12.398  0.00  0.00    +0.000 A 
ATOM     30  O   UNL     1       5.585   3.871  13.596  0.00  0.00    +0.000 OA
ENDBRANCH  25  26
ENDBRANCH  23  25
ENDBRANCH  20  23
ENDBRANCH   5  20
TORSDOF 6
ENDMDL
MODEL 4
REMARK VINA RESULT:      -8.5      3.048      3.868
REMARK  Name = 
REMARK  6 active torsions:
REMARK  status: ('A' for Active; 'I' for Inactive)
REMARK    1  A    between atoms: C_2  and  C_20
REMARK    2  A    between atoms: N_3  and  C_4
REMARK    3  A    between atoms: C_8  and  S_9
REMARK    4  A    between atoms: S_9  and  N_12
REMARK    5  A    between atoms: N_12  and  C_13
REMARK    6  A    between atoms: C_13  and  C_14
REMARK                            x       y       z     vdW  Elec       q    Type
REMARK                         _______ _______ _______ _____ _____    ______ ____
ROOT
ATOM      1  C   UNL     1       3.262   5.869  18.158  0.00  0.00    +0.000 A 
ATOM      2  C   UNL     1       2.707   4.720  17.587  0.00  0.00    +0.000 A 
ATOM      3  C   UNL     1       3.483   3.878  16.781  0.00  0.00    +0.000 A 
ATOM      4  C   UNL     1       4.827   4.164  16.550  0.00  0.00    +0.000 A 
ATOM      5  C   UNL     1       5.390   5.301  17.133  0.00  0.00    +0.000 A 
ATOM      6  C   UNL     1       4.606   6.166  17.912  0.00  0.00    +0.000 A 
ENDROOT
BRANCH   1   9
ATOM      7  O   UNL     1       2.288   8.590  17.522  0.00  0.00    +0.000 OA
ATOM      8  C   UNL     1       2.143   8.067  18.623  0.00  0.00    +0.000 C 
ATOM      9  N   UNL     1       2.528   6.776  18.947  0.00  0.00    +0.000 N 
ATOM     10  H   UNL     1       2.215   6.457  19.859  0.00  0.00    +0.000 HD
BRANCH   8  11
ATOM     11  C   UNL     1       1.519   8.767  19.731  0.00  0.00    +0.000 A 
ATOM     12  C   UNL     1       1.107   8.319  20.974  0.00  0.00    +0.000 A 
ATOM     13  C   UNL     1       0.428   9.398  21.598  0.00  0.00    +0.000 A 
ATOM     14  C   UNL     1      -0.273   9.585  22.803  0.00  0.00    +0.000 A 
ATOM     15  C   UNL     1      -0.883  10.825  23.040  0.00  0.00    +0.000 A 
ATOM     16  C   UNL     1      -0.776  11.870  22.117  0.00  0.00    +0.000 A 
ATOM     17  C   UNL     1      -0.056  11.713  20.928  0.00  0.00    +0.000 A 
ATOM     18  C   UNL     1       0.513  10.461  20.708  0.00  0.00    +0.000 A 
ATOM     19  O   UNL     1       1.201  10.094  19.591  0.00  0.00    +0.000 OA
ENDBRANCH   8  11
ENDBRANCH   1   9
BRANCH   5  20
ATOM     20  S   UNL     1       7.081   5.737  16.780  0.00  0.00    +0.000 S 
ATOM     21  O   UNL     1       7.933   4.912  17.607  0.00  0.00    +0.000 OA
ATOM     22  O   UNL     1       7.212   5.764  15.341  0.00  0.00    +0.000 OA
BRANCH  20  23
ATOM     23  N   UNL     1       7.183   7.335  17.313  0.00  0.00    +0.000 NA
ATOM     24  H   UNL     1       6.267   7.736  17.517  0.00  0.00    +0.000 HD
BRANCH  23  25
ATOM     25  C   UNL     1       8.137   7.572  18.409  0.00  0.00    +0.000 C 
BRANCH  25  26
ATOM     26  C   UNL     1       8.500   9.015  18.420  0.00  0.00    +0.000 A 
ATOM     27  C   UNL     1       9.300   9.789  19.236  0.00  0.00    +0.000 A 
ATOM     28  C   UNL     1       9.184  11.123  18.766  0.00  0.00    +0.000 A 
ATOM     29  C   UNL     1       8.333  11.071  17.689  0.00  0.00    +0.000 A 
ATOM     30  O   UNL     1       7.919   9.798  17.462  0.00  0.00    +0.000 OA
ENDBRANCH  25  26
ENDBRANCH  23  25
ENDBRANCH  20  23
ENDBRANCH   5  20
TORSDOF 6
ENDMDL
MODEL 5
REMARK VINA RESULT:      -8.5      4.888      7.854
REMARK  Name = 
REMARK  6 active torsions:
REMARK  status: ('A' for Active; 'I' for Inactive)
REMARK    1  A    between atoms: C_2  and  C_20
REMARK    2  A    between atoms: N_3  and  C_4
REMARK    3  A    between atoms: C_8  and  S_9
REMARK    4  A    between atoms: S_9  and  N_12
REMARK    5  A    between atoms: N_12  and  C_13
REMARK    6  A    between atoms: C_13  and  C_14
REMARK                            x       y       z     vdW  Elec       q    Type
REMARK                         _______ _______ _______ _____ _____    ______ ____
ROOT
ATOM      1  C   UNL     1       6.304   6.496  16.944  0.00  0.00    +0.000 A 
ATOM      2  C   UNL     1       6.606   5.645  15.876  0.00  0.00    +0.000 A 
ATOM      3  C   UNL     1       5.862   4.480  15.658  0.00  0.00    +0.000 A 
ATOM      4  C   UNL     1       4.794   4.158  16.496  0.00  0.00    +0.000 A 
ATOM      5  C   UNL     1       4.478   5.013  17.553  0.00  0.00    +0.000 A 
ATOM      6  C   UNL     1       5.245   6.163  17.794  0.00  0.00    +0.000 A 
ENDROOT
BRANCH   1   9
ATOM      7  O   UNL     1       8.467   6.939  18.914  0.00  0.00    +0.000 OA
ATOM      8  C   UNL     1       8.005   7.835  18.214  0.00  0.00    +0.000 C 
ATOM      9  N   UNL     1       7.036   7.662  17.238  0.00  0.00    +0.000 N 
ATOM     10  H   UNL     1       6.862   8.482  16.664  0.00  0.00    +0.000 HD
BRANCH   8  11
ATOM     11  C   UNL     1       8.451   9.211  18.332  0.00  0.00    +0.000 A 
ATOM     12  C   UNL     1       8.222  10.313  17.528  0.00  0.00    +0.000 A 
ATOM     13  C   UNL     1       9.022  11.370  18.038  0.00  0.00    +0.000 A 
ATOM     14  C   UNL     1       9.303  12.695  17.657  0.00  0.00    +0.000 A 
ATOM     15  C   UNL     1      10.233  13.426  18.409  0.00  0.00    +0.000 A 
ATOM     16  C   UNL     1      10.852  12.869  19.532  0.00  0.00    +0.000 A 
ATOM     17  C   UNL     1      10.562  11.564  19.943  0.00  0.00    +0.000 A 
ATOM     18  C   UNL     1       9.656  10.853  19.160  0.00  0.00    +0.000 A 
ATOM     19  O   UNL     1       9.288   9.558  19.362  0.00  0.00    +0.000 OA
ENDBRANCH   8  11
ENDBRANCH   1   9
BRANCH   5  20
ATOM     20  S   UNL     1       3.177   4.579  18.690  0.00  0.00    +0.000 S 
ATOM     21  O   UNL     1       1.917   4.705  17.991  0.00  0.00    +0.000 OA
ATOM     22  O   UNL     1       3.575   3.343  19.324  0.00  0.00    +0.000 OA
BRANCH  20  23
ATOM     23  N   UNL     1       3.275   5.787  19.863  0.00  0.00    +0.000 NA
ATOM     24  H   UNL     1       3.873   6.562  19.574  0.00  0.00    +0.000 HD
BRANCH  23  25
ATOM     25  C   UNL     1       1.983   6.263  20.384  0.00  0.00    +0.000 C 
BRANCH  25  26
ATOM     26  C   UNL     1       1.750   7.646  19.887  0.00  0.00    +0.000 A 
ATOM     27  C   UNL     1       1.116   8.753  20.414  0.00  0.00    +0.000 A 
ATOM     28  C   UNL     1       1.168   9.761  19.417  0.00  0.00    +0.000 A 
ATOM     29  C   UNL     1       1.842   9.208  18.355  0.00  0.00    +0.000 A 
ATOM     30  O   UNL     1       2.210   7.930  18.631  0.00  0.00    +0.000 OA
ENDBRANCH  25  26
ENDBRANCH  23  25
ENDBRANCH  20  23
ENDBRANCH   5  20
TORSDOF 6
ENDMDL
MODEL 6
REMARK VINA RESULT:      -8.4      3.040      3.948
REMARK  Name = 
REMARK  6 active torsions:
REMARK  status: ('A' for Active; 'I' for Inactive)
REMARK    1  A    between atoms: C_2  and  C_20
REMARK    2  A    between atoms: N_3  and  C_4
REMARK    3  A    between atoms: C_8  and  S_9
REMARK    4  A    between atoms: S_9  and  N_12
REMARK    5  A    between atoms: N_12  and  C_13
REMARK    6  A    between atoms: C_13  and  C_14
REMARK                            x       y       z     vdW  Elec       q    Type
REMARK                         _______ _______ _______ _____ _____    ______ ____
ROOT
ATOM      1  C   UNL     1       3.006   5.734  18.001  0.00  0.00    +0.000 A 
ATOM      2  C   UNL     1       2.567   4.428  17.764  0.00  0.00    +0.000 A 
ATOM      3  C   UNL     1       3.400   3.499  17.129  0.00  0.00    +0.000 A 
ATOM      4  C   UNL     1       4.689   3.858  16.738  0.00  0.00    +0.000 A 
ATOM      5  C   UNL     1       5.137   5.156  16.988  0.00  0.00    +0.000 A 
ATOM      6  C   UNL     1       4.293   6.100  17.592  0.00  0.00    +0.000 A 
ENDROOT
BRANCH   1   9
ATOM      7  O   UNL     1       2.735   8.609  17.355  0.00  0.00    +0.000 OA
ATOM      8  C   UNL     1       2.156   8.077  18.298  0.00  0.00    +0.000 C 
ATOM      9  N   UNL     1       2.206   6.726  18.601  0.00  0.00    +0.000 N 
ATOM     10  H   UNL     1       1.566   6.431  19.332  0.00  0.00    +0.000 HD
BRANCH   8  11
ATOM     11  C   UNL     1       1.321   8.832  19.214  0.00  0.00    +0.000 A 
ATOM     12  C   UNL     1       0.631  10.019  19.048  0.00  0.00    +0.000 A 
ATOM     13  C   UNL     1       0.104  10.372  20.318  0.00  0.00    +0.000 A 
ATOM     14  C   UNL     1      -0.615  11.462  20.842  0.00  0.00    +0.000 A 
ATOM     15  C   UNL     1      -0.906  11.476  22.214  0.00  0.00    +0.000 A 
ATOM     16  C   UNL     1      -0.519  10.420  23.045  0.00  0.00    +0.000 A 
ATOM     17  C   UNL     1       0.169   9.315  22.535  0.00  0.00    +0.000 A 
ATOM     18  C   UNL     1       0.468   9.343  21.175  0.00  0.00    +0.000 A 
ATOM     19  O   UNL     1       1.176   8.391  20.505  0.00  0.00    +0.000 OA
ENDBRANCH   8  11
ENDBRANCH   1   9
BRANCH   5  20
ATOM     20  S   UNL     1       6.747   5.666  16.417  0.00  0.00    +0.000 S 
ATOM     21  O   UNL     1       7.726   4.776  17.001  0.00  0.00    +0.000 OA
ATOM     22  O   UNL     1       6.642   5.851  14.988  0.00  0.00    +0.000 OA
BRANCH  20  23
ATOM     23  N   UNL     1       6.926   7.199  17.100  0.00  0.00    +0.000 NA
ATOM     24  H   UNL     1       6.039   7.589  17.417  0.00  0.00    +0.000 HD
BRANCH  23  25
ATOM     25  C   UNL     1       7.969   7.308  18.134  0.00  0.00    +0.000 C 
BRANCH  25  26
ATOM     26  C   UNL     1       8.354   8.738  18.272  0.00  0.00    +0.000 A 
ATOM     27  C   UNL     1       8.133   9.863  17.503  0.00  0.00    +0.000 A 
ATOM     28  C   UNL     1       8.824  10.927  18.137  0.00  0.00    +0.000 A 
ATOM     29  C   UNL     1       9.409  10.385  19.255  0.00  0.00    +0.000 A 
ATOM     30  O   UNL     1       9.124   9.061  19.355  0.00  0.00    +0.000 OA
ENDBRANCH  25  26
ENDBRANCH  23  25
ENDBRANCH  20  23
ENDBRANCH   5  20
TORSDOF 6
ENDMDL
MODEL 7
REMARK VINA RESULT:      -8.3      1.540      1.715
REMARK  Name = 
REMARK  6 active torsions:
REMARK  status: ('A' for Active; 'I' for Inactive)
REMARK    1  A    between atoms: C_2  and  C_20
REMARK    2  A    between atoms: N_3  and  C_4
REMARK    3  A    between atoms: C_8  and  S_9
REMARK    4  A    between atoms: S_9  and  N_12
REMARK    5  A    between atoms: N_12  and  C_13
REMARK    6  A    between atoms: C_13  and  C_14
REMARK                            x       y       z     vdW  Elec       q    Type
REMARK                         _______ _______ _______ _____ _____    ______ ____
ROOT
ATOM      1  C   UNL     1       3.028   6.079  18.356  0.00  0.00    +0.000 A 
ATOM      2  C   UNL     1       2.513   4.825  18.012  0.00  0.00    +0.000 A 
ATOM      3  C   UNL     1       3.269   3.927  17.249  0.00  0.00    +0.000 A 
ATOM      4  C   UNL     1       4.557   4.265  16.833  0.00  0.00    +0.000 A 
ATOM      5  C   UNL     1       5.081   5.509  17.188  0.00  0.00    +0.000 A 
ATOM      6  C   UNL     1       4.313   6.424  17.923  0.00  0.00    +0.000 A 
ENDROOT
BRANCH   1   9
ATOM      7  O   UNL     1       2.043   8.748  17.541  0.00  0.00    +0.000 OA
ATOM      8  C   UNL     1       1.915   8.305  18.679  0.00  0.00    +0.000 C 
ATOM      9  N   UNL     1       2.306   7.041  19.089  0.00  0.00    +0.000 N 
ATOM     10  H   UNL     1       2.009   6.788  20.026  0.00  0.00    +0.000 HD
BRANCH   8  11
ATOM     11  C   UNL     1       1.309   9.083  19.744  0.00  0.00    +0.000 A 
ATOM     12  C   UNL     1       0.764   8.697  20.956  0.00  0.00    +0.000 A 
ATOM     13  C   UNL     1       0.181   9.855  21.535  0.00  0.00    +0.000 A 
ATOM     14  C   UNL     1      -0.571  10.133  22.690  0.00  0.00    +0.000 A 
ATOM     15  C   UNL     1      -1.039  11.440  22.888  0.00  0.00    +0.000 A 
ATOM     16  C   UNL     1      -0.744  12.458  21.976  0.00  0.00    +0.000 A 
ATOM     17  C   UNL     1       0.028  12.207  20.837  0.00  0.00    +0.000 A 
ATOM     18  C   UNL     1       0.454  10.893  20.654  0.00  0.00    +0.000 A 
ATOM     19  O   UNL     1       1.166  10.438  19.585  0.00  0.00    +0.000 OA
ENDBRANCH   8  11
ENDBRANCH   1   9
BRANCH   5  20
ATOM     20  S   UNL     1       6.688   5.999  16.593  0.00  0.00    +0.000 S 
ATOM     21  O   UNL     1       6.791   7.435  16.730  0.00  0.00    +0.000 OA
ATOM     22  O   UNL     1       7.646   5.105  17.201  0.00  0.00    +0.000 OA
BRANCH  20  23
ATOM     23  N   UNL     1       6.623   5.610  14.953  0.00  0.00    +0.000 NA
ATOM     24  H   UNL     1       7.107   6.295  14.371  0.00  0.00    +0.000 HD
BRANCH  23  25
ATOM     25  C   UNL     1       7.023   4.234  14.617  0.00  0.00    +0.000 C 
BRANCH  25  26
ATOM     26  C   UNL     1       6.303   3.816  13.384  0.00  0.00    +0.000 A 
ATOM     27  C   UNL     1       6.716   3.393  12.137  0.00  0.00    +0.000 A 
ATOM     28  C   UNL     1       5.541   3.208  11.364  0.00  0.00    +0.000 A 
ATOM     29  C   UNL     1       4.490   3.515  12.194  0.00  0.00    +0.000 A 
ATOM     30  O   UNL     1       4.938   3.875  13.425  0.00  0.00    +0.000 OA
ENDBRANCH  25  26
ENDBRANCH  23  25
ENDBRANCH  20  23
ENDBRANCH   5  20
TORSDOF 6
ENDMDL
MODEL 8
REMARK VINA RESULT:      -8.3      4.661      7.671
REMARK  Name = 
REMARK  6 active torsions:
REMARK  status: ('A' for Active; 'I' for Inactive)
REMARK    1  A    between atoms: C_2  and  C_20
REMARK    2  A    between atoms: N_3  and  C_4
REMARK    3  A    between atoms: C_8  and  S_9
REMARK    4  A    between atoms: S_9  and  N_12
REMARK    5  A    between atoms: N_12  and  C_13
REMARK    6  A    between atoms: C_13  and  C_14
REMARK                            x       y       z     vdW  Elec       q    Type
REMARK                         _______ _______ _______ _____ _____    ______ ____
ROOT
ATOM      1  C   UNL     1       6.375   6.272  16.642  0.00  0.00    +0.000 A 
ATOM      2  C   UNL     1       6.808   5.373  15.663  0.00  0.00    +0.000 A 
ATOM      3  C   UNL     1       6.077   4.211  15.387  0.00  0.00    +0.000 A 
ATOM      4  C   UNL     1       4.895   3.941  16.076  0.00  0.00    +0.000 A 
ATOM      5  C   UNL     1       4.451   4.844  17.042  0.00  0.00    +0.000 A 
ATOM      6  C   UNL     1       5.199   5.992  17.346  0.00  0.00    +0.000 A 
ENDROOT
BRANCH   1   9
ATOM      7  O   UNL     1       8.258   6.759  18.873  0.00  0.00    +0.000 OA
ATOM      8  C   UNL     1       7.913   7.634  18.085  0.00  0.00    +0.000 C 
ATOM      9  N   UNL     1       7.083   7.438  16.993  0.00  0.00    +0.000 N 
ATOM     10  H   UNL     1       7.005   8.238  16.371  0.00  0.00    +0.000 HD
BRANCH   8  11
ATOM     11  C   UNL     1       8.365   9.007  18.213  0.00  0.00    +0.000 A 
ATOM     12  C   UNL     1       9.265   9.591  19.087  0.00  0.00    +0.000 A 
ATOM     13  C   UNL     1       9.212  10.992  18.860  0.00  0.00    +0.000 A 
ATOM     14  C   UNL     1       9.805  12.128  19.440  0.00  0.00    +0.000 A 
ATOM     15  C   UNL     1       9.437  13.394  18.962  0.00  0.00    +0.000 A 
ATOM     16  C   UNL     1       8.523  13.532  17.913  0.00  0.00    +0.000 A 
ATOM     17  C   UNL     1       7.947  12.412  17.304  0.00  0.00    +0.000 A 
ATOM     18  C   UNL     1       8.311  11.170  17.819  0.00  0.00    +0.000 A 
ATOM     19  O   UNL     1       7.821   9.970  17.401  0.00  0.00    +0.000 OA
ENDBRANCH   8  11
ENDBRANCH   1   9
BRANCH   5  20
ATOM     20  S   UNL     1       2.993   4.478  17.999  0.00  0.00    +0.000 S 
ATOM     21  O   UNL     1       2.046   3.818  17.127  0.00  0.00    +0.000 OA
ATOM     22  O   UNL     1       3.444   3.872  19.230  0.00  0.00    +0.000 OA
BRANCH  20  23
ATOM     23  N   UNL     1       2.399   6.007  18.392  0.00  0.00    +0.000 NA
ATOM     24  H   UNL     1       1.423   6.127  18.119  0.00  0.00    +0.000 HD
BRANCH  23  25
ATOM     25  C   UNL     1       2.630   6.432  19.782  0.00  0.00    +0.000 C 
BRANCH  25  26
ATOM     26  C   UNL     1       1.872   7.689  20.028  0.00  0.00    +0.000 A 
ATOM     27  C   UNL     1       1.176   8.185  21.112  0.00  0.00    +0.000 A 
ATOM     28  C   UNL     1       0.609   9.417  20.698  0.00  0.00    +0.000 A 
ATOM     29  C   UNL     1       1.008   9.598  19.396  0.00  0.00    +0.000 A 
ATOM     30  O   UNL     1       1.783   8.563  18.981  0.00  0.00    +0.000 OA
ENDBRANCH  25  26
ENDBRANCH  23  25
ENDBRANCH  20  23
ENDBRANCH   5  20
TORSDOF 6
ENDMDL
MODEL 9
REMARK VINA RESULT:      -8.3      1.319      1.681
REMARK  Name = 
REMARK  6 active torsions:
REMARK  status: ('A' for Active; 'I' for Inactive)
REMARK    1  A    between atoms: C_2  and  C_20
REMARK    2  A    between atoms: N_3  and  C_4
REMARK    3  A    between atoms: C_8  and  S_9
REMARK    4  A    between atoms: S_9  and  N_12
REMARK    5  A    between atoms: N_12  and  C_13
REMARK    6  A    between atoms: C_13  and  C_14
REMARK                            x       y       z     vdW  Elec       q    Type
REMARK                         _______ _______ _______ _____ _____    ______ ____
ROOT
ATOM      1  C   UNL     1       3.104   6.096  19.256  0.00  0.00    +0.000 A 
ATOM      2  C   UNL     1       2.637   4.864  19.724  0.00  0.00    +0.000 A 
ATOM      3  C   UNL     1       3.411   3.706  19.581  0.00  0.00    +0.000 A 
ATOM      4  C   UNL     1       4.669   3.768  18.983  0.00  0.00    +0.000 A 
ATOM      5  C   UNL     1       5.146   4.999  18.531  0.00  0.00    +0.000 A 
ATOM      6  C   UNL     1       4.359   6.155  18.641  0.00  0.00    +0.000 A 
ENDROOT
BRANCH   1   9
ATOM      7  O   UNL     1       2.621   8.179  17.211  0.00  0.00    +0.000 OA
ATOM      8  C   UNL     1       2.210   8.265  18.364  0.00  0.00    +0.000 C 
ATOM      9  N   UNL     1       2.360   7.289  19.337  0.00  0.00    +0.000 N 
ATOM     10  H   UNL     1       1.848   7.465  20.196  0.00  0.00    +0.000 HD
BRANCH   8  11
ATOM     11  C   UNL     1       1.489   9.431  18.839  0.00  0.00    +0.000 A 
ATOM     12  C   UNL     1       0.457   9.553  19.752  0.00  0.00    +0.000 A 
ATOM     13  C   UNL     1       0.036  10.909  19.722  0.00  0.00    +0.000 A 
ATOM     14  C   UNL     1      -0.982  11.662  20.336  0.00  0.00    +0.000 A 
ATOM     15  C   UNL     1      -1.121  13.012  19.987  0.00  0.00    +0.000 A 
ATOM     16  C   UNL     1      -0.253  13.615  19.072  0.00  0.00    +0.000 A 
ATOM     17  C   UNL     1       0.784  12.890  18.475  0.00  0.00    +0.000 A 
ATOM     18  C   UNL     1       0.879  11.544  18.820  0.00  0.00    +0.000 A 
ATOM     19  O   UNL     1       1.782  10.662  18.308  0.00  0.00    +0.000 OA
ENDBRANCH   8  11
ENDBRANCH   1   9
BRANCH   5  20
ATOM     20  S   UNL     1       6.712   5.089  17.683  0.00  0.00    +0.000 S 
ATOM     21  O   UNL     1       6.819   6.403  17.090  0.00  0.00    +0.000 OA
ATOM     22  O   UNL     1       7.709   4.582  18.598  0.00  0.00    +0.000 OA
BRANCH  20  23
ATOM     23  N   UNL     1       6.547   3.946  16.453  0.00  0.00    +0.000 NA
ATOM     24  H   UNL     1       6.417   3.001  16.815  0.00  0.00    +0.000 HD
BRANCH  23  25
ATOM     25  C   UNL     1       5.550   4.275  15.420  0.00  0.00    +0.000 C 
BRANCH  25  26
ATOM     26  C   UNL     1       6.232   4.321  14.099  0.00  0.00    +0.000 A 
ATOM     27  C   UNL     1       6.096   3.599  12.930  0.00  0.00    +0.000 A 
ATOM     28  C   UNL     1       7.094   4.077  12.042  0.00  0.00    +0.000 A 
ATOM     29  C   UNL     1       7.762   5.067  12.721  0.00  0.00    +0.000 A 
ATOM     30  O   UNL     1       7.243   5.232  13.965  0.00  0.00    +0.000 OA
ENDBRANCH  25  26
ENDBRANCH  23  25
ENDBRANCH  20  23
ENDBRANCH   5  20
TORSDOF 6
ENDMDL
