MODEL 1
REMARK VINA RESULT:      -8.5      0.000      0.000
REMARK  Name = 
REMARK  6 active torsions:
REMARK  status: ('A' for Active; 'I' for Inactive)
REMARK    1  A    between atoms: C_2  and  C_15
REMARK    2  A    between atoms: N_3  and  C_4
REMARK    3  A    between atoms: C_8  and  C_9
REMARK    4  A    between atoms: C_19  and  O_20
REMARK    5  A    between atoms: O_20  and  C_21
REMARK    6  A    between atoms: C_21  and  C_22
REMARK                            x       y       z     vdW  Elec       q    Type
REMARK                         _______ _______ _______ _____ _____    ______ ____
ROOT
ATOM      1  O   UNL     1       2.187   6.494  18.091  0.00  0.00    +0.000 OA
ATOM      2  C   UNL     1       2.343   6.764  19.277  0.00  0.00    +0.000 C 
ATOM      3  N   UNL     1       3.007   5.990  20.207  0.00  0.00    +0.000 N 
ATOM      4  H   UNL     1       3.085   6.312  21.162  0.00  0.00    +0.000 HD
ENDROOT
BRANCH   3   5
ATOM      5  C   UNL     1       3.568   4.749  19.931  0.00  0.00    +0.000 A 
ATOM      6  C   UNL     1       3.057   3.519  20.266  0.00  0.00    +0.000 A 
ATOM      7  N   UNL     1       3.960   2.599  19.840  0.00  0.00    +0.000 N 
ATOM      8  N   UNL     1       5.038   3.134  19.253  0.00  0.00    +0.000 NA
ATOM      9  C   UNL     1       4.817   4.461  19.285  0.00  0.00    +0.000 A 
ATOM     10  H   UNL     1       3.911   1.590  19.931  0.00  0.00    +0.000 HD
BRANCH   9  11
ATOM     11  C   UNL     1       5.795   5.394  18.714  0.00  0.00    +0.000 A 
ATOM     12  C   UNL     1       5.502   6.162  17.577  0.00  0.00    +0.000 A 
ATOM     13  C   UNL     1       6.421   7.095  17.093  0.00  0.00    +0.000 A 
ATOM     14  C   UNL     1       7.657   7.246  17.717  0.00  0.00    +0.000 A 
ATOM     15  C   UNL     1       7.981   6.456  18.817  0.00  0.00    +0.000 A 
ATOM     16  C   UNL     1       7.055   5.535  19.312  0.00  0.00    +0.000 A 
ENDBRANCH   9  11
ENDBRANCH   3   5
BRANCH   2  17
ATOM     17  C   UNL     1       1.759   8.036  19.784  0.00  0.00    +0.000 A 
ATOM     18  C   UNL     1       1.501   8.099  21.157  0.00  0.00    +0.000 A 
ATOM     19  C   UNL     1       0.937   9.244  21.714  0.00  0.00    +0.000 A 
ATOM     20  C   UNL     1       0.619  10.328  20.895  0.00  0.00    +0.000 A 
ATOM     21  C   UNL     1       0.856  10.274  19.516  0.00  0.00    +0.000 A 
ATOM     22  C   UNL     1       1.428   9.123  18.960  0.00  0.00    +0.000 A 
BRANCH  21  23
ATOM     23  O   UNL     1       0.559  11.280  18.627  0.00  0.00    +0.000 OA
BRANCH  23  24
ATOM     24  C   UNL     1      -0.746  11.853  18.755  0.00  0.00    +0.000 C 
BRANCH  24  25
ATOM     25  C   UNL     1      -1.844  10.812  18.536  0.00  0.00    +0.000 C 
ATOM     26  C   UNL     1      -1.781  10.125  17.179  0.00  0.00    +0.000 C 
ATOM     27  C   UNL     1      -3.240   9.872  16.881  0.00  0.00    +0.000 C 
ATOM     28  C   UNL     1      -3.893  11.108  17.455  0.00  0.00    +0.000 C 
ATOM     29  O   UNL     1      -3.131  11.460  18.616  0.00  0.00    +0.000 OA
ENDBRANCH  24  25
ENDBRANCH  23  24
ENDBRANCH  21  23
ENDBRANCH   2  17
TORSDOF 6
ENDMDL
MODEL 2
REMARK VINA RESULT:      -8.2      2.439      3.218
REMARK  Name = 
REMARK  6 active torsions:
REMARK  status: ('A' for Active; 'I' for Inactive)
REMARK    1  A    between atoms: C_2  and  C_15
REMARK    2  A    between atoms: N_3  and  C_4
REMARK    3  A    between atoms: C_8  and  C_9
REMARK    4  A    between atoms: C_19  and  O_20
REMARK    5  A    between atoms: O_20  and  C_21
REMARK    6  A    between atoms: C_21  and  C_22
REMARK                            x       y       z     vdW  Elec       q    Type
REMARK                         _______ _______ _______ _____ _____    ______ ____
ROOT
ATOM      1  O   UNL     1       3.148   5.717  20.228  0.00  0.00    +0.000 OA
ATOM      2  C   UNL     1       2.462   6.034  19.262  0.00  0.00    +0.000 C 
ATOM      3  N   UNL     1       2.037   5.191  18.254  0.00  0.00    +0.000 N 
ATOM      4  H   UNL     1       1.465   5.556  17.505  0.00  0.00    +0.000 HD
ENDROOT
BRANCH   3   5
ATOM      5  C   UNL     1       2.369   3.845  18.171  0.00  0.00    +0.000 A 
ATOM      6  C   UNL     1       1.580   2.776  18.520  0.00  0.00    +0.000 A 
ATOM      7  N   UNL     1       2.329   1.663  18.318  0.00  0.00    +0.000 N 
ATOM      8  N   UNL     1       3.563   1.919  17.867  0.00  0.00    +0.000 NA
ATOM      9  C   UNL     1       3.612   3.259  17.757  0.00  0.00    +0.000 A 
ATOM     10  H   UNL     1       2.066   0.697  18.481  0.00  0.00    +0.000 HD
BRANCH   9  11
ATOM     11  C   UNL     1       4.828   3.924  17.274  0.00  0.00    +0.000 A 
ATOM     12  C   UNL     1       5.764   4.479  18.159  0.00  0.00    +0.000 A 
ATOM     13  C   UNL     1       6.948   5.044  17.680  0.00  0.00    +0.000 A 
ATOM     14  C   UNL     1       7.193   5.092  16.310  0.00  0.00    +0.000 A 
ATOM     15  C   UNL     1       6.250   4.589  15.417  0.00  0.00    +0.000 A 
ATOM     16  C   UNL     1       5.075   4.009  15.897  0.00  0.00    +0.000 A 
ENDBRANCH   9  11
ENDBRANCH   3   5
BRANCH   2  17
ATOM     17  C   UNL     1       2.049   7.459  19.139  0.00  0.00    +0.000 A 
ATOM     18  C   UNL     1       2.307   8.078  17.912  0.00  0.00    +0.000 A 
ATOM     19  C   UNL     1       1.970   9.416  17.716  0.00  0.00    +0.000 A 
ATOM     20  C   UNL     1       1.384  10.141  18.753  0.00  0.00    +0.000 A 
ATOM     21  C   UNL     1       1.135   9.540  19.993  0.00  0.00    +0.000 A 
ATOM     22  C   UNL     1       1.469   8.193  20.185  0.00  0.00    +0.000 A 
BRANCH  21  23
ATOM     23  O   UNL     1       0.581  10.176  21.078  0.00  0.00    +0.000 OA
BRANCH  23  24
ATOM     24  C   UNL     1       0.558  11.606  21.013  0.00  0.00    +0.000 C 
BRANCH  24  25
ATOM     25  C   UNL     1      -0.380  12.203  22.062  0.00  0.00    +0.000 C 
ATOM     26  C   UNL     1      -1.053  11.166  22.951  0.00  0.00    +0.000 C 
ATOM     27  C   UNL     1      -2.393  11.804  23.228  0.00  0.00    +0.000 C 
ATOM     28  C   UNL     1      -2.694  12.479  21.911  0.00  0.00    +0.000 C 
ATOM     29  O   UNL     1      -1.435  12.926  21.394  0.00  0.00    +0.000 OA
ENDBRANCH  24  25
ENDBRANCH  23  24
ENDBRANCH  21  23
ENDBRANCH   2  17
TORSDOF 6
ENDMDL
MODEL 3
REMARK VINA RESULT:      -8.2      0.773      1.142
REMARK  Name = 
REMARK  6 active torsions:
REMARK  status: ('A' for Active; 'I' for Inactive)
REMARK    1  A    between atoms: C_2  and  C_15
REMARK    2  A    between atoms: N_3  and  C_4
REMARK    3  A    between atoms: C_8  and  C_9
REMARK    4  A    between atoms: C_19  and  O_20
REMARK    5  A    between atoms: O_20  and  C_21
REMARK    6  A    between atoms: C_21  and  C_22
REMARK                            x       y       z     vdW  Elec       q    Type
REMARK                         _______ _______ _______ _____ _____    ______ ____
ROOT
ATOM      1  O   UNL     1       2.212   6.457  18.053  0.00  0.00    +0.000 OA
ATOM      2  C   UNL     1       2.358   6.714  19.243  0.00  0.00    +0.000 C 
ATOM      3  N   UNL     1       3.023   5.935  20.168  0.00  0.00    +0.000 N 
ATOM      4  H   UNL     1       3.092   6.246  21.127  0.00  0.00    +0.000 HD
ENDROOT
BRANCH   3   5
ATOM      5  C   UNL     1       3.597   4.703  19.881  0.00  0.00    +0.000 A 
ATOM      6  C   UNL     1       3.095   3.464  20.195  0.00  0.00    +0.000 A 
ATOM      7  N   UNL     1       4.009   2.558  19.765  0.00  0.00    +0.000 N 
ATOM      8  N   UNL     1       5.087   3.110  19.194  0.00  0.00    +0.000 NA
ATOM      9  C   UNL     1       4.855   4.435  19.242  0.00  0.00    +0.000 A 
ATOM     10  H   UNL     1       3.969   1.547  19.842  0.00  0.00    +0.000 HD
BRANCH   9  11
ATOM     11  C   UNL     1       5.829   5.384  18.692  0.00  0.00    +0.000 A 
ATOM     12  C   UNL     1       5.550   6.143  17.547  0.00  0.00    +0.000 A 
ATOM     13  C   UNL     1       6.464   7.092  17.082  0.00  0.00    +0.000 A 
ATOM     14  C   UNL     1       7.681   7.266  17.736  0.00  0.00    +0.000 A 
ATOM     15  C   UNL     1       7.993   6.484  18.845  0.00  0.00    +0.000 A 
ATOM     16  C   UNL     1       7.072   5.548  19.320  0.00  0.00    +0.000 A 
ENDBRANCH   9  11
ENDBRANCH   3   5
BRANCH   2  17
ATOM     17  C   UNL     1       1.759   7.975  19.762  0.00  0.00    +0.000 A 
ATOM     18  C   UNL     1       1.408   7.986  21.116  0.00  0.00    +0.000 A 
ATOM     19  C   UNL     1       0.823   9.117  21.680  0.00  0.00    +0.000 A 
ATOM     20  C   UNL     1       0.579  10.239  20.887  0.00  0.00    +0.000 A 
ATOM     21  C   UNL     1       0.909  10.237  19.527  0.00  0.00    +0.000 A 
ATOM     22  C   UNL     1       1.502   9.100  18.963  0.00  0.00    +0.000 A 
BRANCH  21  23
ATOM     23  O   UNL     1       0.689  11.283  18.662  0.00  0.00    +0.000 OA
BRANCH  23  24
ATOM     24  C   UNL     1       0.234  12.499  19.265  0.00  0.00    +0.000 C 
BRANCH  24  25
ATOM     25  C   UNL     1      -1.210  12.814  18.878  0.00  0.00    +0.000 C 
ATOM     26  C   UNL     1      -2.224  12.505  19.971  0.00  0.00    +0.000 C 
ATOM     27  C   UNL     1      -3.436  12.088  19.173  0.00  0.00    +0.000 C 
ATOM     28  C   UNL     1      -2.808  11.344  18.019  0.00  0.00    +0.000 C 
ATOM     29  O   UNL     1      -1.577  12.017  17.732  0.00  0.00    +0.000 OA
ENDBRANCH  24  25
ENDBRANCH  23  24
ENDBRANCH  21  23
ENDBRANCH   2  17
TORSDOF 6
ENDMDL
MODEL 4
REMARK VINA RESULT:      -8.1      1.263      1.277
REMARK  Name = 
REMARK  6 active torsions:
REMARK  status: ('A' for Active; 'I' for Inactive)
REMARK    1  A    between atoms: C_2  and  C_15
REMARK    2  A    between atoms: N_3  and  C_4
REMARK    3  A    between atoms: C_8  and  C_9
REMARK    4  A    between atoms: C_19  and  O_20
REMARK    5  A    between atoms: O_20  and  C_21
REMARK    6  A    between atoms: C_21  and  C_22
REMARK                            x       y       z     vdW  Elec       q    Type
REMARK                         _______ _______ _______ _____ _____    ______ ____
ROOT
ATOM      1  O   UNL     1       2.146   5.711  20.679  0.00  0.00    +0.000 OA
ATOM      2  C   UNL     1       2.108   6.549  19.784  0.00  0.00    +0.000 C 
ATOM      3  N   UNL     1       2.429   6.339  18.458  0.00  0.00    +0.000 N 
ATOM      4  H   UNL     1       2.355   7.102  17.799  0.00  0.00    +0.000 HD
ENDROOT
BRANCH   3   5
ATOM      5  C   UNL     1       2.889   5.131  17.949  0.00  0.00    +0.000 A 
ATOM      6  C   UNL     1       2.135   4.030  17.626  0.00  0.00    +0.000 A 
ATOM      7  N   UNL     1       3.006   3.074  17.215  0.00  0.00    +0.000 N 
ATOM      8  N   UNL     1       4.287   3.462  17.250  0.00  0.00    +0.000 NA
ATOM      9  C   UNL     1       4.243   4.733  17.689  0.00  0.00    +0.000 A 
ATOM     10  H   UNL     1       2.796   2.129  16.911  0.00  0.00    +0.000 HD
BRANCH   9  11
ATOM     11  C   UNL     1       5.478   5.510  17.850  0.00  0.00    +0.000 A 
ATOM     12  C   UNL     1       5.750   6.633  17.054  0.00  0.00    +0.000 A 
ATOM     13  C   UNL     1       6.898   7.398  17.272  0.00  0.00    +0.000 A 
ATOM     14  C   UNL     1       7.804   7.029  18.263  0.00  0.00    +0.000 A 
ATOM     15  C   UNL     1       7.572   5.888  19.028  0.00  0.00    +0.000 A 
ATOM     16  C   UNL     1       6.416   5.133  18.822  0.00  0.00    +0.000 A 
ENDBRANCH   9  11
ENDBRANCH   3   5
BRANCH   2  17
ATOM     17  C   UNL     1       1.692   7.933  20.144  0.00  0.00    +0.000 A 
ATOM     18  C   UNL     1       1.498   8.190  21.505  0.00  0.00    +0.000 A 
ATOM     19  C   UNL     1       1.090   9.453  21.929  0.00  0.00    +0.000 A 
ATOM     20  C   UNL     1       0.862  10.459  20.989  0.00  0.00    +0.000 A 
ATOM     21  C   UNL     1       1.035  10.212  19.622  0.00  0.00    +0.000 A 
ATOM     22  C   UNL     1       1.451   8.942  19.199  0.00  0.00    +0.000 A 
BRANCH  21  23
ATOM     23  O   UNL     1       0.816  11.130  18.623  0.00  0.00    +0.000 OA
BRANCH  23  24
ATOM     24  C   UNL     1      -0.452  11.792  18.657  0.00  0.00    +0.000 C 
BRANCH  24  25
ATOM     25  C   UNL     1      -1.610  10.797  18.588  0.00  0.00    +0.000 C 
ATOM     26  C   UNL     1      -1.705  10.050  17.264  0.00  0.00    +0.000 C 
ATOM     27  C   UNL     1      -3.194   9.856  17.112  0.00  0.00    +0.000 C 
ATOM     28  C   UNL     1      -3.736  11.144  17.684  0.00  0.00    +0.000 C 
ATOM     29  O   UNL     1      -2.855  11.508  18.754  0.00  0.00    +0.000 OA
ENDBRANCH  24  25
ENDBRANCH  23  24
ENDBRANCH  21  23
ENDBRANCH   2  17
TORSDOF 6
ENDMDL
MODEL 5
REMARK VINA RESULT:      -8.1      2.480      4.672
REMARK  Name = 
REMARK  6 active torsions:
REMARK  status: ('A' for Active; 'I' for Inactive)
REMARK    1  A    between atoms: C_2  and  C_15
REMARK    2  A    between atoms: N_3  and  C_4
REMARK    3  A    between atoms: C_8  and  C_9
REMARK    4  A    between atoms: C_19  and  O_20
REMARK    5  A    between atoms: O_20  and  C_21
REMARK    6  A    between atoms: C_21  and  C_22
REMARK                            x       y       z     vdW  Elec       q    Type
REMARK                         _______ _______ _______ _____ _____    ______ ____
ROOT
ATOM      1  O   UNL     1       4.783   2.615  17.680  0.00  0.00    +0.000 OA
ATOM      2  C   UNL     1       4.108   3.635  17.595  0.00  0.00    +0.000 C 
ATOM      3  N   UNL     1       4.278   4.648  16.672  0.00  0.00    +0.000 N 
ATOM      4  H   UNL     1       3.657   5.446  16.685  0.00  0.00    +0.000 HD
ENDROOT
BRANCH   3   5
ATOM      5  C   UNL     1       5.285   4.670  15.715  0.00  0.00    +0.000 A 
ATOM      6  C   UNL     1       5.238   4.131  14.453  0.00  0.00    +0.000 A 
ATOM      7  N   UNL     1       6.456   4.349  13.896  0.00  0.00    +0.000 N 
ATOM      8  N   UNL     1       7.312   4.987  14.705  0.00  0.00    +0.000 NA
ATOM      9  C   UNL     1       6.611   5.208  15.832  0.00  0.00    +0.000 A 
ATOM     10  H   UNL     1       6.778   4.075  12.974  0.00  0.00    +0.000 HD
BRANCH   9  11
ATOM     11  C   UNL     1       7.224   5.908  16.967  0.00  0.00    +0.000 A 
ATOM     12  C   UNL     1       7.482   7.286  16.928  0.00  0.00    +0.000 A 
ATOM     13  C   UNL     1       8.001   7.944  18.046  0.00  0.00    +0.000 A 
ATOM     14  C   UNL     1       8.301   7.226  19.200  0.00  0.00    +0.000 A 
ATOM     15  C   UNL     1       8.096   5.849  19.236  0.00  0.00    +0.000 A 
ATOM     16  C   UNL     1       7.561   5.194  18.125  0.00  0.00    +0.000 A 
ENDBRANCH   9  11
ENDBRANCH   3   5
BRANCH   2  17
ATOM     17  C   UNL     1       3.006   3.826  18.577  0.00  0.00    +0.000 A 
ATOM     18  C   UNL     1       2.145   2.740  18.765  0.00  0.00    +0.000 A 
ATOM     19  C   UNL     1       1.074   2.838  19.652  0.00  0.00    +0.000 A 
ATOM     20  C   UNL     1       0.856   4.029  20.345  0.00  0.00    +0.000 A 
ATOM     21  C   UNL     1       1.699   5.130  20.154  0.00  0.00    +0.000 A 
ATOM     22  C   UNL     1       2.778   5.027  19.267  0.00  0.00    +0.000 A 
BRANCH  21  23
ATOM     23  O   UNL     1       1.553   6.348  20.774  0.00  0.00    +0.000 OA
BRANCH  23  24
ATOM     24  C   UNL     1       2.012   7.481  20.029  0.00  0.00    +0.000 C 
BRANCH  24  25
ATOM     25  C   UNL     1       1.562   8.795  20.667  0.00  0.00    +0.000 C 
ATOM     26  C   UNL     1       0.470   8.631  21.715  0.00  0.00    +0.000 C 
ATOM     27  C   UNL     1      -0.322   9.906  21.553  0.00  0.00    +0.000 C 
ATOM     28  C   UNL     1      -0.261  10.123  20.060  0.00  0.00    +0.000 C 
ATOM     29  O   UNL     1       1.028   9.659  19.641  0.00  0.00    +0.000 OA
ENDBRANCH  24  25
ENDBRANCH  23  24
ENDBRANCH  21  23
ENDBRANCH   2  17
TORSDOF 6
ENDMDL
MODEL 6
REMARK VINA RESULT:      -8.0      2.518      3.202
REMARK  Name = 
REMARK  6 active torsions:
REMARK  status: ('A' for Active; 'I' for Inactive)
REMARK    1  A    between atoms: C_2  and  C_15
REMARK    2  A    between atoms: N_3  and  C_4
REMARK    3  A    between atoms: C_8  and  C_9
REMARK    4  A    between atoms: C_19  and  O_20
REMARK    5  A    between atoms: O_20  and  C_21
REMARK    6  A    between atoms: C_21  and  C_22
REMARK                            x       y       z     vdW  Elec       q    Type
REMARK                         _______ _______ _______ _____ _____    ______ ____
ROOT
ATOM      1  O   UNL     1       3.721   5.720  19.916  0.00  0.00    +0.000 OA
ATOM      2  C   UNL     1       2.772   5.948  19.173  0.00  0.00    +0.000 C 
ATOM      3  N   UNL     1       2.152   5.037  18.342  0.00  0.00    +0.000 N 
ATOM      4  H   UNL     1       1.369   5.330  17.774  0.00  0.00    +0.000 HD
ENDROOT
BRANCH   3   5
ATOM      5  C   UNL     1       2.552   3.714  18.199  0.00  0.00    +0.000 A 
ATOM      6  C   UNL     1       1.863   2.595  18.598  0.00  0.00    +0.000 A 
ATOM      7  N   UNL     1       2.652   1.532  18.301  0.00  0.00    +0.000 N 
ATOM      8  N   UNL     1       3.820   1.868  17.740  0.00  0.00    +0.000 NA
ATOM      9  C   UNL     1       3.780   3.210  17.654  0.00  0.00    +0.000 A 
ATOM     10  H   UNL     1       2.462   0.549  18.468  0.00  0.00    +0.000 HD
BRANCH   9  11
ATOM     11  C   UNL     1       4.903   3.954  17.071  0.00  0.00    +0.000 A 
ATOM     12  C   UNL     1       4.878   4.399  15.742  0.00  0.00    +0.000 A 
ATOM     13  C   UNL     1       5.927   5.166  15.229  0.00  0.00    +0.000 A 
ATOM     14  C   UNL     1       7.027   5.466  16.029  0.00  0.00    +0.000 A 
ATOM     15  C   UNL     1       7.088   4.988  17.336  0.00  0.00    +0.000 A 
ATOM     16  C   UNL     1       6.031   4.237  17.853  0.00  0.00    +0.000 A 
ENDBRANCH   9  11
ENDBRANCH   3   5
BRANCH   2  17
ATOM     17  C   UNL     1       2.232   7.335  19.139  0.00  0.00    +0.000 A 
ATOM     18  C   UNL     1       2.388   8.035  17.938  0.00  0.00    +0.000 A 
ATOM     19  C   UNL     1       1.928   9.346  17.825  0.00  0.00    +0.000 A 
ATOM     20  C   UNL     1       1.321   9.963  18.919  0.00  0.00    +0.000 A 
ATOM     21  C   UNL     1       1.173   9.282  20.132  0.00  0.00    +0.000 A 
ATOM     22  C   UNL     1       1.631   7.962  20.242  0.00  0.00    +0.000 A 
BRANCH  21  23
ATOM     23  O   UNL     1       0.609   9.812  21.268  0.00  0.00    +0.000 OA
BRANCH  23  24
ATOM     24  C   UNL     1       0.404  11.228  21.256  0.00  0.00    +0.000 C 
BRANCH  24  25
ATOM     25  C   UNL     1      -0.926  11.611  21.904  0.00  0.00    +0.000 C 
ATOM     26  C   UNL     1      -1.754  12.591  21.084  0.00  0.00    +0.000 C 
ATOM     27  C   UNL     1      -2.450  13.396  22.154  0.00  0.00    +0.000 C 
ATOM     28  C   UNL     1      -1.383  13.486  23.219  0.00  0.00    +0.000 C 
ATOM     29  O   UNL     1      -0.667  12.246  23.174  0.00  0.00    +0.000 OA
ENDBRANCH  24  25
ENDBRANCH  23  24
ENDBRANCH  21  23
ENDBRANCH   2  17
TORSDOF 6
ENDMDL
MODEL 7
REMARK VINA RESULT:      -8.0      2.443      3.150
REMARK  Name = 
REMARK  6 active torsions:
REMARK  status: ('A' for Active; 'I' for Inactive)
REMARK    1  A    between atoms: C_2  and  C_15
REMARK    2  A    between atoms: N_3  and  C_4
REMARK    3  A    between atoms: C_8  and  C_9
REMARK    4  A    between atoms: C_19  and  O_20
REMARK    5  A    between atoms: O_20  and  C_21
REMARK    6  A    between atoms: C_21  and  C_22
REMARK                            x       y       z     vdW  Elec       q    Type
REMARK                         _______ _______ _______ _____ _____    ______ ____
ROOT
ATOM      1  O   UNL     1       3.478   5.748  20.026  0.00  0.00    +0.000 OA
ATOM      2  C   UNL     1       2.630   6.023  19.184  0.00  0.00    +0.000 C 
ATOM      3  N   UNL     1       2.079   5.150  18.268  0.00  0.00    +0.000 N 
ATOM      4  H   UNL     1       1.378   5.481  17.620  0.00  0.00    +0.000 HD
ENDROOT
BRANCH   3   5
ATOM      5  C   UNL     1       2.447   3.816  18.144  0.00  0.00    +0.000 A 
ATOM      6  C   UNL     1       1.707   2.717  18.508  0.00  0.00    +0.000 A 
ATOM      7  N   UNL     1       2.479   1.631  18.250  0.00  0.00    +0.000 N 
ATOM      8  N   UNL     1       3.683   1.933  17.747  0.00  0.00    +0.000 NA
ATOM      9  C   UNL     1       3.686   3.276  17.661  0.00  0.00    +0.000 A 
ATOM     10  H   UNL     1       2.253   0.655  18.407  0.00  0.00    +0.000 HD
BRANCH   9  11
ATOM     11  C   UNL     1       4.858   3.986  17.135  0.00  0.00    +0.000 A 
ATOM     12  C   UNL     1       4.985   4.286  15.771  0.00  0.00    +0.000 A 
ATOM     13  C   UNL     1       6.074   5.025  15.303  0.00  0.00    +0.000 A 
ATOM     14  C   UNL     1       7.065   5.442  16.188  0.00  0.00    +0.000 A 
ATOM     15  C   UNL     1       6.977   5.109  17.537  0.00  0.00    +0.000 A 
ATOM     16  C   UNL     1       5.880   4.385  18.007  0.00  0.00    +0.000 A 
ENDBRANCH   9  11
ENDBRANCH   3   5
BRANCH   2  17
ATOM     17  C   UNL     1       2.145   7.430  19.117  0.00  0.00    +0.000 A 
ATOM     18  C   UNL     1       2.306   8.086  17.893  0.00  0.00    +0.000 A 
ATOM     19  C   UNL     1       1.898   9.411  17.748  0.00  0.00    +0.000 A 
ATOM     20  C   UNL     1       1.336  10.085  18.833  0.00  0.00    +0.000 A 
ATOM     21  C   UNL     1       1.184   9.446  20.069  0.00  0.00    +0.000 A 
ATOM     22  C   UNL     1       1.591   8.113  20.210  0.00  0.00    +0.000 A 
BRANCH  21  23
ATOM     23  O   UNL     1       0.663  10.032  21.198  0.00  0.00    +0.000 OA
BRANCH  23  24
ATOM     24  C   UNL     1      -0.590  10.702  21.026  0.00  0.00    +0.000 C 
BRANCH  24  25
ATOM     25  C   UNL     1      -0.454  12.211  21.221  0.00  0.00    +0.000 C 
ATOM     26  C   UNL     1      -0.703  13.022  19.957  0.00  0.00    +0.000 C 
ATOM     27  C   UNL     1       0.235  14.192  20.137  0.00  0.00    +0.000 C 
ATOM     28  C   UNL     1       1.422  13.538  20.804  0.00  0.00    +0.000 C 
ATOM     29  O   UNL     1       0.891  12.513  21.650  0.00  0.00    +0.000 OA
ENDBRANCH  24  25
ENDBRANCH  23  24
ENDBRANCH  21  23
ENDBRANCH   2  17
TORSDOF 6
ENDMDL
MODEL 8
REMARK VINA RESULT:      -8.0      2.072      2.768
REMARK  Name = 
REMARK  6 active torsions:
REMARK  status: ('A' for Active; 'I' for Inactive)
REMARK    1  A    between atoms: C_2  and  C_15
REMARK    2  A    between atoms: N_3  and  C_4
REMARK    3  A    between atoms: C_8  and  C_9
REMARK    4  A    between atoms: C_19  and  O_20
REMARK    5  A    between atoms: O_20  and  C_21
REMARK    6  A    between atoms: C_21  and  C_22
REMARK                            x       y       z     vdW  Elec       q    Type
REMARK                         _______ _______ _______ _____ _____    ______ ____
ROOT
ATOM      1  O   UNL     1       2.098   6.468  17.904  0.00  0.00    +0.000 OA
ATOM      2  C   UNL     1       2.282   6.868  19.049  0.00  0.00    +0.000 C 
ATOM      3  N   UNL     1       2.925   6.179  20.058  0.00  0.00    +0.000 N 
ATOM      4  H   UNL     1       3.030   6.608  20.967  0.00  0.00    +0.000 HD
ENDROOT
BRANCH   3   5
ATOM      5  C   UNL     1       3.428   4.891  19.925  0.00  0.00    +0.000 A 
ATOM      6  C   UNL     1       2.860   3.731  20.391  0.00  0.00    +0.000 A 
ATOM      7  N   UNL     1       3.719   2.729  20.075  0.00  0.00    +0.000 N 
ATOM      8  N   UNL     1       4.822   3.145  19.440  0.00  0.00    +0.000 NA
ATOM      9  C   UNL     1       4.663   4.476  19.324  0.00  0.00    +0.000 A 
ATOM     10  H   UNL     1       3.623   1.739  20.277  0.00  0.00    +0.000 HD
BRANCH   9  11
ATOM     11  C   UNL     1       5.684   5.294  18.659  0.00  0.00    +0.000 A 
ATOM     12  C   UNL     1       5.497   5.792  17.361  0.00  0.00    +0.000 A 
ATOM     13  C   UNL     1       6.452   6.627  16.776  0.00  0.00    +0.000 A 
ATOM     14  C   UNL     1       7.619   6.943  17.466  0.00  0.00    +0.000 A 
ATOM     15  C   UNL     1       7.841   6.415  18.736  0.00  0.00    +0.000 A 
ATOM     16  C   UNL     1       6.878   5.595  19.328  0.00  0.00    +0.000 A 
ENDBRANCH   9  11
ENDBRANCH   3   5
BRANCH   2  17
ATOM     17  C   UNL     1       1.761   8.216  19.408  0.00  0.00    +0.000 A 
ATOM     18  C   UNL     1       1.650   9.139  18.363  0.00  0.00    +0.000 A 
ATOM     19  C   UNL     1       1.189  10.430  18.613  0.00  0.00    +0.000 A 
ATOM     20  C   UNL     1       0.848  10.803  19.913  0.00  0.00    +0.000 A 
ATOM     21  C   UNL     1       0.970   9.897  20.972  0.00  0.00    +0.000 A 
ATOM     22  C   UNL     1       1.428   8.597  20.717  0.00  0.00    +0.000 A 
BRANCH  21  23
ATOM     23  O   UNL     1       0.679  10.177  22.286  0.00  0.00    +0.000 OA
BRANCH  23  24
ATOM     24  C   UNL     1      -0.709  10.152  22.632  0.00  0.00    +0.000 C 
BRANCH  24  25
ATOM     25  C   UNL     1      -1.286  11.562  22.755  0.00  0.00    +0.000 C 
ATOM     26  C   UNL     1      -2.046  12.028  21.521  0.00  0.00    +0.000 C 
ATOM     27  C   UNL     1      -1.764  13.511  21.513  0.00  0.00    +0.000 C 
ATOM     28  C   UNL     1      -0.336  13.559  22.004  0.00  0.00    +0.000 C 
ATOM     29  O   UNL     1      -0.205  12.498  22.957  0.00  0.00    +0.000 OA
ENDBRANCH  24  25
ENDBRANCH  23  24
ENDBRANCH  21  23
ENDBRANCH   2  17
TORSDOF 6
ENDMDL
MODEL 9
REMARK VINA RESULT:      -8.0      1.166      3.381
REMARK  Name = 
REMARK  6 active torsions:
REMARK  status: ('A' for Active; 'I' for Inactive)
REMARK    1  A    between atoms: C_2  and  C_15
REMARK    2  A    between atoms: N_3  and  C_4
REMARK    3  A    between atoms: C_8  and  C_9
REMARK    4  A    between atoms: C_19  and  O_20
REMARK    5  A    between atoms: O_20  and  C_21
REMARK    6  A    between atoms: C_21  and  C_22
REMARK                            x       y       z     vdW  Elec       q    Type
REMARK                         _______ _______ _______ _____ _____    ______ ____
ROOT
ATOM      1  O   UNL     1       2.342   6.380  17.908  0.00  0.00    +0.000 OA
ATOM      2  C   UNL     1       2.721   6.886  18.960  0.00  0.00    +0.000 C 
ATOM      3  N   UNL     1       3.831   6.509  19.690  0.00  0.00    +0.000 N 
ATOM      4  H   UNL     1       4.058   7.001  20.544  0.00  0.00    +0.000 HD
ENDROOT
BRANCH   3   5
ATOM      5  C   UNL     1       4.668   5.455  19.348  0.00  0.00    +0.000 A 
ATOM      6  C   UNL     1       5.995   5.533  19.001  0.00  0.00    +0.000 A 
ATOM      7  N   UNL     1       6.389   4.269  18.704  0.00  0.00    +0.000 N 
ATOM      8  N   UNL     1       5.415   3.359  18.822  0.00  0.00    +0.000 NA
ATOM      9  C   UNL     1       4.342   4.062  19.230  0.00  0.00    +0.000 A 
ATOM     10  H   UNL     1       7.305   3.958  18.399  0.00  0.00    +0.000 HD
BRANCH   9  11
ATOM     11  C   UNL     1       3.062   3.391  19.481  0.00  0.00    +0.000 A 
ATOM     12  C   UNL     1       2.530   3.282  20.775  0.00  0.00    +0.000 A 
ATOM     13  C   UNL     1       1.277   2.702  20.982  0.00  0.00    +0.000 A 
ATOM     14  C   UNL     1       0.557   2.194  19.904  0.00  0.00    +0.000 A 
ATOM     15  C   UNL     1       1.094   2.251  18.620  0.00  0.00    +0.000 A 
ATOM     16  C   UNL     1       2.339   2.847  18.411  0.00  0.00    +0.000 A 
ENDBRANCH   9  11
ENDBRANCH   3   5
BRANCH   2  17
ATOM     17  C   UNL     1       1.916   8.003  19.526  0.00  0.00    +0.000 A 
ATOM     18  C   UNL     1       1.633   7.935  20.894  0.00  0.00    +0.000 A 
ATOM     19  C   UNL     1       0.868   8.929  21.502  0.00  0.00    +0.000 A 
ATOM     20  C   UNL     1       0.376   9.988  20.739  0.00  0.00    +0.000 A 
ATOM     21  C   UNL     1       0.636  10.060  19.366  0.00  0.00    +0.000 A 
ATOM     22  C   UNL     1       1.410   9.063  18.758  0.00  0.00    +0.000 A 
BRANCH  21  23
ATOM     23  O   UNL     1       0.178  11.051  18.529  0.00  0.00    +0.000 OA
BRANCH  23  24
ATOM     24  C   UNL     1      -1.124  11.562  18.830  0.00  0.00    +0.000 C 
BRANCH  24  25
ATOM     25  C   UNL     1      -2.225  10.687  18.232  0.00  0.00    +0.000 C 
ATOM     26  C   UNL     1      -1.804   9.937  16.976  0.00  0.00    +0.000 C 
ATOM     27  C   UNL     1      -3.090   9.891  16.185  0.00  0.00    +0.000 C 
ATOM     28  C   UNL     1      -3.700  11.235  16.506  0.00  0.00    +0.000 C 
ATOM     29  O   UNL     1      -3.343  11.522  17.863  0.00  0.00    +0.000 OA
ENDBRANCH  24  25
ENDBRANCH  23  24
ENDBRANCH  21  23
ENDBRANCH   2  17
TORSDOF 6
ENDMDL
