MODEL 1
REMARK VINA RESULT:      -8.5      0.000      0.000
REMARK  Name = 
REMARK  6 active torsions:
REMARK  status: ('A' for Active; 'I' for Inactive)
REMARK    1  A    between atoms: C_1  and  O_2
REMARK    2  A    between atoms: O_2  and  C_3
REMARK    3  A    between atoms: C_3  and  C_5
REMARK    4  A    between atoms: C_8  and  C_9
REMARK    5  A    between atoms: C_9  and  O_10
REMARK    6  A    between atoms: O_10  and  C_11
REMARK                            x       y       z     vdW  Elec       q    Type
REMARK                         _______ _______ _______ _____ _____    ______ ____
ROOT
ATOM      1  C   UNL     1       2.101   7.612  19.538  0.00  0.00    +0.000 A 
ATOM      2  C   UNL     1       2.003   8.289  18.313  0.00  0.00    +0.000 A 
ATOM      3  C   UNL     1       1.225   9.448  18.186  0.00  0.00    +0.000 A 
ATOM      4  C   UNL     1       0.528   9.941  19.287  0.00  0.00    +0.000 A 
ATOM      5  C   UNL     1      -0.493  10.959  19.183  0.00  0.00    +0.000 A 
ATOM      6  C   UNL     1      -1.051  11.519  20.267  0.00  0.00    +0.000 A 
ATOM      7  C   UNL     1      -0.761  11.029  21.625  0.00  0.00    +0.000 A 
ATOM      8  O   UNL     1      -1.302  11.499  22.621  0.00  0.00    +0.000 OA
ATOM      9  O   UNL     1       0.069   9.891  21.677  0.00  0.00    +0.000 OA
ATOM     10  C   UNL     1       0.700   9.334  20.526  0.00  0.00    +0.000 A 
ATOM     11  C   UNL     1       1.455   8.158  20.661  0.00  0.00    +0.000 A 
ATOM     12  C   UNL     1      -2.286  12.271  19.885  0.00  0.00    +0.000 C 
ATOM     13  C   UNL     1      -2.706  11.405  18.698  0.00  0.00    +0.000 C 
ATOM     14  C   UNL     1      -1.377  11.125  17.985  0.00  0.00    +0.000 C 
ENDROOT
BRANCH   1  15
ATOM     15  O   UNL     1       2.843   6.444  19.488  0.00  0.00    +0.000 OA
BRANCH  15  16
ATOM     16  C   UNL     1       2.565   5.583  18.381  0.00  0.00    +0.000 C 
BRANCH  16  20
ATOM     17  C   UNL     1       5.743   4.870  15.465  0.00  0.00    +0.000 A 
ATOM     18  C   UNL     1       5.061   3.775  16.019  0.00  0.00    +0.000 A 
ATOM     19  C   UNL     1       4.055   3.959  16.997  0.00  0.00    +0.000 A 
ATOM     20  C   UNL     1       3.721   5.244  17.444  0.00  0.00    +0.000 A 
ATOM     21  C   UNL     1       4.415   6.337  16.880  0.00  0.00    +0.000 A 
ATOM     22  C   UNL     1       5.413   6.152  15.913  0.00  0.00    +0.000 A 
BRANCH  17  23
ATOM     23  C   UNL     1       6.780   4.655  14.411  0.00  0.00    +0.000 C 
ATOM     24  O   UNL     1       7.703   5.427  14.203  0.00  0.00    +0.000 OA
BRANCH  23  26
ATOM     25  C   UNL     1       6.344   3.595  12.339  0.00  0.00    +0.000 C 
ATOM     26  O   UNL     1       6.557   3.489  13.752  0.00  0.00    +0.000 OA
ENDBRANCH  23  26
ENDBRANCH  17  23
ENDBRANCH  16  20
ENDBRANCH  15  16
ENDBRANCH   1  15
TORSDOF 5
ENDMDL
MODEL 2
REMARK VINA RESULT:      -8.5      1.005      1.087
REMARK  Name = 
REMARK  6 active torsions:
REMARK  status: ('A' for Active; 'I' for Inactive)
REMARK    1  A    between atoms: C_1  and  O_2
REMARK    2  A    between atoms: O_2  and  C_3
REMARK    3  A    between atoms: C_3  and  C_5
REMARK    4  A    between atoms: C_8  and  C_9
REMARK    5  A    between atoms: C_9  and  O_10
REMARK    6  A    between atoms: O_10  and  C_11
REMARK                            x       y       z     vdW  Elec       q    Type
REMARK                         _______ _______ _______ _____ _____    ______ ____
ROOT
ATOM      1  C   UNL     1       2.239   7.072  19.386  0.00  0.00    +0.000 A 
ATOM      2  C   UNL     1       2.223   7.991  18.325  0.00  0.00    +0.000 A 
ATOM      3  C   UNL     1       1.622   9.249  18.467  0.00  0.00    +0.000 A 
ATOM      4  C   UNL     1       1.024   9.602  19.674  0.00  0.00    +0.000 A 
ATOM      5  C   UNL     1       0.163  10.754  19.820  0.00  0.00    +0.000 A 
ATOM      6  C   UNL     1      -0.289  11.155  21.018  0.00  0.00    +0.000 A 
ATOM      7  C   UNL     1      -0.054  10.364  22.237  0.00  0.00    +0.000 A 
ATOM      8  O   UNL     1      -0.504  10.694  23.330  0.00  0.00    +0.000 OA
ATOM      9  O   UNL     1       0.600   9.134  22.024  0.00  0.00    +0.000 OA
ATOM     10  C   UNL     1       1.123   8.739  20.758  0.00  0.00    +0.000 A 
ATOM     11  C   UNL     1       1.700   7.465  20.624  0.00  0.00    +0.000 A 
ATOM     12  C   UNL     1      -1.406  12.136  20.849  0.00  0.00    +0.000 C 
ATOM     13  C   UNL     1      -1.968  11.597  19.535  0.00  0.00    +0.000 C 
ATOM     14  C   UNL     1      -0.707  11.282  18.721  0.00  0.00    +0.000 C 
ENDROOT
BRANCH   1  15
ATOM     15  O   UNL     1       2.800   5.846  19.072  0.00  0.00    +0.000 OA
BRANCH  15  16
ATOM     16  C   UNL     1       4.213   5.746  19.264  0.00  0.00    +0.000 C 
BRANCH  16  20
ATOM     17  C   UNL     1       6.386   5.077  15.529  0.00  0.00    +0.000 A 
ATOM     18  C   UNL     1       6.873   4.511  16.719  0.00  0.00    +0.000 A 
ATOM     19  C   UNL     1       6.224   4.737  17.956  0.00  0.00    +0.000 A 
ATOM     20  C   UNL     1       5.080   5.543  18.024  0.00  0.00    +0.000 A 
ATOM     21  C   UNL     1       4.601   6.107  16.822  0.00  0.00    +0.000 A 
ATOM     22  C   UNL     1       5.247   5.883  15.598  0.00  0.00    +0.000 A 
BRANCH  17  23
ATOM     23  C   UNL     1       7.069   4.799  14.230  0.00  0.00    +0.000 C 
ATOM     24  O   UNL     1       7.957   5.500  13.769  0.00  0.00    +0.000 OA
BRANCH  23  26
ATOM     25  C   UNL     1       6.455   3.675  12.239  0.00  0.00    +0.000 C 
ATOM     26  O   UNL     1       6.581   3.665  13.666  0.00  0.00    +0.000 OA
ENDBRANCH  23  26
ENDBRANCH  17  23
ENDBRANCH  16  20
ENDBRANCH  15  16
ENDBRANCH   1  15
TORSDOF 5
ENDMDL
MODEL 3
REMARK VINA RESULT:      -8.5      2.713      9.229
REMARK  Name = 
REMARK  6 active torsions:
REMARK  status: ('A' for Active; 'I' for Inactive)
REMARK    1  A    between atoms: C_1  and  O_2
REMARK    2  A    between atoms: O_2  and  C_3
REMARK    3  A    between atoms: C_3  and  C_5
REMARK    4  A    between atoms: C_8  and  C_9
REMARK    5  A    between atoms: C_9  and  O_10
REMARK    6  A    between atoms: O_10  and  C_11
REMARK                            x       y       z     vdW  Elec       q    Type
REMARK                         _______ _______ _______ _____ _____    ______ ____
ROOT
ATOM      1  C   UNL     1       1.682   8.450  19.662  0.00  0.00    +0.000 A 
ATOM      2  C   UNL     1       1.297   7.674  20.766  0.00  0.00    +0.000 A 
ATOM      3  C   UNL     1       1.511   6.290  20.788  0.00  0.00    +0.000 A 
ATOM      4  C   UNL     1       2.111   5.661  19.699  0.00  0.00    +0.000 A 
ATOM      5  C   UNL     1       2.127   4.226  19.528  0.00  0.00    +0.000 A 
ATOM      6  C   UNL     1       2.829   3.636  18.549  0.00  0.00    +0.000 A 
ATOM      7  C   UNL     1       3.507   4.420  17.504  0.00  0.00    +0.000 A 
ATOM      8  O   UNL     1       4.110   3.893  16.575  0.00  0.00    +0.000 OA
ATOM      9  O   UNL     1       3.287   5.811  17.574  0.00  0.00    +0.000 OA
ATOM     10  C   UNL     1       2.585   6.435  18.647  0.00  0.00    +0.000 A 
ATOM     11  C   UNL     1       2.355   7.819  18.600  0.00  0.00    +0.000 A 
ATOM     12  C   UNL     1       2.405   2.210  18.394  0.00  0.00    +0.000 C 
ATOM     13  C   UNL     1       0.947   2.371  18.821  0.00  0.00    +0.000 C 
ATOM     14  C   UNL     1       1.040   3.321  20.021  0.00  0.00    +0.000 C 
ENDROOT
BRANCH   1  15
ATOM     15  O   UNL     1       1.337   9.788  19.754  0.00  0.00    +0.000 OA
BRANCH  15  16
ATOM     16  C   UNL     1       0.829  10.377  18.556  0.00  0.00    +0.000 C 
BRANCH  16  20
ATOM     17  C   UNL     1      -3.446  11.044  17.925  0.00  0.00    +0.000 A 
ATOM     18  C   UNL     1      -2.773  11.782  18.913  0.00  0.00    +0.000 A 
ATOM     19  C   UNL     1      -1.400  11.567  19.179  0.00  0.00    +0.000 A 
ATOM     20  C   UNL     1      -0.678  10.603  18.464  0.00  0.00    +0.000 A 
ATOM     21  C   UNL     1      -1.365   9.867  17.474  0.00  0.00    +0.000 A 
ATOM     22  C   UNL     1      -2.726  10.080  17.215  0.00  0.00    +0.000 A 
BRANCH  17  23
ATOM     23  C   UNL     1      -4.888  11.309  17.640  0.00  0.00    +0.000 C 
ATOM     24  O   UNL     1      -5.276  12.144  16.837  0.00  0.00    +0.000 OA
BRANCH  23  26
ATOM     25  C   UNL     1      -6.886  11.064  18.886  0.00  0.00    +0.000 C 
ATOM     26  O   UNL     1      -5.680  10.486  18.373  0.00  0.00    +0.000 OA
ENDBRANCH  23  26
ENDBRANCH  17  23
ENDBRANCH  16  20
ENDBRANCH  15  16
ENDBRANCH   1  15
TORSDOF 5
ENDMDL
MODEL 4
REMARK VINA RESULT:      -8.4      2.821      9.263
REMARK  Name = 
REMARK  6 active torsions:
REMARK  status: ('A' for Active; 'I' for Inactive)
REMARK    1  A    between atoms: C_1  and  O_2
REMARK    2  A    between atoms: O_2  and  C_3
REMARK    3  A    between atoms: C_3  and  C_5
REMARK    4  A    between atoms: C_8  and  C_9
REMARK    5  A    between atoms: C_9  and  O_10
REMARK    6  A    between atoms: O_10  and  C_11
REMARK                            x       y       z     vdW  Elec       q    Type
REMARK                         _______ _______ _______ _____ _____    ______ ____
ROOT
ATOM      1  C   UNL     1       1.917   8.771  18.507  0.00  0.00    +0.000 A 
ATOM      2  C   UNL     1       1.578   8.468  19.835  0.00  0.00    +0.000 A 
ATOM      3  C   UNL     1       1.816   7.196  20.371  0.00  0.00    +0.000 A 
ATOM      4  C   UNL     1       2.394   6.205  19.581  0.00  0.00    +0.000 A 
ATOM      5  C   UNL     1       2.429   4.812  19.964  0.00  0.00    +0.000 A 
ATOM      6  C   UNL     1       3.111   3.898  19.257  0.00  0.00    +0.000 A 
ATOM      7  C   UNL     1       3.745   4.232  17.971  0.00  0.00    +0.000 A 
ATOM      8  O   UNL     1       4.329   3.395  17.290  0.00  0.00    +0.000 OA
ATOM      9  O   UNL     1       3.504   5.545  17.518  0.00  0.00    +0.000 OA
ATOM     10  C   UNL     1       2.823   6.525  18.299  0.00  0.00    +0.000 A 
ATOM     11  C   UNL     1       2.568   7.788  17.740  0.00  0.00    +0.000 A 
ATOM     12  C   UNL     1       2.707   2.517  19.667  0.00  0.00    +0.000 C 
ATOM     13  C   UNL     1       1.260   2.822  20.050  0.00  0.00    +0.000 C 
ATOM     14  C   UNL     1       1.373   4.155  20.799  0.00  0.00    +0.000 C 
ENDROOT
BRANCH   1  15
ATOM     15  O   UNL     1       1.552  10.042  18.099  0.00  0.00    +0.000 OA
BRANCH  15  16
ATOM     16  C   UNL     1       0.660  10.738  18.971  0.00  0.00    +0.000 C 
BRANCH  16  20
ATOM     17  C   UNL     1      -3.601  11.122  18.068  0.00  0.00    +0.000 A 
ATOM     18  C   UNL     1      -2.831  10.181  17.364  0.00  0.00    +0.000 A 
ATOM     19  C   UNL     1      -1.441  10.054  17.595  0.00  0.00    +0.000 A 
ATOM     20  C   UNL     1      -0.796  10.873  18.530  0.00  0.00    +0.000 A 
ATOM     21  C   UNL     1      -1.580  11.815  19.231  0.00  0.00    +0.000 A 
ATOM     22  C   UNL     1      -2.957  11.941  18.998  0.00  0.00    +0.000 A 
BRANCH  17  23
ATOM     23  C   UNL     1      -5.073  11.217  17.830  0.00  0.00    +0.000 C 
ATOM     24  O   UNL     1      -5.897  10.522  18.405  0.00  0.00    +0.000 OA
BRANCH  23  26
ATOM     25  C   UNL     1      -6.584  12.888  17.102  0.00  0.00    +0.000 C 
ATOM     26  O   UNL     1      -5.349  12.185  16.919  0.00  0.00    +0.000 OA
ENDBRANCH  23  26
ENDBRANCH  17  23
ENDBRANCH  16  20
ENDBRANCH  15  16
ENDBRANCH   1  15
TORSDOF 5
ENDMDL
MODEL 5
REMARK VINA RESULT:      -8.4      1.360      2.139
REMARK  Name = 
REMARK  6 active torsions:
REMARK  status: ('A' for Active; 'I' for Inactive)
REMARK    1  A    between atoms: C_1  and  O_2
REMARK    2  A    between atoms: O_2  and  C_3
REMARK    3  A    between atoms: C_3  and  C_5
REMARK    4  A    between atoms: C_8  and  C_9
REMARK    5  A    between atoms: C_9  and  O_10
REMARK    6  A    between atoms: O_10  and  C_11
REMARK                            x       y       z     vdW  Elec       q    Type
REMARK                         _______ _______ _______ _____ _____    ______ ____
ROOT
ATOM      1  C   UNL     1       1.832   7.858  19.830  0.00  0.00    +0.000 A 
ATOM      2  C   UNL     1       1.141   7.726  21.044  0.00  0.00    +0.000 A 
ATOM      3  C   UNL     1       0.214   8.692  21.459  0.00  0.00    +0.000 A 
ATOM      4  C   UNL     1      -0.030   9.808  20.662  0.00  0.00    +0.000 A 
ATOM      5  C   UNL     1      -0.758  10.966  21.129  0.00  0.00    +0.000 A 
ATOM      6  C   UNL     1      -1.102  11.968  20.306  0.00  0.00    +0.000 A 
ATOM      7  C   UNL     1      -0.635  12.016  18.911  0.00  0.00    +0.000 A 
ATOM      8  O   UNL     1      -0.901  12.951  18.162  0.00  0.00    +0.000 OA
ATOM      9  O   UNL     1       0.255  10.985  18.551  0.00  0.00    +0.000 OA
ATOM     10  C   UNL     1       0.575   9.896  19.414  0.00  0.00    +0.000 A 
ATOM     11  C   UNL     1       1.524   8.949  18.997  0.00  0.00    +0.000 A 
ATOM     12  C   UNL     1      -1.533  13.163  21.095  0.00  0.00    +0.000 C 
ATOM     13  C   UNL     1      -0.649  12.941  22.321  0.00  0.00    +0.000 C 
ATOM     14  C   UNL     1      -0.753  11.429  22.554  0.00  0.00    +0.000 C 
ENDROOT
BRANCH   1  15
ATOM     15  O   UNL     1       2.768   6.866  19.594  0.00  0.00    +0.000 OA
BRANCH  15  16
ATOM     16  C   UNL     1       2.468   5.979  18.515  0.00  0.00    +0.000 C 
BRANCH  16  20
ATOM     17  C   UNL     1       5.638   5.040  15.653  0.00  0.00    +0.000 A 
ATOM     18  C   UNL     1       4.929   3.992  16.262  0.00  0.00    +0.000 A 
ATOM     19  C   UNL     1       3.925   4.250  17.225  0.00  0.00    +0.000 A 
ATOM     20  C   UNL     1       3.619   5.564  17.601  0.00  0.00    +0.000 A 
ATOM     21  C   UNL     1       4.338   6.609  16.982  0.00  0.00    +0.000 A 
ATOM     22  C   UNL     1       5.335   6.351  16.030  0.00  0.00    +0.000 A 
BRANCH  17  23
ATOM     23  C   UNL     1       6.672   4.746  14.616  0.00  0.00    +0.000 C 
ATOM     24  O   UNL     1       7.681   5.416  14.459  0.00  0.00    +0.000 OA
BRANCH  23  26
ATOM     25  C   UNL     1       6.548   3.705  12.493  0.00  0.00    +0.000 C 
ATOM     26  O   UNL     1       6.339   3.636  13.909  0.00  0.00    +0.000 OA
ENDBRANCH  23  26
ENDBRANCH  17  23
ENDBRANCH  16  20
ENDBRANCH  15  16
ENDBRANCH   1  15
TORSDOF 5
ENDMDL
MODEL 6
REMARK VINA RESULT:      -8.2      1.222      1.569
REMARK  Name = 
REMARK  6 active torsions:
REMARK  status: ('A' for Active; 'I' for Inactive)
REMARK    1  A    between atoms: C_1  and  O_2
REMARK    2  A    between atoms: O_2  and  C_3
REMARK    3  A    between atoms: C_3  and  C_5
REMARK    4  A    between atoms: C_8  and  C_9
REMARK    5  A    between atoms: C_9  and  O_10
REMARK    6  A    between atoms: O_10  and  C_11
REMARK                            x       y       z     vdW  Elec       q    Type
REMARK                         _______ _______ _______ _____ _____    ______ ____
ROOT
ATOM      1  C   UNL     1       2.550   6.010  19.435  0.00  0.00    +0.000 A 
ATOM      2  C   UNL     1       2.550   6.798  18.274  0.00  0.00    +0.000 A 
ATOM      3  C   UNL     1       2.056   8.110  18.289  0.00  0.00    +0.000 A 
ATOM      4  C   UNL     1       1.549   8.648  19.470  0.00  0.00    +0.000 A 
ATOM      5  C   UNL     1       0.788   9.876  19.513  0.00  0.00    +0.000 A 
ATOM      6  C   UNL     1       0.431  10.449  20.672  0.00  0.00    +0.000 A 
ATOM      7  C   UNL     1       0.667   9.788  21.966  0.00  0.00    +0.000 A 
ATOM      8  O   UNL     1       0.301  10.278  23.030  0.00  0.00    +0.000 OA
ATOM      9  O   UNL     1       1.213   8.491  21.875  0.00  0.00    +0.000 OA
ATOM     10  C   UNL     1       1.638   7.911  20.644  0.00  0.00    +0.000 A 
ATOM     11  C   UNL     1       2.107   6.587  20.638  0.00  0.00    +0.000 A 
ATOM     12  C   UNL     1      -0.615  11.493  20.435  0.00  0.00    +0.000 C 
ATOM     13  C   UNL     1      -1.284  10.853  19.219  0.00  0.00    +0.000 C 
ATOM     14  C   UNL     1      -0.094  10.344  18.396  0.00  0.00    +0.000 C 
ENDROOT
BRANCH   1  15
ATOM     15  O   UNL     1       2.998   4.714  19.246  0.00  0.00    +0.000 OA
BRANCH  15  16
ATOM     16  C   UNL     1       4.416   4.542  19.264  0.00  0.00    +0.000 C 
BRANCH  16  20
ATOM     17  C   UNL     1       6.421   4.822  15.389  0.00  0.00    +0.000 A 
ATOM     18  C   UNL     1       5.505   3.782  15.615  0.00  0.00    +0.000 A 
ATOM     19  C   UNL     1       4.866   3.630  16.869  0.00  0.00    +0.000 A 
ATOM     20  C   UNL     1       5.141   4.513  17.920  0.00  0.00    +0.000 A 
ATOM     21  C   UNL     1       6.064   5.554  17.681  0.00  0.00    +0.000 A 
ATOM     22  C   UNL     1       6.697   5.701  16.439  0.00  0.00    +0.000 A 
BRANCH  17  23
ATOM     23  C   UNL     1       7.060   4.983  14.048  0.00  0.00    +0.000 C 
ATOM     24  O   UNL     1       8.127   5.550  13.871  0.00  0.00    +0.000 OA
BRANCH  23  26
ATOM     25  C   UNL     1       6.997   3.521  12.186  0.00  0.00    +0.000 C 
ATOM     26  O   UNL     1       6.304   4.396  13.085  0.00  0.00    +0.000 OA
ENDBRANCH  23  26
ENDBRANCH  17  23
ENDBRANCH  16  20
ENDBRANCH  15  16
ENDBRANCH   1  15
TORSDOF 5
ENDMDL
MODEL 7
REMARK VINA RESULT:      -8.2      2.563      9.282
REMARK  Name = 
REMARK  6 active torsions:
REMARK  status: ('A' for Active; 'I' for Inactive)
REMARK    1  A    between atoms: C_1  and  O_2
REMARK    2  A    between atoms: O_2  and  C_3
REMARK    3  A    between atoms: C_3  and  C_5
REMARK    4  A    between atoms: C_8  and  C_9
REMARK    5  A    between atoms: C_9  and  O_10
REMARK    6  A    between atoms: O_10  and  C_11
REMARK                            x       y       z     vdW  Elec       q    Type
REMARK                         _______ _______ _______ _____ _____    ______ ____
ROOT
ATOM      1  C   UNL     1       1.663   8.345  19.747  0.00  0.00    +0.000 A 
ATOM      2  C   UNL     1       1.289   7.541  20.835  0.00  0.00    +0.000 A 
ATOM      3  C   UNL     1       1.522   6.160  20.828  0.00  0.00    +0.000 A 
ATOM      4  C   UNL     1       2.129   5.563  19.725  0.00  0.00    +0.000 A 
ATOM      5  C   UNL     1       2.165   4.132  19.524  0.00  0.00    +0.000 A 
ATOM      6  C   UNL     1       2.873   3.572  18.531  0.00  0.00    +0.000 A 
ATOM      7  C   UNL     1       3.540   4.388  17.503  0.00  0.00    +0.000 A 
ATOM      8  O   UNL     1       4.149   3.888  16.563  0.00  0.00    +0.000 OA
ATOM      9  O   UNL     1       3.301   5.773  17.603  0.00  0.00    +0.000 OA
ATOM     10  C   UNL     1       2.592   6.365  18.689  0.00  0.00    +0.000 A 
ATOM     11  C   UNL     1       2.342   7.747  18.672  0.00  0.00    +0.000 A 
ATOM     12  C   UNL     1       2.469   2.144  18.347  0.00  0.00    +0.000 C 
ATOM     13  C   UNL     1       1.010   2.276  18.778  0.00  0.00    +0.000 C 
ATOM     14  C   UNL     1       1.091   3.201  19.999  0.00  0.00    +0.000 C 
ENDROOT
BRANCH   1  15
ATOM     15  O   UNL     1       1.299   9.676  19.868  0.00  0.00    +0.000 OA
BRANCH  15  16
ATOM     16  C   UNL     1       0.978  10.341  18.645  0.00  0.00    +0.000 C 
BRANCH  16  20
ATOM     17  C   UNL     1      -3.276  11.271  18.259  0.00  0.00    +0.000 A 
ATOM     18  C   UNL     1      -2.724  10.243  17.478  0.00  0.00    +0.000 A 
ATOM     19  C   UNL     1      -1.344   9.938  17.541  0.00  0.00    +0.000 A 
ATOM     20  C   UNL     1      -0.490  10.664  18.381  0.00  0.00    +0.000 A 
ATOM     21  C   UNL     1      -1.057  11.696  19.161  0.00  0.00    +0.000 A 
ATOM     22  C   UNL     1      -2.424  11.998  19.095  0.00  0.00    +0.000 A 
BRANCH  17  23
ATOM     23  C   UNL     1      -4.742  11.556  18.200  0.00  0.00    +0.000 C 
ATOM     24  O   UNL     1      -5.422  11.394  17.198  0.00  0.00    +0.000 OA
BRANCH  23  26
ATOM     25  C   UNL     1      -6.430  11.417  19.854  0.00  0.00    +0.000 C 
ATOM     26  O   UNL     1      -5.194  11.987  19.405  0.00  0.00    +0.000 OA
ENDBRANCH  23  26
ENDBRANCH  17  23
ENDBRANCH  16  20
ENDBRANCH  15  16
ENDBRANCH   1  15
TORSDOF 5
ENDMDL
MODEL 8
REMARK VINA RESULT:      -8.1      5.587      8.637
REMARK  Name = 
REMARK  6 active torsions:
REMARK  status: ('A' for Active; 'I' for Inactive)
REMARK    1  A    between atoms: C_1  and  O_2
REMARK    2  A    between atoms: O_2  and  C_3
REMARK    3  A    between atoms: C_3  and  C_5
REMARK    4  A    between atoms: C_8  and  C_9
REMARK    5  A    between atoms: C_9  and  O_10
REMARK    6  A    between atoms: O_10  and  C_11
REMARK                            x       y       z     vdW  Elec       q    Type
REMARK                         _______ _______ _______ _____ _____    ______ ____
ROOT
ATOM      1  C   UNL     1       6.185   6.971  17.621  0.00  0.00    +0.000 A 
ATOM      2  C   UNL     1       4.848   7.276  17.324  0.00  0.00    +0.000 A 
ATOM      3  C   UNL     1       3.809   6.408  17.686  0.00  0.00    +0.000 A 
ATOM      4  C   UNL     1       4.099   5.216  18.348  0.00  0.00    +0.000 A 
ATOM      5  C   UNL     1       3.132   4.155  18.519  0.00  0.00    +0.000 A 
ATOM      6  C   UNL     1       3.387   3.079  19.278  0.00  0.00    +0.000 A 
ATOM      7  C   UNL     1       4.716   2.845  19.866  0.00  0.00    +0.000 A 
ATOM      8  O   UNL     1       4.977   1.841  20.521  0.00  0.00    +0.000 OA
ATOM      9  O   UNL     1       5.698   3.787  19.498  0.00  0.00    +0.000 OA
ATOM     10  C   UNL     1       5.408   4.956  18.734  0.00  0.00    +0.000 A 
ATOM     11  C   UNL     1       6.461   5.804  18.355  0.00  0.00    +0.000 A 
ATOM     12  C   UNL     1       2.380   2.005  19.011  0.00  0.00    +0.000 C 
ATOM     13  C   UNL     1       2.102   2.332  17.545  0.00  0.00    +0.000 C 
ATOM     14  C   UNL     1       2.039   3.865  17.537  0.00  0.00    +0.000 C 
ENDROOT
BRANCH   1  15
ATOM     15  O   UNL     1       7.102   7.887  17.133  0.00  0.00    +0.000 OA
BRANCH  15  16
ATOM     16  C   UNL     1       8.240   8.123  17.965  0.00  0.00    +0.000 C 
BRANCH  16  20
ATOM     17  C   UNL     1       9.211  12.317  18.731  0.00  0.00    +0.000 A 
ATOM     18  C   UNL     1       9.652  11.334  19.631  0.00  0.00    +0.000 A 
ATOM     19  C   UNL     1       9.324   9.970  19.444  0.00  0.00    +0.000 A 
ATOM     20  C   UNL     1       8.540   9.569  18.355  0.00  0.00    +0.000 A 
ATOM     21  C   UNL     1       8.102  10.566  17.457  0.00  0.00    +0.000 A 
ATOM     22  C   UNL     1       8.426  11.917  17.646  0.00  0.00    +0.000 A 
BRANCH  17  23
ATOM     23  C   UNL     1       9.595  13.747  18.931  0.00  0.00    +0.000 C 
ATOM     24  O   UNL     1       9.788  14.530  18.013  0.00  0.00    +0.000 OA
BRANCH  23  26
ATOM     25  C   UNL     1      10.840  14.760  20.672  0.00  0.00    +0.000 C 
ATOM     26  O   UNL     1       9.673  14.041  20.254  0.00  0.00    +0.000 OA
ENDBRANCH  23  26
ENDBRANCH  17  23
ENDBRANCH  16  20
ENDBRANCH  15  16
ENDBRANCH   1  15
TORSDOF 5
ENDMDL
MODEL 9
REMARK VINA RESULT:      -8.0      5.591      8.735
REMARK  Name = 
REMARK  6 active torsions:
REMARK  status: ('A' for Active; 'I' for Inactive)
REMARK    1  A    between atoms: C_1  and  O_2
REMARK    2  A    between atoms: O_2  and  C_3
REMARK    3  A    between atoms: C_3  and  C_5
REMARK    4  A    between atoms: C_8  and  C_9
REMARK    5  A    between atoms: C_9  and  O_10
REMARK    6  A    between atoms: O_10  and  C_11
REMARK                            x       y       z     vdW  Elec       q    Type
REMARK                         _______ _______ _______ _____ _____    ______ ____
ROOT
ATOM      1  C   UNL     1       6.458   6.897  17.401  0.00  0.00    +0.000 A 
ATOM      2  C   UNL     1       7.161   5.778  17.876  0.00  0.00    +0.000 A 
ATOM      3  C   UNL     1       6.494   4.591  18.208  0.00  0.00    +0.000 A 
ATOM      4  C   UNL     1       5.110   4.511  18.073  0.00  0.00    +0.000 A 
ATOM      5  C   UNL     1       4.325   3.435  18.634  0.00  0.00    +0.000 A 
ATOM      6  C   UNL     1       3.015   3.301  18.375  0.00  0.00    +0.000 A 
ATOM      7  C   UNL     1       2.269   4.322  17.620  0.00  0.00    +0.000 A 
ATOM      8  O   UNL     1       1.062   4.237  17.419  0.00  0.00    +0.000 OA
ATOM      9  O   UNL     1       3.018   5.466  17.277  0.00  0.00    +0.000 OA
ATOM     10  C   UNL     1       4.420   5.577  17.510  0.00  0.00    +0.000 A 
ATOM     11  C   UNL     1       5.072   6.781  17.197  0.00  0.00    +0.000 A 
ATOM     12  C   UNL     1       2.393   2.333  19.330  0.00  0.00    +0.000 C 
ATOM     13  C   UNL     1       3.301   2.601  20.529  0.00  0.00    +0.000 C 
ATOM     14  C   UNL     1       4.693   2.710  19.893  0.00  0.00    +0.000 C 
ENDROOT
BRANCH   1  15
ATOM     15  O   UNL     1       7.243   8.018  17.189  0.00  0.00    +0.000 OA
BRANCH  15  16
ATOM     16  C   UNL     1       8.205   8.299  18.207  0.00  0.00    +0.000 C 
BRANCH  16  20
ATOM     17  C   UNL     1       9.429  12.424  18.983  0.00  0.00    +0.000 A 
ATOM     18  C   UNL     1       8.708  12.129  17.814  0.00  0.00    +0.000 A 
ATOM     19  C   UNL     1       8.330  10.801  17.504  0.00  0.00    +0.000 A 
ATOM     20  C   UNL     1       8.674   9.744  18.355  0.00  0.00    +0.000 A 
ATOM     21  C   UNL     1       9.399  10.053  19.527  0.00  0.00    +0.000 A 
ATOM     22  C   UNL     1       9.775  11.369  19.831  0.00  0.00    +0.000 A 
BRANCH  17  23
ATOM     23  C   UNL     1       9.791  13.837  19.307  0.00  0.00    +0.000 C 
ATOM     24  O   UNL     1       9.989  14.240  20.442  0.00  0.00    +0.000 OA
BRANCH  23  26
ATOM     25  C   UNL     1       9.219  15.847  18.192  0.00  0.00    +0.000 C 
ATOM     26  O   UNL     1       9.886  14.578  18.174  0.00  0.00    +0.000 OA
ENDBRANCH  23  26
ENDBRANCH  17  23
ENDBRANCH  16  20
ENDBRANCH  15  16
ENDBRANCH   1  15
TORSDOF 5
ENDMDL
