MODEL 1
REMARK VINA RESULT:      -7.1      0.000      0.000
REMARK  Name = 
REMARK  4 active torsions:
REMARK  status: ('A' for Active; 'I' for Inactive)
REMARK    1  A    between atoms: C_1  and  C_2
REMARK    2  A    between atoms: N_4  and  C_5
REMARK    3  A    between atoms: C_12  and  C_13
REMARK    4  A    between atoms: C_14  and  C_15
REMARK                            x       y       z     vdW  Elec       q    Type
REMARK                         _______ _______ _______ _____ _____    ______ ____
ROOT
ATOM      1  C   UNL     1      -0.415  12.416  18.577  0.00  0.00    +0.000 C 
ATOM      2  C   UNL     1      -1.850  12.507  19.166  0.00  0.00    +0.000 C 
ATOM      3  O   UNL     1      -2.762  11.603  18.492  0.00  0.00    +0.000 OA
ATOM      4  C   UNL     1      -2.300  10.247  18.552  0.00  0.00    +0.000 C 
ATOM      5  C   UNL     1      -0.903  10.119  17.919  0.00  0.00    +0.000 C 
ATOM      6  N   UNL     1       0.059  11.006  18.653  0.00  0.00    +0.000 N 
ATOM      7  C   UNL     1       0.531  10.458  19.835  0.00  0.00    +0.000 A 
ATOM      8  N   UNL     1       1.097   9.248  19.743  0.00  0.00    +0.000 NA
ATOM      9  C   UNL     1       1.179   8.484  20.910  0.00  0.00    +0.000 A 
ATOM     10  C   UNL     1       0.401   8.704  21.943  0.00  0.00    +0.000 A 
ATOM     11  N   UNL     1       0.072  10.032  22.162  0.00  0.00    +0.000 N 
ATOM     12  N   UNL     1      -0.462  10.680  23.209  0.00  0.00    +0.000 NA
ATOM     13  N   UNL     1      -0.458  11.955  22.901  0.00  0.00    +0.000 NA
ATOM     14  N   UNL     1      -0.020  12.149  21.615  0.00  0.00    +0.000 NA
ATOM     15  C   UNL     1       0.274  10.952  21.165  0.00  0.00    +0.000 A 
ENDROOT
BRANCH   1  22
ATOM     16  C   UNL     1      -0.754  15.541  20.012  0.00  0.00    +0.000 C 
ATOM     17  C   UNL     1       0.427  14.801  19.499  0.00  0.00    +0.000 A 
ATOM     18  N   UNL     1       1.575  15.484  19.488  0.00  0.00    +0.000 NA
ATOM     19  N   UNL     1       2.534  14.592  19.184  0.00  0.00    +0.000 N 
ATOM     20  C   UNL     1       1.981  13.426  18.695  0.00  0.00    +0.000 A 
ATOM     21  C   UNL     1       2.746  12.410  17.919  0.00  0.00    +0.000 C 
ATOM     22  C   UNL     1       0.599  13.492  18.954  0.00  0.00    +0.000 A 
BRANCH  19  23
ATOM     23  C   UNL     1       3.873  14.990  19.373  0.00  0.00    +0.000 A 
ATOM     24  C   UNL     1       4.439  14.816  20.650  0.00  0.00    +0.000 A 
ATOM     25  C   UNL     1       5.800  15.044  20.853  0.00  0.00    +0.000 A 
ATOM     26  C   UNL     1       6.606  15.405  19.777  0.00  0.00    +0.000 A 
ATOM     27  C   UNL     1       6.047  15.575  18.507  0.00  0.00    +0.000 A 
ATOM     28  C   UNL     1       4.677  15.382  18.311  0.00  0.00    +0.000 A 
ATOM     29  F   UNL     1       4.187  15.487  17.068  0.00  0.00    +0.000 F 
ENDBRANCH  19  23
ENDBRANCH   1  22
TORSDOF 2
ENDMDL
MODEL 2
REMARK VINA RESULT:      -6.9      4.520      6.791
REMARK  Name = 
REMARK  4 active torsions:
REMARK  status: ('A' for Active; 'I' for Inactive)
REMARK    1  A    between atoms: C_1  and  C_2
REMARK    2  A    between atoms: N_4  and  C_5
REMARK    3  A    between atoms: C_12  and  C_13
REMARK    4  A    between atoms: C_14  and  C_15
REMARK                            x       y       z     vdW  Elec       q    Type
REMARK                         _______ _______ _______ _____ _____    ______ ____
ROOT
ATOM      1  C   UNL     1      -3.929  14.998  21.900  0.00  0.00    +0.000 C 
ATOM      2  C   UNL     1      -4.767  15.741  22.977  0.00  0.00    +0.000 C 
ATOM      3  O   UNL     1      -5.595  16.776  22.390  0.00  0.00    +0.000 OA
ATOM      4  C   UNL     1      -6.465  16.246  21.382  0.00  0.00    +0.000 C 
ATOM      5  C   UNL     1      -5.656  15.556  20.269  0.00  0.00    +0.000 C 
ATOM      6  N   UNL     1      -4.844  14.443  20.862  0.00  0.00    +0.000 N 
ATOM      7  C   UNL     1      -5.566  13.278  21.075  0.00  0.00    +0.000 A 
ATOM      8  N   UNL     1      -6.210  12.779  20.013  0.00  0.00    +0.000 NA
ATOM      9  C   UNL     1      -7.272  11.903  20.256  0.00  0.00    +0.000 A 
ATOM     10  C   UNL     1      -7.900  11.873  21.407  0.00  0.00    +0.000 A 
ATOM     11  N   UNL     1      -7.111  12.123  22.518  0.00  0.00    +0.000 N 
ATOM     12  N   UNL     1      -7.302  11.940  23.833  0.00  0.00    +0.000 NA
ATOM     13  N   UNL     1      -6.175  12.260  24.423  0.00  0.00    +0.000 NA
ATOM     14  N   UNL     1      -5.269  12.753  23.518  0.00  0.00    +0.000 NA
ATOM     15  C   UNL     1      -5.872  12.689  22.354  0.00  0.00    +0.000 A 
ENDROOT
BRANCH   1  22
ATOM     16  C   UNL     1      -2.002  14.933  24.766  0.00  0.00    +0.000 C 
ATOM     17  C   UNL     1      -1.975  14.116  23.527  0.00  0.00    +0.000 A 
ATOM     18  N   UNL     1      -0.964  13.247  23.431  0.00  0.00    +0.000 NA
ATOM     19  N   UNL     1      -1.230  12.486  22.355  0.00  0.00    +0.000 N 
ATOM     20  C   UNL     1      -2.224  13.056  21.586  0.00  0.00    +0.000 A 
ATOM     21  C   UNL     1      -2.482  12.691  20.165  0.00  0.00    +0.000 C 
ATOM     22  C   UNL     1      -2.793  14.088  22.356  0.00  0.00    +0.000 A 
BRANCH  19  23
ATOM     23  C   UNL     1      -0.465  11.315  22.184  0.00  0.00    +0.000 A 
ATOM     24  C   UNL     1      -0.803  10.189  22.957  0.00  0.00    +0.000 A 
ATOM     25  C   UNL     1      -0.185   8.961  22.718  0.00  0.00    +0.000 A 
ATOM     26  C   UNL     1       0.739   8.844  21.682  0.00  0.00    +0.000 A 
ATOM     27  C   UNL     1       1.072   9.961  20.911  0.00  0.00    +0.000 A 
ATOM     28  C   UNL     1       0.481  11.199  21.174  0.00  0.00    +0.000 A 
ATOM     29  F   UNL     1       0.773  12.232  20.371  0.00  0.00    +0.000 F 
ENDBRANCH  19  23
ENDBRANCH   1  22
TORSDOF 2
ENDMDL
MODEL 3
REMARK VINA RESULT:      -6.9      0.975      1.295
REMARK  Name = 
REMARK  4 active torsions:
REMARK  status: ('A' for Active; 'I' for Inactive)
REMARK    1  A    between atoms: C_1  and  C_2
REMARK    2  A    between atoms: N_4  and  C_5
REMARK    3  A    between atoms: C_12  and  C_13
REMARK    4  A    between atoms: C_14  and  C_15
REMARK                            x       y       z     vdW  Elec       q    Type
REMARK                         _______ _______ _______ _____ _____    ______ ____
ROOT
ATOM      1  C   UNL     1      -0.445  12.460  18.662  0.00  0.00    +0.000 C 
ATOM      2  C   UNL     1      -1.889  12.477  19.234  0.00  0.00    +0.000 C 
ATOM      3  O   UNL     1      -2.756  11.557  18.525  0.00  0.00    +0.000 OA
ATOM      4  C   UNL     1      -2.241  10.219  18.555  0.00  0.00    +0.000 C 
ATOM      5  C   UNL     1      -0.832  10.163  17.937  0.00  0.00    +0.000 C 
ATOM      6  N   UNL     1       0.085  11.068  18.706  0.00  0.00    +0.000 N 
ATOM      7  C   UNL     1       0.565  10.507  19.880  0.00  0.00    +0.000 A 
ATOM      8  N   UNL     1       1.180   9.324  19.763  0.00  0.00    +0.000 NA
ATOM      9  C   UNL     1       1.279   8.532  20.911  0.00  0.00    +0.000 A 
ATOM     10  C   UNL     1       0.480   8.693  21.938  0.00  0.00    +0.000 A 
ATOM     11  N   UNL     1       0.095  10.001  22.189  0.00  0.00    +0.000 N 
ATOM     12  N   UNL     1      -0.477  10.598  23.245  0.00  0.00    +0.000 NA
ATOM     13  N   UNL     1      -0.520  11.881  22.971  0.00  0.00    +0.000 NA
ATOM     14  N   UNL     1      -0.075  12.127  21.697  0.00  0.00    +0.000 NA
ATOM     15  C   UNL     1       0.272  10.955  21.219  0.00  0.00    +0.000 A 
ENDROOT
BRANCH   1  22
ATOM     16  C   UNL     1      -0.920  15.507  20.221  0.00  0.00    +0.000 C 
ATOM     17  C   UNL     1       0.292  14.841  19.678  0.00  0.00    +0.000 A 
ATOM     18  N   UNL     1       1.408  15.576  19.693  0.00  0.00    +0.000 NA
ATOM     19  N   UNL     1       2.406  14.741  19.353  0.00  0.00    +0.000 N 
ATOM     20  C   UNL     1       1.904  13.572  18.818  0.00  0.00    +0.000 A 
ATOM     21  C   UNL     1       2.712  12.623  18.001  0.00  0.00    +0.000 C 
ATOM     22  C   UNL     1       0.521  13.565  19.081  0.00  0.00    +0.000 A 
BRANCH  19  23
ATOM     23  C   UNL     1       3.725  15.191  19.556  0.00  0.00    +0.000 A 
ATOM     24  C   UNL     1       4.211  16.211  18.717  0.00  0.00    +0.000 A 
ATOM     25  C   UNL     1       5.448  16.802  18.972  0.00  0.00    +0.000 A 
ATOM     26  C   UNL     1       6.184  16.407  20.087  0.00  0.00    +0.000 A 
ATOM     27  C   UNL     1       5.701  15.397  20.924  0.00  0.00    +0.000 A 
ATOM     28  C   UNL     1       4.479  14.779  20.647  0.00  0.00    +0.000 A 
ATOM     29  F   UNL     1       4.016  13.863  21.508  0.00  0.00    +0.000 F 
ENDBRANCH  19  23
ENDBRANCH   1  22
TORSDOF 2
ENDMDL
MODEL 4
REMARK VINA RESULT:      -6.7      4.434      6.615
REMARK  Name = 
REMARK  4 active torsions:
REMARK  status: ('A' for Active; 'I' for Inactive)
REMARK    1  A    between atoms: C_1  and  C_2
REMARK    2  A    between atoms: N_4  and  C_5
REMARK    3  A    between atoms: C_12  and  C_13
REMARK    4  A    between atoms: C_14  and  C_15
REMARK                            x       y       z     vdW  Elec       q    Type
REMARK                         _______ _______ _______ _____ _____    ______ ____
ROOT
ATOM      1  C   UNL     1      -3.796  14.245  20.828  0.00  0.00    +0.000 C 
ATOM      2  C   UNL     1      -4.286  15.270  21.889  0.00  0.00    +0.000 C 
ATOM      3  O   UNL     1      -5.182  16.251  21.310  0.00  0.00    +0.000 OA
ATOM      4  C   UNL     1      -6.311  15.628  20.683  0.00  0.00    +0.000 C 
ATOM      5  C   UNL     1      -5.855  14.652  19.584  0.00  0.00    +0.000 C 
ATOM      6  N   UNL     1      -4.976  13.597  20.190  0.00  0.00    +0.000 N 
ATOM      7  C   UNL     1      -5.678  12.580  20.818  0.00  0.00    +0.000 A 
ATOM      8  N   UNL     1      -6.601  11.952  20.079  0.00  0.00    +0.000 NA
ATOM      9  C   UNL     1      -7.607  11.258  20.756  0.00  0.00    +0.000 A 
ATOM     10  C   UNL     1      -7.917  11.522  22.002  0.00  0.00    +0.000 A 
ATOM     11  N   UNL     1      -6.855  11.900  22.808  0.00  0.00    +0.000 N 
ATOM     12  N   UNL     1      -6.708  12.001  24.138  0.00  0.00    +0.000 NA
ATOM     13  N   UNL     1      -5.450  12.309  24.353  0.00  0.00    +0.000 NA
ATOM     14  N   UNL     1      -4.786  12.516  23.170  0.00  0.00    +0.000 NA
ATOM     15  C   UNL     1      -5.673  12.289  22.230  0.00  0.00    +0.000 A 
ENDROOT
BRANCH   1  22
ATOM     16  C   UNL     1      -1.583  14.204  23.481  0.00  0.00    +0.000 C 
ATOM     17  C   UNL     1      -1.694  13.365  22.260  0.00  0.00    +0.000 A 
ATOM     18  N   UNL     1      -0.709  12.482  22.077  0.00  0.00    +0.000 NA
ATOM     19  N   UNL     1      -1.094  11.705  21.048  0.00  0.00    +0.000 N 
ATOM     20  C   UNL     1      -2.156  12.276  20.376  0.00  0.00    +0.000 A 
ATOM     21  C   UNL     1      -2.564  11.890  18.996  0.00  0.00    +0.000 C 
ATOM     22  C   UNL     1      -2.629  13.329  21.182  0.00  0.00    +0.000 A 
BRANCH  19  23
ATOM     23  C   UNL     1      -0.365  10.521  20.821  0.00  0.00    +0.000 A 
ATOM     24  C   UNL     1       0.383  10.425  19.634  0.00  0.00    +0.000 A 
ATOM     25  C   UNL     1       1.245   9.347  19.431  0.00  0.00    +0.000 A 
ATOM     26  C   UNL     1       1.394   8.386  20.428  0.00  0.00    +0.000 A 
ATOM     27  C   UNL     1       0.654   8.482  21.610  0.00  0.00    +0.000 A 
ATOM     28  C   UNL     1      -0.237   9.542  21.798  0.00  0.00    +0.000 A 
ATOM     29  F   UNL     1      -0.878   9.639  22.971  0.00  0.00    +0.000 F 
ENDBRANCH  19  23
ENDBRANCH   1  22
TORSDOF 2
ENDMDL
MODEL 5
REMARK VINA RESULT:      -6.6      5.724      8.610
REMARK  Name = 
REMARK  4 active torsions:
REMARK  status: ('A' for Active; 'I' for Inactive)
REMARK    1  A    between atoms: C_1  and  C_2
REMARK    2  A    between atoms: N_4  and  C_5
REMARK    3  A    between atoms: C_12  and  C_13
REMARK    4  A    between atoms: C_14  and  C_15
REMARK                            x       y       z     vdW  Elec       q    Type
REMARK                         _______ _______ _______ _____ _____    ______ ____
ROOT
ATOM      1  C   UNL     1       3.854   5.344  17.092  0.00  0.00    +0.000 C 
ATOM      2  C   UNL     1       4.494   3.930  17.154  0.00  0.00    +0.000 C 
ATOM      3  O   UNL     1       5.033   3.530  15.869  0.00  0.00    +0.000 OA
ATOM      4  C   UNL     1       5.997   4.475  15.385  0.00  0.00    +0.000 C 
ATOM      5  C   UNL     1       5.370   5.875  15.255  0.00  0.00    +0.000 C 
ATOM      6  N   UNL     1       4.865   6.320  16.596  0.00  0.00    +0.000 N 
ATOM      7  C   UNL     1       5.856   6.827  17.424  0.00  0.00    +0.000 A 
ATOM      8  N   UNL     1       6.591   7.828  16.924  0.00  0.00    +0.000 NA
ATOM      9  C   UNL     1       7.839   8.065  17.507  0.00  0.00    +0.000 A 
ATOM     10  C   UNL     1       8.468   7.148  18.201  0.00  0.00    +0.000 A 
ATOM     11  N   UNL     1       7.655   6.302  18.938  0.00  0.00    +0.000 N 
ATOM     12  N   UNL     1       7.901   5.438  19.935  0.00  0.00    +0.000 NA
ATOM     13  N   UNL     1       6.736   4.979  20.327  0.00  0.00    +0.000 NA
ATOM     14  N   UNL     1       5.726   5.453  19.529  0.00  0.00    +0.000 NA
ATOM     15  C   UNL     1       6.313   6.243  18.660  0.00  0.00    +0.000 A 
ENDROOT
BRANCH   1  22
ATOM     16  C   UNL     1       2.331   3.639  19.682  0.00  0.00    +0.000 C 
ATOM     17  C   UNL     1       2.320   5.071  19.286  0.00  0.00    +0.000 A 
ATOM     18  N   UNL     1       1.499   5.856  19.988  0.00  0.00    +0.000 NA
ATOM     19  N   UNL     1       1.781   7.117  19.614  0.00  0.00    +0.000 N 
ATOM     20  C   UNL     1       2.544   7.126  18.464  0.00  0.00    +0.000 A 
ATOM     21  C   UNL     1       2.699   8.319  17.585  0.00  0.00    +0.000 C 
ATOM     22  C   UNL     1       2.983   5.805  18.257  0.00  0.00    +0.000 A 
BRANCH  19  23
ATOM     23  C   UNL     1       1.250   8.160  20.398  0.00  0.00    +0.000 A 
ATOM     24  C   UNL     1       1.628   8.226  21.752  0.00  0.00    +0.000 A 
ATOM     25  C   UNL     1       1.260   9.323  22.532  0.00  0.00    +0.000 A 
ATOM     26  C   UNL     1       0.551  10.373  21.954  0.00  0.00    +0.000 A 
ATOM     27  C   UNL     1       0.178  10.310  20.609  0.00  0.00    +0.000 A 
ATOM     28  C   UNL     1       0.514   9.195  19.837  0.00  0.00    +0.000 A 
ATOM     29  F   UNL     1       0.199   9.200  18.534  0.00  0.00    +0.000 F 
ENDBRANCH  19  23
ENDBRANCH   1  22
TORSDOF 2
ENDMDL
MODEL 6
REMARK VINA RESULT:      -6.6      5.785      8.649
REMARK  Name = 
REMARK  4 active torsions:
REMARK  status: ('A' for Active; 'I' for Inactive)
REMARK    1  A    between atoms: C_1  and  C_2
REMARK    2  A    between atoms: N_4  and  C_5
REMARK    3  A    between atoms: C_12  and  C_13
REMARK    4  A    between atoms: C_14  and  C_15
REMARK                            x       y       z     vdW  Elec       q    Type
REMARK                         _______ _______ _______ _____ _____    ______ ____
ROOT
ATOM      1  C   UNL     1       2.798   4.342  18.378  0.00  0.00    +0.000 C 
ATOM      2  C   UNL     1       3.287   3.403  19.516  0.00  0.00    +0.000 C 
ATOM      3  O   UNL     1       3.220   2.009  19.124  0.00  0.00    +0.000 OA
ATOM      4  C   UNL     1       3.978   1.760  17.933  0.00  0.00    +0.000 C 
ATOM      5  C   UNL     1       3.472   2.634  16.772  0.00  0.00    +0.000 C 
ATOM      6  N   UNL     1       3.597   4.081  17.148  0.00  0.00    +0.000 N 
ATOM      7  C   UNL     1       4.877   4.590  16.989  0.00  0.00    +0.000 A 
ATOM      8  N   UNL     1       5.425   4.445  15.776  0.00  0.00    +0.000 NA
ATOM      9  C   UNL     1       6.818   4.527  15.684  0.00  0.00    +0.000 A 
ATOM     10  C   UNL     1       7.596   4.332  16.720  0.00  0.00    +0.000 A 
ATOM     11  N   UNL     1       7.087   4.767  17.933  0.00  0.00    +0.000 N 
ATOM     12  N   UNL     1       7.644   4.979  19.135  0.00  0.00    +0.000 NA
ATOM     13  N   UNL     1       6.707   5.490  19.898  0.00  0.00    +0.000 NA
ATOM     14  N   UNL     1       5.503   5.523  19.241  0.00  0.00    +0.000 NA
ATOM     15  C   UNL     1       5.748   5.047  18.043  0.00  0.00    +0.000 A 
ENDROOT
BRANCH   1  22
ATOM     16  C   UNL     1       3.644   7.291  16.790  0.00  0.00    +0.000 C 
ATOM     17  C   UNL     1       2.927   7.011  18.060  0.00  0.00    +0.000 A 
ATOM     18  N   UNL     1       2.623   8.082  18.799  0.00  0.00    +0.000 NA
ATOM     19  N   UNL     1       1.821   7.640  19.783  0.00  0.00    +0.000 N 
ATOM     20  C   UNL     1       1.863   6.263  19.866  0.00  0.00    +0.000 A 
ATOM     21  C   UNL     1       1.414   5.492  21.059  0.00  0.00    +0.000 C 
ATOM     22  C   UNL     1       2.519   5.805  18.707  0.00  0.00    +0.000 A 
BRANCH  19  23
ATOM     23  C   UNL     1       1.135   8.606  20.545  0.00  0.00    +0.000 A 
ATOM     24  C   UNL     1       1.376   8.646  21.931  0.00  0.00    +0.000 A 
ATOM     25  C   UNL     1       0.848   9.677  22.707  0.00  0.00    +0.000 A 
ATOM     26  C   UNL     1       0.116  10.693  22.098  0.00  0.00    +0.000 A 
ATOM     27  C   UNL     1      -0.121  10.658  20.721  0.00  0.00    +0.000 A 
ATOM     28  C   UNL     1       0.376   9.605  19.948  0.00  0.00    +0.000 A 
ATOM     29  F   UNL     1       0.188   9.639  18.622  0.00  0.00    +0.000 F 
ENDBRANCH  19  23
ENDBRANCH   1  22
TORSDOF 2
ENDMDL
MODEL 7
REMARK VINA RESULT:      -6.5      3.505      5.726
REMARK  Name = 
REMARK  4 active torsions:
REMARK  status: ('A' for Active; 'I' for Inactive)
REMARK    1  A    between atoms: C_1  and  C_2
REMARK    2  A    between atoms: N_4  and  C_5
REMARK    3  A    between atoms: C_12  and  C_13
REMARK    4  A    between atoms: C_14  and  C_15
REMARK                            x       y       z     vdW  Elec       q    Type
REMARK                         _______ _______ _______ _____ _____    ______ ____
ROOT
ATOM      1  C   UNL     1       4.711  16.354  18.876  0.00  0.00    +0.000 C 
ATOM      2  C   UNL     1       3.679  17.289  19.565  0.00  0.00    +0.000 C 
ATOM      3  O   UNL     1       2.746  17.852  18.609  0.00  0.00    +0.000 OA
ATOM      4  C   UNL     1       2.058  16.829  17.878  0.00  0.00    +0.000 C 
ATOM      5  C   UNL     1       3.057  15.924  17.134  0.00  0.00    +0.000 C 
ATOM      6  N   UNL     1       3.987  15.289  18.126  0.00  0.00    +0.000 N 
ATOM      7  C   UNL     1       3.447  14.185  18.768  0.00  0.00    +0.000 A 
ATOM      8  N   UNL     1       2.982  13.210  17.978  0.00  0.00    +0.000 NA
ATOM      9  C   UNL     1       2.060  12.317  18.531  0.00  0.00    +0.000 A 
ATOM     10  C   UNL     1       1.351  12.617  19.593  0.00  0.00    +0.000 A 
ATOM     11  N   UNL     1       1.995  13.411  20.528  0.00  0.00    +0.000 N 
ATOM     12  N   UNL     1       1.729  13.714  21.808  0.00  0.00    +0.000 NA
ATOM     13  N   UNL     1       2.738  14.433  22.240  0.00  0.00    +0.000 NA
ATOM     14  N   UNL     1       3.623  14.697  21.226  0.00  0.00    +0.000 NA
ATOM     15  C   UNL     1       3.136  14.085  20.172  0.00  0.00    +0.000 A 
ENDROOT
BRANCH   1  22
ATOM     16  C   UNL     1       5.945  17.262  21.972  0.00  0.00    +0.000 C 
ATOM     17  C   UNL     1       6.456  16.342  20.925  0.00  0.00    +0.000 A 
ATOM     18  N   UNL     1       7.667  15.826  21.152  0.00  0.00    +0.000 NA
ATOM     19  N   UNL     1       7.854  14.888  20.207  0.00  0.00    +0.000 N 
ATOM     20  C   UNL     1       6.921  15.016  19.199  0.00  0.00    +0.000 A 
ATOM     21  C   UNL     1       7.075  14.409  17.847  0.00  0.00    +0.000 C 
ATOM     22  C   UNL     1       5.938  15.911  19.666  0.00  0.00    +0.000 A 
BRANCH  19  23
ATOM     23  C   UNL     1       8.936  14.001  20.379  0.00  0.00    +0.000 A 
ATOM     24  C   UNL     1       8.707  12.813  21.097  0.00  0.00    +0.000 A 
ATOM     25  C   UNL     1       9.694  11.830  21.163  0.00  0.00    +0.000 A 
ATOM     26  C   UNL     1      10.894  12.011  20.479  0.00  0.00    +0.000 A 
ATOM     27  C   UNL     1      11.121  13.188  19.762  0.00  0.00    +0.000 A 
ATOM     28  C   UNL     1      10.147  14.190  19.727  0.00  0.00    +0.000 A 
ATOM     29  F   UNL     1      10.372  15.275  18.974  0.00  0.00    +0.000 F 
ENDBRANCH  19  23
ENDBRANCH   1  22
TORSDOF 2
ENDMDL
MODEL 8
REMARK VINA RESULT:      -6.5      4.187      6.410
REMARK  Name = 
REMARK  4 active torsions:
REMARK  status: ('A' for Active; 'I' for Inactive)
REMARK    1  A    between atoms: C_1  and  C_2
REMARK    2  A    between atoms: N_4  and  C_5
REMARK    3  A    between atoms: C_12  and  C_13
REMARK    4  A    between atoms: C_14  and  C_15
REMARK                            x       y       z     vdW  Elec       q    Type
REMARK                         _______ _______ _______ _____ _____    ______ ____
ROOT
ATOM      1  C   UNL     1      -2.403  14.279  20.698  0.00  0.00    +0.000 C 
ATOM      2  C   UNL     1      -1.736  14.731  22.027  0.00  0.00    +0.000 C 
ATOM      3  O   UNL     1      -1.933  16.147  22.269  0.00  0.00    +0.000 OA
ATOM      4  C   UNL     1      -3.325  16.489  22.286  0.00  0.00    +0.000 C 
ATOM      5  C   UNL     1      -3.998  16.107  20.956  0.00  0.00    +0.000 C 
ATOM      6  N   UNL     1      -3.851  14.631  20.730  0.00  0.00    +0.000 N 
ATOM      7  C   UNL     1      -4.771  13.865  21.430  0.00  0.00    +0.000 A 
ATOM      8  N   UNL     1      -6.061  14.170  21.239  0.00  0.00    +0.000 NA
ATOM      9  C   UNL     1      -6.972  13.755  22.214  0.00  0.00    +0.000 A 
ATOM     10  C   UNL     1      -6.600  13.467  23.437  0.00  0.00    +0.000 A 
ATOM     11  N   UNL     1      -5.349  12.882  23.552  0.00  0.00    +0.000 N 
ATOM     12  N   UNL     1      -4.734  12.230  24.550  0.00  0.00    +0.000 NA
ATOM     13  N   UNL     1      -3.591  11.801  24.068  0.00  0.00    +0.000 NA
ATOM     14  N   UNL     1      -3.397  12.253  22.788  0.00  0.00    +0.000 NA
ATOM     15  C   UNL     1      -4.475  12.942  22.496  0.00  0.00    +0.000 A 
ENDROOT
BRANCH   1  22
ATOM     16  C   UNL     1      -4.077  12.135  18.567  0.00  0.00    +0.000 C 
ATOM     17  C   UNL     1      -2.788  12.014  19.296  0.00  0.00    +0.000 A 
ATOM     18  N   UNL     1      -2.186  10.825  19.206  0.00  0.00    +0.000 NA
ATOM     19  N   UNL     1      -0.968  10.984  19.755  0.00  0.00    +0.000 N 
ATOM     20  C   UNL     1      -0.905  12.162  20.471  0.00  0.00    +0.000 A 
ATOM     21  C   UNL     1       0.136  12.451  21.497  0.00  0.00    +0.000 C 
ATOM     22  C   UNL     1      -2.053  12.905  20.135  0.00  0.00    +0.000 A 
BRANCH  19  23
ATOM     23  C   UNL     1      -0.024   9.959  19.546  0.00  0.00    +0.000 A 
ATOM     24  C   UNL     1       0.634   9.912  18.303  0.00  0.00    +0.000 A 
ATOM     25  C   UNL     1       1.686   9.019  18.099  0.00  0.00    +0.000 A 
ATOM     26  C   UNL     1       2.112   8.203  19.144  0.00  0.00    +0.000 A 
ATOM     27  C   UNL     1       1.461   8.252  20.381  0.00  0.00    +0.000 A 
ATOM     28  C   UNL     1       0.383   9.119  20.574  0.00  0.00    +0.000 A 
ATOM     29  F   UNL     1      -0.172   9.188  21.792  0.00  0.00    +0.000 F 
ENDBRANCH  19  23
ENDBRANCH   1  22
TORSDOF 2
ENDMDL
MODEL 9
REMARK VINA RESULT:      -6.4      3.609      5.911
REMARK  Name = 
REMARK  4 active torsions:
REMARK  status: ('A' for Active; 'I' for Inactive)
REMARK    1  A    between atoms: C_1  and  C_2
REMARK    2  A    between atoms: N_4  and  C_5
REMARK    3  A    between atoms: C_12  and  C_13
REMARK    4  A    between atoms: C_14  and  C_15
REMARK                            x       y       z     vdW  Elec       q    Type
REMARK                         _______ _______ _______ _____ _____    ______ ____
ROOT
ATOM      1  C   UNL     1       4.874  16.260  18.741  0.00  0.00    +0.000 C 
ATOM      2  C   UNL     1       3.942  17.242  19.505  0.00  0.00    +0.000 C 
ATOM      3  O   UNL     1       2.978  17.862  18.618  0.00  0.00    +0.000 OA
ATOM      4  C   UNL     1       2.188  16.882  17.931  0.00  0.00    +0.000 C 
ATOM      5  C   UNL     1       3.085  15.933  17.116  0.00  0.00    +0.000 C 
ATOM      6  N   UNL     1       4.045  15.241  18.039  0.00  0.00    +0.000 N 
ATOM      7  C   UNL     1       3.492  14.162  18.711  0.00  0.00    +0.000 A 
ATOM      8  N   UNL     1       2.922  13.219  17.950  0.00  0.00    +0.000 NA
ATOM      9  C   UNL     1       1.994  12.371  18.560  0.00  0.00    +0.000 A 
ATOM     10  C   UNL     1       1.377  12.699  19.670  0.00  0.00    +0.000 A 
ATOM     11  N   UNL     1       2.124  13.450  20.562  0.00  0.00    +0.000 N 
ATOM     12  N   UNL     1       1.962  13.756  21.859  0.00  0.00    +0.000 NA
ATOM     13  N   UNL     1       3.035  14.418  22.224  0.00  0.00    +0.000 NA
ATOM     14  N   UNL     1       3.862  14.643  21.153  0.00  0.00    +0.000 NA
ATOM     15  C   UNL     1       3.272  14.066  20.132  0.00  0.00    +0.000 A 
ENDROOT
BRANCH   1  22
ATOM     16  C   UNL     1       6.376  17.092  21.740  0.00  0.00    +0.000 C 
ATOM     17  C   UNL     1       6.757  16.145  20.661  0.00  0.00    +0.000 A 
ATOM     18  N   UNL     1       7.949  15.560  20.803  0.00  0.00    +0.000 NA
ATOM     19  N   UNL     1       8.014  14.613  19.850  0.00  0.00    +0.000 N 
ATOM     20  C   UNL     1       7.020  14.796  18.911  0.00  0.00    +0.000 A 
ATOM     21  C   UNL     1       7.042  14.183  17.553  0.00  0.00    +0.000 C 
ATOM     22  C   UNL     1       6.127  15.745  19.444  0.00  0.00    +0.000 A 
BRANCH  19  23
ATOM     23  C   UNL     1       9.052  13.666  19.947  0.00  0.00    +0.000 A 
ATOM     24  C   UNL     1      10.212  13.877  19.179  0.00  0.00    +0.000 A 
ATOM     25  C   UNL     1      11.330  13.060  19.353  0.00  0.00    +0.000 A 
ATOM     26  C   UNL     1      11.308  12.059  20.321  0.00  0.00    +0.000 A 
ATOM     27  C   UNL     1      10.158  11.850  21.088  0.00  0.00    +0.000 A 
ATOM     28  C   UNL     1       9.025  12.644  20.888  0.00  0.00    +0.000 A 
ATOM     29  F   UNL     1       7.965  12.460  21.687  0.00  0.00    +0.000 F 
ENDBRANCH  19  23
ENDBRANCH   1  22
TORSDOF 2
ENDMDL
