MODEL 1
REMARK VINA RESULT:      -7.1      0.000      0.000
REMARK  Name = 
REMARK  6 active torsions:
REMARK  status: ('A' for Active; 'I' for Inactive)
REMARK    1  A    between atoms: C_1  and  C_2
REMARK    2  A    between atoms: C_2  and  C_3
REMARK    3  A    between atoms: C_2  and  C_4
REMARK    4  A    between atoms: C_9  and  C_10
REMARK    5  A    between atoms: C_14  and  C_15
REMARK    6  A    between atoms: C_22  and  C_23
REMARK                            x       y       z     vdW  Elec       q    Type
REMARK                         _______ _______ _______ _____ _____    ______ ____
ROOT
ATOM      1  C   UNL     1      -3.663  11.456  17.736  0.00  0.00    +0.000 A 
ATOM      2  N   UNL     1      -4.980  11.228  17.606  0.00  0.00    +0.000 NA
ATOM      3  O   UNL     1      -5.561  11.654  18.778  0.00  0.00    +0.000 OA
ATOM      4  C   UNL     1      -4.607  12.125  19.622  0.00  0.00    +0.000 A 
ATOM      5  N   UNL     1      -4.892  12.568  20.854  0.00  0.00    +0.000 NA
ATOM      6  C   UNL     1      -3.828  12.922  21.599  0.00  0.00    +0.000 A 
ATOM      7  C   UNL     1      -2.525  12.859  21.107  0.00  0.00    +0.000 A 
ATOM      8  C   UNL     1      -2.277  12.555  19.757  0.00  0.00    +0.000 A 
ATOM      9  C   UNL     1      -3.366  12.066  19.002  0.00  0.00    +0.000 A 
ENDROOT
BRANCH   8  10
ATOM     10  C   UNL     1      -0.924  12.678  19.162  0.00  0.00    +0.000 C 
ATOM     11  O   UNL     1      -0.680  13.740  18.592  0.00  0.00    +0.000 OA
ATOM     12  N   UNL     1       0.050  11.678  19.319  0.00  0.00    +0.000 N 
ATOM     13  C   UNL     1       1.445  12.021  19.005  0.00  0.00    +0.000 C 
ATOM     14  C   UNL     1       2.036  11.158  17.892  0.00  0.00    +0.000 C 
ATOM     15  C   UNL     1       1.781   9.668  18.108  0.00  0.00    +0.000 C 
ATOM     16  C   UNL     1       0.310   9.408  18.419  0.00  0.00    +0.000 C 
ATOM     17  C   UNL     1      -0.177  10.245  19.619  0.00  0.00    +0.000 C 
BRANCH  17  18
ATOM     18  C   UNL     1       0.388   9.815  20.951  0.00  0.00    +0.000 A 
ATOM     19  C   UNL     1      -0.058  10.140  22.257  0.00  0.00    +0.000 A 
ATOM     20  C   UNL     1       0.747   9.412  23.099  0.00  0.00    +0.000 A 
ATOM     21  N   UNL     1       1.591   8.706  22.304  0.00  0.00    +0.000 N 
ATOM     22  N   UNL     1       1.389   8.917  20.994  0.00  0.00    +0.000 NA
ATOM     23  H   UNL     1       2.316   8.047  22.575  0.00  0.00    +0.000 HD
ENDBRANCH  17  18
ENDBRANCH   8  10
BRANCH   1  25
ATOM     24  C   UNL     1      -2.354   9.493  16.919  0.00  0.00    +0.000 C 
ATOM     25  C   UNL     1      -2.740  10.954  16.656  0.00  0.00    +0.000 C 
ATOM     26  C   UNL     1      -3.321  11.078  15.242  0.00  0.00    +0.000 C 
ENDBRANCH   1  25
BRANCH   6  27
ATOM     27  C   UNL     1      -4.116  13.410  23.004  0.00  0.00    +0.000 C 
ATOM     28  C   UNL     1      -3.890  12.431  24.139  0.00  0.00    +0.000 C 
ATOM     29  C   UNL     1      -5.275  12.904  23.829  0.00  0.00    +0.000 C 
ENDBRANCH   6  27
TORSDOF 4
ENDMDL
MODEL 2
REMARK VINA RESULT:      -7.0      6.434      9.261
REMARK  Name = 
REMARK  6 active torsions:
REMARK  status: ('A' for Active; 'I' for Inactive)
REMARK    1  A    between atoms: C_1  and  C_2
REMARK    2  A    between atoms: C_2  and  C_3
REMARK    3  A    between atoms: C_2  and  C_4
REMARK    4  A    between atoms: C_9  and  C_10
REMARK    5  A    between atoms: C_14  and  C_15
REMARK    6  A    between atoms: C_22  and  C_23
REMARK                            x       y       z     vdW  Elec       q    Type
REMARK                         _______ _______ _______ _____ _____    ______ ____
ROOT
ATOM      1  C   UNL     1       3.338   3.177  20.156  0.00  0.00    +0.000 A 
ATOM      2  N   UNL     1       2.908   2.862  21.388  0.00  0.00    +0.000 NA
ATOM      3  O   UNL     1       2.248   3.972  21.861  0.00  0.00    +0.000 OA
ATOM      4  C   UNL     1       2.286   4.962  20.931  0.00  0.00    +0.000 A 
ATOM      5  N   UNL     1       1.751   6.172  21.146  0.00  0.00    +0.000 NA
ATOM      6  C   UNL     1       1.945   7.070  20.163  0.00  0.00    +0.000 A 
ATOM      7  C   UNL     1       2.628   6.749  18.990  0.00  0.00    +0.000 A 
ATOM      8  C   UNL     1       3.024   5.427  18.724  0.00  0.00    +0.000 A 
ATOM      9  C   UNL     1       2.936   4.507  19.792  0.00  0.00    +0.000 A 
ENDROOT
BRANCH   8  10
ATOM     10  C   UNL     1       3.568   5.022  17.405  0.00  0.00    +0.000 C 
ATOM     11  O   UNL     1       2.758   4.548  16.610  0.00  0.00    +0.000 OA
ATOM     12  N   UNL     1       4.908   5.251  17.053  0.00  0.00    +0.000 N 
ATOM     13  C   UNL     1       5.275   5.143  15.633  0.00  0.00    +0.000 C 
ATOM     14  C   UNL     1       6.332   4.071  15.369  0.00  0.00    +0.000 C 
ATOM     15  C   UNL     1       7.517   4.170  16.326  0.00  0.00    +0.000 C 
ATOM     16  C   UNL     1       7.041   4.270  17.773  0.00  0.00    +0.000 C 
ATOM     17  C   UNL     1       6.056   5.440  17.971  0.00  0.00    +0.000 C 
BRANCH  17  18
ATOM     18  C   UNL     1       6.683   6.809  17.871  0.00  0.00    +0.000 A 
ATOM     19  C   UNL     1       7.935   7.255  18.365  0.00  0.00    +0.000 A 
ATOM     20  C   UNL     1       8.053   8.549  17.918  0.00  0.00    +0.000 A 
ATOM     21  N   UNL     1       6.931   8.807  17.199  0.00  0.00    +0.000 N 
ATOM     22  N   UNL     1       6.086   7.767  17.138  0.00  0.00    +0.000 NA
ATOM     23  H   UNL     1       6.677   9.658  16.704  0.00  0.00    +0.000 HD
ENDBRANCH  17  18
ENDBRANCH   8  10
BRANCH   1  25
ATOM     24  C   UNL     1       4.906   1.254  20.439  0.00  0.00    +0.000 C 
ATOM     25  C   UNL     1       4.229   2.197  19.437  0.00  0.00    +0.000 C 
ATOM     26  C   UNL     1       3.499   1.366  18.374  0.00  0.00    +0.000 C 
ENDBRANCH   1  25
BRANCH   6  27
ATOM     27  C   UNL     1       1.369   8.453  20.385  0.00  0.00    +0.000 C 
ATOM     28  C   UNL     1       1.477   9.034  21.781  0.00  0.00    +0.000 C 
ATOM     29  C   UNL     1       0.132   8.706  21.214  0.00  0.00    +0.000 C 
ENDBRANCH   6  27
TORSDOF 4
ENDMDL
MODEL 3
REMARK VINA RESULT:      -6.8      0.970      1.009
REMARK  Name = 
REMARK  6 active torsions:
REMARK  status: ('A' for Active; 'I' for Inactive)
REMARK    1  A    between atoms: C_1  and  C_2
REMARK    2  A    between atoms: C_2  and  C_3
REMARK    3  A    between atoms: C_2  and  C_4
REMARK    4  A    between atoms: C_9  and  C_10
REMARK    5  A    between atoms: C_14  and  C_15
REMARK    6  A    between atoms: C_22  and  C_23
REMARK                            x       y       z     vdW  Elec       q    Type
REMARK                         _______ _______ _______ _____ _____    ______ ____
ROOT
ATOM      1  C   UNL     1      -3.971  11.524  18.158  0.00  0.00    +0.000 A 
ATOM      2  N   UNL     1      -5.261  11.220  17.940  0.00  0.00    +0.000 NA
ATOM      3  O   UNL     1      -5.942  11.601  19.073  0.00  0.00    +0.000 OA
ATOM      4  C   UNL     1      -5.076  12.119  19.980  0.00  0.00    +0.000 A 
ATOM      5  N   UNL     1      -5.466  12.535  21.193  0.00  0.00    +0.000 NA
ATOM      6  C   UNL     1      -4.477  12.944  22.008  0.00  0.00    +0.000 A 
ATOM      7  C   UNL     1      -3.142  12.962  21.603  0.00  0.00    +0.000 A 
ATOM      8  C   UNL     1      -2.789  12.684  20.271  0.00  0.00    +0.000 A 
ATOM      9  C   UNL     1      -3.795  12.139  19.443  0.00  0.00    +0.000 A 
ENDROOT
BRANCH   8  10
ATOM     10  C   UNL     1      -1.409  12.892  19.767  0.00  0.00    +0.000 C 
ATOM     11  O   UNL     1      -1.167  14.004  19.300  0.00  0.00    +0.000 OA
ATOM     12  N   UNL     1      -0.416  11.909  19.898  0.00  0.00    +0.000 N 
ATOM     13  C   UNL     1       0.984  12.313  19.695  0.00  0.00    +0.000 C 
ATOM     14  C   UNL     1       1.663  11.562  18.551  0.00  0.00    +0.000 C 
ATOM     15  C   UNL     1       1.442  10.053  18.630  0.00  0.00    +0.000 C 
ATOM     16  C   UNL     1      -0.036   9.729  18.833  0.00  0.00    +0.000 C 
ATOM     17  C   UNL     1      -0.614  10.451  20.067  0.00  0.00    +0.000 C 
BRANCH  17  18
ATOM     18  C   UNL     1      -0.110   9.927  21.390  0.00  0.00    +0.000 A 
ATOM     19  C   UNL     1       1.131   9.312  21.692  0.00  0.00    +0.000 A 
ATOM     20  C   UNL     1       1.111   9.120  23.052  0.00  0.00    +0.000 A 
ATOM     21  N   UNL     1      -0.076   9.614  23.489  0.00  0.00    +0.000 N 
ATOM     22  N   UNL     1      -0.834  10.125  22.507  0.00  0.00    +0.000 NA
ATOM     23  H   UNL     1      -0.433   9.658  24.440  0.00  0.00    +0.000 HD
ENDBRANCH  17  18
ENDBRANCH   8  10
BRANCH   1  25
ATOM     24  C   UNL     1      -2.765   9.565  17.187  0.00  0.00    +0.000 C 
ATOM     25  C   UNL     1      -2.951  11.087  17.139  0.00  0.00    +0.000 C 
ATOM     26  C   UNL     1      -3.292  11.510  15.704  0.00  0.00    +0.000 C 
ENDBRANCH   1  25
BRANCH   6  27
ATOM     27  C   UNL     1      -4.885  13.402  23.393  0.00  0.00    +0.000 C 
ATOM     28  C   UNL     1      -4.660  12.434  24.538  0.00  0.00    +0.000 C 
ATOM     29  C   UNL     1      -6.054  12.810  24.144  0.00  0.00    +0.000 C 
ENDBRANCH   6  27
TORSDOF 4
ENDMDL
MODEL 4
REMARK VINA RESULT:      -6.8      2.242      4.521
REMARK  Name = 
REMARK  6 active torsions:
REMARK  status: ('A' for Active; 'I' for Inactive)
REMARK    1  A    between atoms: C_1  and  C_2
REMARK    2  A    between atoms: C_2  and  C_3
REMARK    3  A    between atoms: C_2  and  C_4
REMARK    4  A    between atoms: C_9  and  C_10
REMARK    5  A    between atoms: C_14  and  C_15
REMARK    6  A    between atoms: C_22  and  C_23
REMARK                            x       y       z     vdW  Elec       q    Type
REMARK                         _______ _______ _______ _____ _____    ______ ____
ROOT
ATOM      1  C   UNL     1      -3.732  13.941  23.542  0.00  0.00    +0.000 A 
ATOM      2  N   UNL     1      -4.633  13.621  24.484  0.00  0.00    +0.000 NA
ATOM      3  O   UNL     1      -5.631  12.925  23.841  0.00  0.00    +0.000 OA
ATOM      4  C   UNL     1      -5.349  12.833  22.516  0.00  0.00    +0.000 A 
ATOM      5  N   UNL     1      -6.174  12.238  21.644  0.00  0.00    +0.000 NA
ATOM      6  C   UNL     1      -5.795  12.303  20.354  0.00  0.00    +0.000 A 
ATOM      7  C   UNL     1      -4.607  12.921  19.962  0.00  0.00    +0.000 A 
ATOM      8  C   UNL     1      -3.683  13.381  20.916  0.00  0.00    +0.000 A 
ATOM      9  C   UNL     1      -4.121  13.429  22.258  0.00  0.00    +0.000 A 
ENDROOT
BRANCH   8  10
ATOM     10  C   UNL     1      -2.331  13.856  20.532  0.00  0.00    +0.000 C 
ATOM     11  O   UNL     1      -2.198  15.073  20.421  0.00  0.00    +0.000 OA
ATOM     12  N   UNL     1      -1.247  12.973  20.395  0.00  0.00    +0.000 N 
ATOM     13  C   UNL     1       0.107  13.547  20.358  0.00  0.00    +0.000 C 
ATOM     14  C   UNL     1       0.852  13.233  19.062  0.00  0.00    +0.000 C 
ATOM     15  C   UNL     1       0.778  11.755  18.687  0.00  0.00    +0.000 C 
ATOM     16  C   UNL     1      -0.661  11.251  18.746  0.00  0.00    +0.000 C 
ATOM     17  C   UNL     1      -1.305  11.519  20.122  0.00  0.00    +0.000 C 
BRANCH  17  18
ATOM     18  C   UNL     1      -0.750  10.676  21.245  0.00  0.00    +0.000 A 
ATOM     19  C   UNL     1      -0.843  10.881  22.645  0.00  0.00    +0.000 A 
ATOM     20  C   UNL     1      -0.255   9.774  23.206  0.00  0.00    +0.000 A 
ATOM     21  N   UNL     1       0.135   8.984  22.173  0.00  0.00    +0.000 N 
ATOM     22  N   UNL     1      -0.166   9.496  20.970  0.00  0.00    +0.000 NA
ATOM     23  H   UNL     1       0.591   8.076  22.206  0.00  0.00    +0.000 HD
ENDBRANCH  17  18
ENDBRANCH   8  10
BRANCH   1  25
ATOM     24  C   UNL     1      -2.782  15.382  25.347  0.00  0.00    +0.000 C 
ATOM     25  C   UNL     1      -2.585  14.840  23.925  0.00  0.00    +0.000 C 
ATOM     26  C   UNL     1      -1.212  14.163  23.828  0.00  0.00    +0.000 C 
ENDBRANCH   1  25
BRANCH   6  27
ATOM     27  C   UNL     1      -6.717  11.655  19.342  0.00  0.00    +0.000 C 
ATOM     28  C   UNL     1      -6.775  10.140  19.327  0.00  0.00    +0.000 C 
ATOM     29  C   UNL     1      -6.213  10.875  18.151  0.00  0.00    +0.000 C 
ENDBRANCH   6  27
TORSDOF 4
ENDMDL
MODEL 5
REMARK VINA RESULT:      -6.6      2.982      7.600
REMARK  Name = 
REMARK  6 active torsions:
REMARK  status: ('A' for Active; 'I' for Inactive)
REMARK    1  A    between atoms: C_1  and  C_2
REMARK    2  A    between atoms: C_2  and  C_3
REMARK    3  A    between atoms: C_2  and  C_4
REMARK    4  A    between atoms: C_9  and  C_10
REMARK    5  A    between atoms: C_14  and  C_15
REMARK    6  A    between atoms: C_22  and  C_23
REMARK                            x       y       z     vdW  Elec       q    Type
REMARK                         _______ _______ _______ _____ _____    ______ ____
ROOT
ATOM      1  C   UNL     1      -1.348  14.736  23.923  0.00  0.00    +0.000 A 
ATOM      2  N   UNL     1      -0.202  15.421  23.779  0.00  0.00    +0.000 NA
ATOM      3  O   UNL     1       0.520  14.764  22.810  0.00  0.00    +0.000 OA
ATOM      4  C   UNL     1      -0.172  13.679  22.376  0.00  0.00    +0.000 A 
ATOM      5  N   UNL     1       0.317  12.834  21.458  0.00  0.00    +0.000 NA
ATOM      6  C   UNL     1      -0.452  11.761  21.195  0.00  0.00    +0.000 A 
ATOM      7  C   UNL     1      -1.686  11.564  21.815  0.00  0.00    +0.000 A 
ATOM      8  C   UNL     1      -2.245  12.553  22.641  0.00  0.00    +0.000 A 
ATOM      9  C   UNL     1      -1.401  13.621  23.019  0.00  0.00    +0.000 A 
ENDROOT
BRANCH   8  10
ATOM     10  C   UNL     1      -3.636  12.458  23.148  0.00  0.00    +0.000 C 
ATOM     11  O   UNL     1      -3.765  12.014  24.288  0.00  0.00    +0.000 OA
ATOM     12  N   UNL     1      -4.730  12.930  22.405  0.00  0.00    +0.000 N 
ATOM     13  C   UNL     1      -6.009  13.116  23.107  0.00  0.00    +0.000 C 
ATOM     14  C   UNL     1      -7.138  12.265  22.526  0.00  0.00    +0.000 C 
ATOM     15  C   UNL     1      -7.226  12.369  21.005  0.00  0.00    +0.000 C 
ATOM     16  C   UNL     1      -5.857  12.155  20.366  0.00  0.00    +0.000 C 
ATOM     17  C   UNL     1      -4.801  13.123  20.938  0.00  0.00    +0.000 C 
BRANCH  17  18
ATOM     18  C   UNL     1      -4.990  14.565  20.532  0.00  0.00    +0.000 A 
ATOM     19  C   UNL     1      -4.282  15.714  20.964  0.00  0.00    +0.000 A 
ATOM     20  C   UNL     1      -4.789  16.747  20.214  0.00  0.00    +0.000 A 
ATOM     21  N   UNL     1      -5.723  16.200  19.394  0.00  0.00    +0.000 N 
ATOM     22  N   UNL     1      -5.858  14.875  19.552  0.00  0.00    +0.000 NA
ATOM     23  H   UNL     1      -6.294  16.659  18.689  0.00  0.00    +0.000 HD
ENDBRANCH  17  18
ENDBRANCH   8  10
BRANCH   1  25
ATOM     24  C   UNL     1      -1.539  15.934  26.106  0.00  0.00    +0.000 C 
ATOM     25  C   UNL     1      -2.289  15.140  25.029  0.00  0.00    +0.000 C 
ATOM     26  C   UNL     1      -3.495  15.956  24.545  0.00  0.00    +0.000 C 
ENDBRANCH   1  25
BRANCH   6  27
ATOM     27  C   UNL     1       0.082  10.777  20.174  0.00  0.00    +0.000 C 
ATOM     28  C   UNL     1       0.130  11.234  18.729  0.00  0.00    +0.000 C 
ATOM     29  C   UNL     1      -0.788  10.122  19.129  0.00  0.00    +0.000 C 
ENDBRANCH   6  27
TORSDOF 4
ENDMDL
MODEL 6
REMARK VINA RESULT:      -6.6      1.739      4.592
REMARK  Name = 
REMARK  6 active torsions:
REMARK  status: ('A' for Active; 'I' for Inactive)
REMARK    1  A    between atoms: C_1  and  C_2
REMARK    2  A    between atoms: C_2  and  C_3
REMARK    3  A    between atoms: C_2  and  C_4
REMARK    4  A    between atoms: C_9  and  C_10
REMARK    5  A    between atoms: C_14  and  C_15
REMARK    6  A    between atoms: C_22  and  C_23
REMARK                            x       y       z     vdW  Elec       q    Type
REMARK                         _______ _______ _______ _____ _____    ______ ____
ROOT
ATOM      1  C   UNL     1      -5.157  12.967  22.125  0.00  0.00    +0.000 A 
ATOM      2  N   UNL     1      -6.306  12.283  22.245  0.00  0.00    +0.000 NA
ATOM      3  O   UNL     1      -6.419  11.518  21.107  0.00  0.00    +0.000 OA
ATOM      4  C   UNL     1      -5.357  11.745  20.292  0.00  0.00    +0.000 A 
ATOM      5  N   UNL     1      -5.232  11.158  19.093  0.00  0.00    +0.000 NA
ATOM      6  C   UNL     1      -4.168  11.550  18.368  0.00  0.00    +0.000 A 
ATOM      7  C   UNL     1      -3.244  12.478  18.850  0.00  0.00    +0.000 A 
ATOM      8  C   UNL     1      -3.310  12.941  20.175  0.00  0.00    +0.000 A 
ATOM      9  C   UNL     1      -4.483  12.635  20.901  0.00  0.00    +0.000 A 
ENDROOT
BRANCH   8  10
ATOM     10  C   UNL     1      -2.232  13.767  20.771  0.00  0.00    +0.000 C 
ATOM     11  O   UNL     1      -2.524  14.934  21.025  0.00  0.00    +0.000 OA
ATOM     12  N   UNL     1      -0.982  13.223  21.110  0.00  0.00    +0.000 N 
ATOM     13  C   UNL     1      -0.109  14.004  21.999  0.00  0.00    +0.000 C 
ATOM     14  C   UNL     1       1.231  14.360  21.357  0.00  0.00    +0.000 C 
ATOM     15  C   UNL     1       1.904  13.157  20.702  0.00  0.00    +0.000 C 
ATOM     16  C   UNL     1       0.927  12.414  19.795  0.00  0.00    +0.000 C 
ATOM     17  C   UNL     1      -0.354  12.004  20.549  0.00  0.00    +0.000 C 
BRANCH  17  18
ATOM     18  C   UNL     1      -0.155  10.909  21.569  0.00  0.00    +0.000 A 
ATOM     19  C   UNL     1      -0.836  10.696  22.794  0.00  0.00    +0.000 A 
ATOM     20  C   UNL     1      -0.334   9.513  23.279  0.00  0.00    +0.000 A 
ATOM     21  N   UNL     1       0.571   9.080  22.365  0.00  0.00    +0.000 N 
ATOM     22  N   UNL     1       0.691   9.897  21.307  0.00  0.00    +0.000 NA
ATOM     23  H   UNL     1       1.130   8.231  22.379  0.00  0.00    +0.000 HD
ENDBRANCH  17  18
ENDBRANCH   8  10
BRANCH   1  25
ATOM     24  C   UNL     1      -6.120  14.595  23.756  0.00  0.00    +0.000 C 
ATOM     25  C   UNL     1      -4.832  14.008  23.165  0.00  0.00    +0.000 C 
ATOM     26  C   UNL     1      -3.945  13.486  24.303  0.00  0.00    +0.000 C 
ENDBRANCH   1  25
BRANCH   6  27
ATOM     27  C   UNL     1      -4.009  10.918  17.001  0.00  0.00    +0.000 C 
ATOM     28  C   UNL     1      -3.018   9.778  16.874  0.00  0.00    +0.000 C 
ATOM     29  C   UNL     1      -2.762  11.070  16.164  0.00  0.00    +0.000 C 
ENDBRANCH   6  27
TORSDOF 4
ENDMDL
MODEL 7
REMARK VINA RESULT:      -6.5      2.123      6.135
REMARK  Name = 
REMARK  6 active torsions:
REMARK  status: ('A' for Active; 'I' for Inactive)
REMARK    1  A    between atoms: C_1  and  C_2
REMARK    2  A    between atoms: C_2  and  C_3
REMARK    3  A    between atoms: C_2  and  C_4
REMARK    4  A    between atoms: C_9  and  C_10
REMARK    5  A    between atoms: C_14  and  C_15
REMARK    6  A    between atoms: C_22  and  C_23
REMARK                            x       y       z     vdW  Elec       q    Type
REMARK                         _______ _______ _______ _____ _____    ______ ____
ROOT
ATOM      1  C   UNL     1      -0.796  11.297  19.561  0.00  0.00    +0.000 A 
ATOM      2  N   UNL     1      -0.426  10.339  18.697  0.00  0.00    +0.000 NA
ATOM      3  O   UNL     1      -1.521  10.094  17.902  0.00  0.00    +0.000 OA
ATOM      4  C   UNL     1      -2.555  10.886  18.285  0.00  0.00    +0.000 A 
ATOM      5  N   UNL     1      -3.762  10.826  17.704  0.00  0.00    +0.000 NA
ATOM      6  C   UNL     1      -4.706  11.613  18.253  0.00  0.00    +0.000 A 
ATOM      7  C   UNL     1      -4.433  12.455  19.332  0.00  0.00    +0.000 A 
ATOM      8  C   UNL     1      -3.120  12.621  19.804  0.00  0.00    +0.000 A 
ATOM      9  C   UNL     1      -2.148  11.716  19.322  0.00  0.00    +0.000 A 
ENDROOT
BRANCH   8  10
ATOM     10  C   UNL     1      -2.773  13.654  20.810  0.00  0.00    +0.000 C 
ATOM     11  O   UNL     1      -1.892  14.448  20.485  0.00  0.00    +0.000 OA
ATOM     12  N   UNL     1      -3.473  13.774  22.021  0.00  0.00    +0.000 N 
ATOM     13  C   UNL     1      -3.305  15.016  22.793  0.00  0.00    +0.000 C 
ATOM     14  C   UNL     1      -2.733  14.777  24.190  0.00  0.00    +0.000 C 
ATOM     15  C   UNL     1      -3.457  13.658  24.935  0.00  0.00    +0.000 C 
ATOM     16  C   UNL     1      -3.577  12.413  24.062  0.00  0.00    +0.000 C 
ATOM     17  C   UNL     1      -4.255  12.724  22.712  0.00  0.00    +0.000 C 
BRANCH  17  18
ATOM     18  C   UNL     1      -5.728  13.041  22.812  0.00  0.00    +0.000 A 
ATOM     19  C   UNL     1      -6.508  13.918  22.017  0.00  0.00    +0.000 A 
ATOM     20  C   UNL     1      -7.795  13.760  22.470  0.00  0.00    +0.000 A 
ATOM     21  N   UNL     1      -7.739  12.831  23.459  0.00  0.00    +0.000 N 
ATOM     22  N   UNL     1      -6.501  12.364  23.680  0.00  0.00    +0.000 NA
ATOM     23  H   UNL     1      -8.500  12.449  24.014  0.00  0.00    +0.000 HD
ENDBRANCH  17  18
ENDBRANCH   8  10
BRANCH   1  25
ATOM     24  C   UNL     1       0.801  10.421  21.270  0.00  0.00    +0.000 C 
ATOM     25  C   UNL     1       0.161  11.676  20.662  0.00  0.00    +0.000 C 
ATOM     26  C   UNL     1       1.267  12.641  20.213  0.00  0.00    +0.000 C 
ENDBRANCH   1  25
BRANCH   6  27
ATOM     27  C   UNL     1      -6.084  11.554  17.630  0.00  0.00    +0.000 C 
ATOM     28  C   UNL     1      -6.646  12.843  17.063  0.00  0.00    +0.000 C 
ATOM     29  C   UNL     1      -7.297  12.206  18.250  0.00  0.00    +0.000 C 
ENDBRANCH   6  27
TORSDOF 4
ENDMDL
MODEL 8
REMARK VINA RESULT:      -6.5      2.170      5.372
REMARK  Name = 
REMARK  6 active torsions:
REMARK  status: ('A' for Active; 'I' for Inactive)
REMARK    1  A    between atoms: C_1  and  C_2
REMARK    2  A    between atoms: C_2  and  C_3
REMARK    3  A    between atoms: C_2  and  C_4
REMARK    4  A    between atoms: C_9  and  C_10
REMARK    5  A    between atoms: C_14  and  C_15
REMARK    6  A    between atoms: C_22  and  C_23
REMARK                            x       y       z     vdW  Elec       q    Type
REMARK                         _______ _______ _______ _____ _____    ______ ____
ROOT
ATOM      1  C   UNL     1      -1.298  10.650  18.277  0.00  0.00    +0.000 A 
ATOM      2  N   UNL     1      -1.367   9.677  17.354  0.00  0.00    +0.000 NA
ATOM      3  O   UNL     1      -2.678   9.631  16.940  0.00  0.00    +0.000 OA
ATOM      4  C   UNL     1      -3.407  10.558  17.614  0.00  0.00    +0.000 A 
ATOM      5  N   UNL     1      -4.727  10.704  17.435  0.00  0.00    +0.000 NA
ATOM      6  C   UNL     1      -5.321  11.606  18.238  0.00  0.00    +0.000 A 
ATOM      7  C   UNL     1      -4.602  12.358  19.168  0.00  0.00    +0.000 A 
ATOM      8  C   UNL     1      -3.198  12.304  19.208  0.00  0.00    +0.000 A 
ATOM      9  C   UNL     1      -2.576  11.279  18.462  0.00  0.00    +0.000 A 
ENDROOT
BRANCH   8  10
ATOM     10  C   UNL     1      -2.402  13.236  20.043  0.00  0.00    +0.000 C 
ATOM     11  O   UNL     1      -1.539  13.885  19.454  0.00  0.00    +0.000 OA
ATOM     12  N   UNL     1      -2.678  13.432  21.406  0.00  0.00    +0.000 N 
ATOM     13  C   UNL     1      -2.086  14.605  22.067  0.00  0.00    +0.000 C 
ATOM     14  C   UNL     1      -1.171  14.235  23.233  0.00  0.00    +0.000 C 
ATOM     15  C   UNL     1      -1.813  13.227  24.183  0.00  0.00    +0.000 C 
ATOM     16  C   UNL     1      -2.392  12.044  23.411  0.00  0.00    +0.000 C 
ATOM     17  C   UNL     1      -3.381  12.503  22.321  0.00  0.00    +0.000 C 
BRANCH  17  18
ATOM     18  C   UNL     1      -4.683  13.053  22.850  0.00  0.00    +0.000 A 
ATOM     19  C   UNL     1      -5.545  14.018  22.272  0.00  0.00    +0.000 A 
ATOM     20  C   UNL     1      -6.627  14.080  23.115  0.00  0.00    +0.000 A 
ATOM     21  N   UNL     1      -6.388  13.185  24.108  0.00  0.00    +0.000 N 
ATOM     22  N   UNL     1      -5.223  12.534  23.968  0.00  0.00    +0.000 NA
ATOM     23  H   UNL     1      -6.977  12.946  24.902  0.00  0.00    +0.000 HD
ENDBRANCH  17  18
ENDBRANCH   8  10
BRANCH   1  25
ATOM     24  C   UNL     1      -0.152  10.382  20.479  0.00  0.00    +0.000 C 
ATOM     25  C   UNL     1      -0.003  10.839  19.022  0.00  0.00    +0.000 C 
ATOM     26  C   UNL     1       1.188  10.112  18.383  0.00  0.00    +0.000 C 
ENDBRANCH   1  25
BRANCH   6  27
ATOM     27  C   UNL     1      -6.816  11.781  18.073  0.00  0.00    +0.000 C 
ATOM     28  C   UNL     1      -7.292  13.006  17.317  0.00  0.00    +0.000 C 
ATOM     29  C   UNL     1      -7.601  12.864  18.774  0.00  0.00    +0.000 C 
ENDBRANCH   6  27
TORSDOF 4
ENDMDL
MODEL 9
REMARK VINA RESULT:      -6.4      1.711      3.857
REMARK  Name = 
REMARK  6 active torsions:
REMARK  status: ('A' for Active; 'I' for Inactive)
REMARK    1  A    between atoms: C_1  and  C_2
REMARK    2  A    between atoms: C_2  and  C_3
REMARK    3  A    between atoms: C_2  and  C_4
REMARK    4  A    between atoms: C_9  and  C_10
REMARK    5  A    between atoms: C_14  and  C_15
REMARK    6  A    between atoms: C_22  and  C_23
REMARK                            x       y       z     vdW  Elec       q    Type
REMARK                         _______ _______ _______ _____ _____    ______ ____
ROOT
ATOM      1  C   UNL     1      -2.243  13.849  21.864  0.00  0.00    +0.000 A 
ATOM      2  N   UNL     1      -3.185  13.885  22.820  0.00  0.00    +0.000 NA
ATOM      3  O   UNL     1      -4.265  13.194  22.321  0.00  0.00    +0.000 OA
ATOM      4  C   UNL     1      -3.990  12.751  21.068  0.00  0.00    +0.000 A 
ATOM      5  N   UNL     1      -4.885  12.080  20.329  0.00  0.00    +0.000 NA
ATOM      6  C   UNL     1      -4.492  11.784  19.076  0.00  0.00    +0.000 A 
ATOM      7  C   UNL     1      -3.229  12.128  18.595  0.00  0.00    +0.000 A 
ATOM      8  C   UNL     1      -2.256  12.677  19.448  0.00  0.00    +0.000 A 
ATOM      9  C   UNL     1      -2.691  13.102  20.723  0.00  0.00    +0.000 A 
ENDROOT
BRANCH   8  10
ATOM     10  C   UNL     1      -0.850  12.863  19.016  0.00  0.00    +0.000 C 
ATOM     11  O   UNL     1      -0.566  13.971  18.564  0.00  0.00    +0.000 OA
ATOM     12  N   UNL     1       0.120  11.864  19.197  0.00  0.00    +0.000 N 
ATOM     13  C   UNL     1       1.535  12.246  19.067  0.00  0.00    +0.000 C 
ATOM     14  C   UNL     1       2.259  11.484  17.959  0.00  0.00    +0.000 C 
ATOM     15  C   UNL     1       2.011   9.979  18.025  0.00  0.00    +0.000 C 
ATOM     16  C   UNL     1       0.520   9.679  18.152  0.00  0.00    +0.000 C 
ATOM     17  C   UNL     1      -0.110  10.409  19.355  0.00  0.00    +0.000 C 
BRANCH  17  18
ATOM     18  C   UNL     1       0.317   9.877  20.702  0.00  0.00    +0.000 A 
ATOM     19  C   UNL     1      -0.120  10.264  21.994  0.00  0.00    +0.000 A 
ATOM     20  C   UNL     1       0.510   9.401  22.856  0.00  0.00    +0.000 A 
ATOM     21  N   UNL     1       1.251   8.565  22.084  0.00  0.00    +0.000 N 
ATOM     22  N   UNL     1       1.143   8.818  20.771  0.00  0.00    +0.000 NA
ATOM     23  H   UNL     1       1.838   7.788  22.375  0.00  0.00    +0.000 HD
ENDBRANCH  17  18
ENDBRANCH   8  10
BRANCH   1  25
ATOM     24  C   UNL     1      -1.078  15.991  21.321  0.00  0.00    +0.000 C 
ATOM     25  C   UNL     1      -0.986  14.654  22.069  0.00  0.00    +0.000 C 
ATOM     26  C   UNL     1      -0.657  14.921  23.544  0.00  0.00    +0.000 C 
ENDBRANCH   1  25
BRANCH   6  27
ATOM     27  C   UNL     1      -5.489  11.041  18.211  0.00  0.00    +0.000 C 
ATOM     28  C   UNL     1      -6.774  11.763  17.857  0.00  0.00    +0.000 C 
ATOM     29  C   UNL     1      -6.819  10.547  18.727  0.00  0.00    +0.000 C 
ENDBRANCH   6  27
TORSDOF 4
ENDMDL
