MODEL 1
REMARK VINA RESULT:      -8.9      0.000      0.000
REMARK  Name = 
REMARK  5 active torsions:
REMARK  status: ('A' for Active; 'I' for Inactive)
REMARK    1  A    between atoms: C_1  and  C_2
REMARK    2  A    between atoms: C_7  and  C_8
REMARK    3  A    between atoms: C_11  and  N_12
REMARK    4  A    between atoms: C_13  and  C_15
REMARK    5  A    between atoms: C_15  and  C_16
REMARK                            x       y       z     vdW  Elec       q    Type
REMARK                         _______ _______ _______ _____ _____    ______ ____
ROOT
ATOM      1  C   UNL     1       1.045   9.492  19.735  0.00  0.00    +0.000 A 
ATOM      2  C   UNL     1       1.183   8.521  20.729  0.00  0.00    +0.000 A 
ATOM      3  C   UNL     1       1.844   7.322  20.460  0.00  0.00    +0.000 A 
ATOM      4  C   UNL     1       2.368   7.067  19.195  0.00  0.00    +0.000 A 
ATOM      5  C   UNL     1       2.229   8.041  18.196  0.00  0.00    +0.000 A 
ATOM      6  C   UNL     1       1.572   9.250  18.462  0.00  0.00    +0.000 A 
ENDROOT
BRANCH   1  13
ATOM      7  C   UNL     1      -2.956  12.184  19.359  0.00  0.00    +0.000 C 
ATOM      8  C   UNL     1      -1.567  12.062  19.920  0.00  0.00    +0.000 A 
ATOM      9  C   UNL     1      -1.023  13.042  20.649  0.00  0.00    +0.000 A 
ATOM     10  C   UNL     1       0.340  12.845  21.169  0.00  0.00    +0.000 A 
ATOM     11  O   UNL     1       0.901  13.695  21.847  0.00  0.00    +0.000 OA
ATOM     12  N   UNL     1       0.922  11.661  20.836  0.00  0.00    +0.000 N 
ATOM     13  C   UNL     1       0.287  10.727  20.057  0.00  0.00    +0.000 A 
ATOM     14  N   UNL     1      -0.921  10.889  19.608  0.00  0.00    +0.000 NA
ATOM     15  H   UNL     1       1.837  11.502  21.227  0.00  0.00    +0.000 HD
ENDBRANCH   1  13
BRANCH   4  16
ATOM     16  N   UNL     1       3.036   5.872  18.855  0.00  0.00    +0.000 N 
ATOM     17  C   UNL     1       2.507   4.761  18.205  0.00  0.00    +0.000 C 
ATOM     18  O   UNL     1       1.350   4.676  17.783  0.00  0.00    +0.000 OA
ATOM     19  H   UNL     1       4.013   5.820  19.113  0.00  0.00    +0.000 HD
BRANCH  17  20
ATOM     20  C   UNL     1       3.535   3.569  18.081  0.00  0.00    +0.000 C 
ATOM     21  C   UNL     1       2.955   2.230  17.460  0.00  0.00    +0.000 C 
ATOM     22  C   UNL     1       3.786   1.457  18.501  0.00  0.00    +0.000 C 
ATOM     23  C   UNL     1       3.708   2.705  19.391  0.00  0.00    +0.000 C 
BRANCH  20  24
ATOM     24  C   UNL     1       4.845   4.098  17.295  0.00  0.00    +0.000 A 
ATOM     25  C   UNL     1       6.057   4.390  17.947  0.00  0.00    +0.000 A 
ATOM     26  C   UNL     1       7.239   4.628  17.241  0.00  0.00    +0.000 A 
ATOM     27  C   UNL     1       7.234   4.619  15.851  0.00  0.00    +0.000 A 
ATOM     28  C   UNL     1       6.040   4.425  15.169  0.00  0.00    +0.000 A 
ATOM     29  C   UNL     1       4.865   4.176  15.883  0.00  0.00    +0.000 A 
ENDBRANCH  20  24
ENDBRANCH  17  20
ENDBRANCH   4  16
TORSDOF 4
ENDMDL
MODEL 2
REMARK VINA RESULT:      -8.9      1.043      1.205
REMARK  Name = 
REMARK  5 active torsions:
REMARK  status: ('A' for Active; 'I' for Inactive)
REMARK    1  A    between atoms: C_1  and  C_2
REMARK    2  A    between atoms: C_7  and  C_8
REMARK    3  A    between atoms: C_11  and  N_12
REMARK    4  A    between atoms: C_13  and  C_15
REMARK    5  A    between atoms: C_15  and  C_16
REMARK                            x       y       z     vdW  Elec       q    Type
REMARK                         _______ _______ _______ _____ _____    ______ ____
ROOT
ATOM      1  C   UNL     1       1.064   9.486  19.577  0.00  0.00    +0.000 A 
ATOM      2  C   UNL     1       1.204   8.536  20.591  0.00  0.00    +0.000 A 
ATOM      3  C   UNL     1       1.874   7.336  20.348  0.00  0.00    +0.000 A 
ATOM      4  C   UNL     1       2.406   7.061  19.091  0.00  0.00    +0.000 A 
ATOM      5  C   UNL     1       2.265   8.014  18.072  0.00  0.00    +0.000 A 
ATOM      6  C   UNL     1       1.598   9.224  18.312  0.00  0.00    +0.000 A 
ENDROOT
BRANCH   1  13
ATOM      7  C   UNL     1      -1.831  12.039  22.493  0.00  0.00    +0.000 C 
ATOM      8  C   UNL     1      -1.080  11.988  21.192  0.00  0.00    +0.000 A 
ATOM      9  C   UNL     1      -1.132  13.000  20.319  0.00  0.00    +0.000 A 
ATOM     10  C   UNL     1      -0.363  12.878  19.071  0.00  0.00    +0.000 A 
ATOM     11  O   UNL     1      -0.358  13.764  18.227  0.00  0.00    +0.000 OA
ATOM     12  N   UNL     1       0.328  11.715  18.926  0.00  0.00    +0.000 N 
ATOM     13  C   UNL     1       0.295  10.722  19.872  0.00  0.00    +0.000 A 
ATOM     14  N   UNL     1      -0.369  10.830  20.983  0.00  0.00    +0.000 NA
ATOM     15  H   UNL     1       0.891  11.646  18.093  0.00  0.00    +0.000 HD
ENDBRANCH   1  13
BRANCH   4  16
ATOM     16  N   UNL     1       3.085   5.865  18.776  0.00  0.00    +0.000 N 
ATOM     17  C   UNL     1       2.537   4.687  18.276  0.00  0.00    +0.000 C 
ATOM     18  O   UNL     1       1.348   4.530  17.987  0.00  0.00    +0.000 OA
ATOM     19  H   UNL     1       4.085   5.866  18.933  0.00  0.00    +0.000 HD
BRANCH  17  20
ATOM     20  C   UNL     1       3.596   3.523  18.138  0.00  0.00    +0.000 C 
ATOM     21  C   UNL     1       3.043   2.169  17.527  0.00  0.00    +0.000 C 
ATOM     22  C   UNL     1       3.910   1.419  18.556  0.00  0.00    +0.000 C 
ATOM     23  C   UNL     1       3.811   2.666  19.446  0.00  0.00    +0.000 C 
BRANCH  20  24
ATOM     24  C   UNL     1       4.879   4.087  17.332  0.00  0.00    +0.000 A 
ATOM     25  C   UNL     1       6.115   4.345  17.954  0.00  0.00    +0.000 A 
ATOM     26  C   UNL     1       7.271   4.614  17.218  0.00  0.00    +0.000 A 
ATOM     27  C   UNL     1       7.218   4.671  15.831  0.00  0.00    +0.000 A 
ATOM     28  C   UNL     1       5.999   4.512  15.182  0.00  0.00    +0.000 A 
ATOM     29  C   UNL     1       4.850   4.232  15.925  0.00  0.00    +0.000 A 
ENDBRANCH  20  24
ENDBRANCH  17  20
ENDBRANCH   4  16
TORSDOF 4
ENDMDL
MODEL 3
REMARK VINA RESULT:      -8.8      1.038      1.623
REMARK  Name = 
REMARK  5 active torsions:
REMARK  status: ('A' for Active; 'I' for Inactive)
REMARK    1  A    between atoms: C_1  and  C_2
REMARK    2  A    between atoms: C_7  and  C_8
REMARK    3  A    between atoms: C_11  and  N_12
REMARK    4  A    between atoms: C_13  and  C_15
REMARK    5  A    between atoms: C_15  and  C_16
REMARK                            x       y       z     vdW  Elec       q    Type
REMARK                         _______ _______ _______ _____ _____    ______ ____
ROOT
ATOM      1  C   UNL     1       1.025   9.572  19.501  0.00  0.00    +0.000 A 
ATOM      2  C   UNL     1       1.189   8.662  20.548  0.00  0.00    +0.000 A 
ATOM      3  C   UNL     1       1.862   7.458  20.339  0.00  0.00    +0.000 A 
ATOM      4  C   UNL     1       2.372   7.136  19.084  0.00  0.00    +0.000 A 
ATOM      5  C   UNL     1       2.207   8.049  18.032  0.00  0.00    +0.000 A 
ATOM      6  C   UNL     1       1.537   9.263  18.237  0.00  0.00    +0.000 A 
ENDROOT
BRANCH   1  13
ATOM      7  C   UNL     1       0.677  13.958  21.512  0.00  0.00    +0.000 C 
ATOM      8  C   UNL     1       0.010  12.892  20.689  0.00  0.00    +0.000 A 
ATOM      9  C   UNL     1      -1.241  13.042  20.239  0.00  0.00    +0.000 A 
ATOM     10  C   UNL     1      -1.822  11.957  19.433  0.00  0.00    +0.000 A 
ATOM     11  O   UNL     1      -2.958  12.025  18.983  0.00  0.00    +0.000 OA
ATOM     12  N   UNL     1      -1.010  10.883  19.233  0.00  0.00    +0.000 N 
ATOM     13  C   UNL     1       0.254  10.814  19.761  0.00  0.00    +0.000 A 
ATOM     14  N   UNL     1       0.778  11.775  20.461  0.00  0.00    +0.000 NA
ATOM     15  H   UNL     1      -1.388  10.158  18.644  0.00  0.00    +0.000 HD
ENDBRANCH   1  13
BRANCH   4  16
ATOM     16  N   UNL     1       3.052   5.933  18.804  0.00  0.00    +0.000 N 
ATOM     17  C   UNL     1       2.516   4.760  18.279  0.00  0.00    +0.000 C 
ATOM     18  O   UNL     1       1.341   4.615  17.933  0.00  0.00    +0.000 OA
ATOM     19  H   UNL     1       4.043   5.923  19.009  0.00  0.00    +0.000 HD
BRANCH  17  20
ATOM     20  C   UNL     1       3.568   3.585  18.194  0.00  0.00    +0.000 C 
ATOM     21  C   UNL     1       3.015   2.218  17.610  0.00  0.00    +0.000 C 
ATOM     22  C   UNL     1       3.856   1.491  18.676  0.00  0.00    +0.000 C 
ATOM     23  C   UNL     1       3.751   2.763  19.529  0.00  0.00    +0.000 C 
BRANCH  20  24
ATOM     24  C   UNL     1       4.870   4.115  17.396  0.00  0.00    +0.000 A 
ATOM     25  C   UNL     1       6.096   4.382  18.034  0.00  0.00    +0.000 A 
ATOM     26  C   UNL     1       7.268   4.621  17.314  0.00  0.00    +0.000 A 
ATOM     27  C   UNL     1       7.241   4.640  15.924  0.00  0.00    +0.000 A 
ATOM     28  C   UNL     1       6.034   4.471  15.258  0.00  0.00    +0.000 A 
ATOM     29  C   UNL     1       4.869   4.221  15.986  0.00  0.00    +0.000 A 
ENDBRANCH  20  24
ENDBRANCH  17  20
ENDBRANCH   4  16
TORSDOF 4
ENDMDL
MODEL 4
REMARK VINA RESULT:      -8.8      0.964      1.663
REMARK  Name = 
REMARK  5 active torsions:
REMARK  status: ('A' for Active; 'I' for Inactive)
REMARK    1  A    between atoms: C_1  and  C_2
REMARK    2  A    between atoms: C_7  and  C_8
REMARK    3  A    between atoms: C_11  and  N_12
REMARK    4  A    between atoms: C_13  and  C_15
REMARK    5  A    between atoms: C_15  and  C_16
REMARK                            x       y       z     vdW  Elec       q    Type
REMARK                         _______ _______ _______ _____ _____    ______ ____
ROOT
ATOM      1  C   UNL     1       1.059   9.436  19.966  0.00  0.00    +0.000 A 
ATOM      2  C   UNL     1       1.546   9.280  18.666  0.00  0.00    +0.000 A 
ATOM      3  C   UNL     1       2.195   8.102  18.292  0.00  0.00    +0.000 A 
ATOM      4  C   UNL     1       2.377   7.069  19.207  0.00  0.00    +0.000 A 
ATOM      5  C   UNL     1       1.889   7.226  20.512  0.00  0.00    +0.000 A 
ATOM      6  C   UNL     1       1.231   8.404  20.893  0.00  0.00    +0.000 A 
ENDROOT
BRANCH   1  13
ATOM      7  C   UNL     1      -0.326  13.917  18.780  0.00  0.00    +0.000 C 
ATOM      8  C   UNL     1      -0.252  12.862  19.847  0.00  0.00    +0.000 A 
ATOM      9  C   UNL     1      -0.707  13.090  21.084  0.00  0.00    +0.000 A 
ATOM     10  C   UNL     1      -0.605  12.005  22.071  0.00  0.00    +0.000 A 
ATOM     11  O   UNL     1      -1.004  12.138  23.221  0.00  0.00    +0.000 OA
ATOM     12  N   UNL     1      -0.036  10.856  21.615  0.00  0.00    +0.000 N 
ATOM     13  C   UNL     1       0.425  10.729  20.329  0.00  0.00    +0.000 A 
ATOM     14  N   UNL     1       0.324  11.679  19.448  0.00  0.00    +0.000 NA
ATOM     15  H   UNL     1      -0.005  10.095  22.274  0.00  0.00    +0.000 HD
ENDBRANCH   1  13
BRANCH   4  16
ATOM     16  N   UNL     1       3.033   5.859  18.897  0.00  0.00    +0.000 N 
ATOM     17  C   UNL     1       2.544   4.801  18.136  0.00  0.00    +0.000 C 
ATOM     18  O   UNL     1       1.447   4.789  17.570  0.00  0.00    +0.000 OA
ATOM     19  H   UNL     1       3.967   5.750  19.272  0.00  0.00    +0.000 HD
BRANCH  17  20
ATOM     20  C   UNL     1       3.529   3.568  18.085  0.00  0.00    +0.000 C 
ATOM     21  C   UNL     1       2.894   2.210  17.569  0.00  0.00    +0.000 C 
ATOM     22  C   UNL     1       3.714   1.484  18.653  0.00  0.00    +0.000 C 
ATOM     23  C   UNL     1       3.691   2.795  19.451  0.00  0.00    +0.000 C 
BRANCH  20  24
ATOM     24  C   UNL     1       4.844   3.994  17.246  0.00  0.00    +0.000 A 
ATOM     25  C   UNL     1       4.818   4.224  15.858  0.00  0.00    +0.000 A 
ATOM     26  C   UNL     1       5.895   4.805  15.184  0.00  0.00    +0.000 A 
ATOM     27  C   UNL     1       7.053   5.138  15.876  0.00  0.00    +0.000 A 
ATOM     28  C   UNL     1       7.153   4.844  17.231  0.00  0.00    +0.000 A 
ATOM     29  C   UNL     1       6.067   4.274  17.899  0.00  0.00    +0.000 A 
ENDBRANCH  20  24
ENDBRANCH  17  20
ENDBRANCH   4  16
TORSDOF 4
ENDMDL
MODEL 5
REMARK VINA RESULT:      -8.7      0.253      1.332
REMARK  Name = 
REMARK  5 active torsions:
REMARK  status: ('A' for Active; 'I' for Inactive)
REMARK    1  A    between atoms: C_1  and  C_2
REMARK    2  A    between atoms: C_7  and  C_8
REMARK    3  A    between atoms: C_11  and  N_12
REMARK    4  A    between atoms: C_13  and  C_15
REMARK    5  A    between atoms: C_15  and  C_16
REMARK                            x       y       z     vdW  Elec       q    Type
REMARK                         _______ _______ _______ _____ _____    ______ ____
ROOT
ATOM      1  C   UNL     1       1.035   9.457  19.788  0.00  0.00    +0.000 A 
ATOM      2  C   UNL     1       1.540   9.280  18.498  0.00  0.00    +0.000 A 
ATOM      3  C   UNL     1       2.195   8.098  18.151  0.00  0.00    +0.000 A 
ATOM      4  C   UNL     1       2.365   7.079  19.085  0.00  0.00    +0.000 A 
ATOM      5  C   UNL     1       1.859   7.257  20.381  0.00  0.00    +0.000 A 
ATOM      6  C   UNL     1       1.195   8.440  20.734  0.00  0.00    +0.000 A 
ENDROOT
BRANCH   1  13
ATOM      7  C   UNL     1      -2.813  12.388  19.711  0.00  0.00    +0.000 C 
ATOM      8  C   UNL     1      -1.378  12.202  20.117  0.00  0.00    +0.000 A 
ATOM      9  C   UNL     1      -0.695  13.179  20.722  0.00  0.00    +0.000 A 
ATOM     10  C   UNL     1       0.704  12.918  21.095  0.00  0.00    +0.000 A 
ATOM     11  O   UNL     1       1.391  13.763  21.656  0.00  0.00    +0.000 OA
ATOM     12  N   UNL     1       1.172  11.683  20.768  0.00  0.00    +0.000 N 
ATOM     13  C   UNL     1       0.395  10.755  20.121  0.00  0.00    +0.000 A 
ATOM     14  N   UNL     1      -0.845  10.975  19.803  0.00  0.00    +0.000 NA
ATOM     15  H   UNL     1       2.115  11.484  21.062  0.00  0.00    +0.000 HD
ENDBRANCH   1  13
BRANCH   4  16
ATOM     16  N   UNL     1       3.026   5.865  18.803  0.00  0.00    +0.000 N 
ATOM     17  C   UNL     1       2.526   4.771  18.103  0.00  0.00    +0.000 C 
ATOM     18  O   UNL     1       1.411   4.722  17.575  0.00  0.00    +0.000 OA
ATOM     19  H   UNL     1       3.973   5.782  19.151  0.00  0.00    +0.000 HD
BRANCH  17  20
ATOM     20  C   UNL     1       3.525   3.548  18.070  0.00  0.00    +0.000 C 
ATOM     21  C   UNL     1       2.917   2.187  17.531  0.00  0.00    +0.000 C 
ATOM     22  C   UNL     1       3.716   1.463  18.631  0.00  0.00    +0.000 C 
ATOM     23  C   UNL     1       3.661   2.769  19.436  0.00  0.00    +0.000 C 
BRANCH  20  24
ATOM     24  C   UNL     1       4.856   3.992  17.267  0.00  0.00    +0.000 A 
ATOM     25  C   UNL     1       4.861   4.233  15.880  0.00  0.00    +0.000 A 
ATOM     26  C   UNL     1       5.949   4.829  15.237  0.00  0.00    +0.000 A 
ATOM     27  C   UNL     1       7.087   5.167  15.960  0.00  0.00    +0.000 A 
ATOM     28  C   UNL     1       7.156   4.863  17.315  0.00  0.00    +0.000 A 
ATOM     29  C   UNL     1       6.060   4.278  17.952  0.00  0.00    +0.000 A 
ENDBRANCH  20  24
ENDBRANCH  17  20
ENDBRANCH   4  16
TORSDOF 4
ENDMDL
MODEL 6
REMARK VINA RESULT:      -8.7      1.016      1.155
REMARK  Name = 
REMARK  5 active torsions:
REMARK  status: ('A' for Active; 'I' for Inactive)
REMARK    1  A    between atoms: C_1  and  C_2
REMARK    2  A    between atoms: C_7  and  C_8
REMARK    3  A    between atoms: C_11  and  N_12
REMARK    4  A    between atoms: C_13  and  C_15
REMARK    5  A    between atoms: C_15  and  C_16
REMARK                            x       y       z     vdW  Elec       q    Type
REMARK                         _______ _______ _______ _____ _____    ______ ____
ROOT
ATOM      1  C   UNL     1       1.060   9.447  19.654  0.00  0.00    +0.000 A 
ATOM      2  C   UNL     1       1.205   8.495  20.665  0.00  0.00    +0.000 A 
ATOM      3  C   UNL     1       1.873   7.295  20.415  0.00  0.00    +0.000 A 
ATOM      4  C   UNL     1       2.398   7.022  19.154  0.00  0.00    +0.000 A 
ATOM      5  C   UNL     1       2.252   7.979  18.139  0.00  0.00    +0.000 A 
ATOM      6  C   UNL     1       1.587   9.188  18.385  0.00  0.00    +0.000 A 
ENDROOT
BRANCH   1  13
ATOM      7  C   UNL     1      -0.177  13.996  18.569  0.00  0.00    +0.000 C 
ATOM      8  C   UNL     1      -0.335  12.839  19.514  0.00  0.00    +0.000 A 
ATOM      9  C   UNL     1      -1.106  12.930  20.603  0.00  0.00    +0.000 A 
ATOM     10  C   UNL     1      -1.214  11.751  21.476  0.00  0.00    +0.000 A 
ATOM     11  O   UNL     1      -1.904  11.758  22.487  0.00  0.00    +0.000 OA
ATOM     12  N   UNL     1      -0.492  10.668  21.081  0.00  0.00    +0.000 N 
ATOM     13  C   UNL     1       0.293  10.683  19.956  0.00  0.00    +0.000 A 
ATOM     14  N   UNL     1       0.381  11.716  19.173  0.00  0.00    +0.000 NA
ATOM     15  H   UNL     1      -0.599   9.844  21.651  0.00  0.00    +0.000 HD
ENDBRANCH   1  13
BRANCH   4  16
ATOM     16  N   UNL     1       3.074   5.827  18.833  0.00  0.00    +0.000 N 
ATOM     17  C   UNL     1       2.513   4.616  18.438  0.00  0.00    +0.000 C 
ATOM     18  O   UNL     1       1.306   4.422  18.264  0.00  0.00    +0.000 OA
ATOM     19  H   UNL     1       4.084   5.855  18.899  0.00  0.00    +0.000 HD
BRANCH  17  20
ATOM     20  C   UNL     1       3.583   3.469  18.257  0.00  0.00    +0.000 C 
ATOM     21  C   UNL     1       3.035   2.120  17.629  0.00  0.00    +0.000 C 
ATOM     22  C   UNL     1       3.930   1.361  18.626  0.00  0.00    +0.000 C 
ATOM     23  C   UNL     1       3.833   2.589  19.543  0.00  0.00    +0.000 C 
BRANCH  20  24
ATOM     24  C   UNL     1       4.843   4.064  17.438  0.00  0.00    +0.000 A 
ATOM     25  C   UNL     1       6.062   4.399  18.056  0.00  0.00    +0.000 A 
ATOM     26  C   UNL     1       7.210   4.696  17.317  0.00  0.00    +0.000 A 
ATOM     27  C   UNL     1       7.161   4.706  15.928  0.00  0.00    +0.000 A 
ATOM     28  C   UNL     1       5.955   4.471  15.280  0.00  0.00    +0.000 A 
ATOM     29  C   UNL     1       4.815   4.163  16.027  0.00  0.00    +0.000 A 
ENDBRANCH  20  24
ENDBRANCH  17  20
ENDBRANCH   4  16
TORSDOF 4
ENDMDL
MODEL 7
REMARK VINA RESULT:      -8.7      0.842      1.249
REMARK  Name = 
REMARK  5 active torsions:
REMARK  status: ('A' for Active; 'I' for Inactive)
REMARK    1  A    between atoms: C_1  and  C_2
REMARK    2  A    between atoms: C_7  and  C_8
REMARK    3  A    between atoms: C_11  and  N_12
REMARK    4  A    between atoms: C_13  and  C_15
REMARK    5  A    between atoms: C_15  and  C_16
REMARK                            x       y       z     vdW  Elec       q    Type
REMARK                         _______ _______ _______ _____ _____    ______ ____
ROOT
ATOM      1  C   UNL     1       1.191   9.783  19.090  0.00  0.00    +0.000 A 
ATOM      2  C   UNL     1       1.219   8.904  20.175  0.00  0.00    +0.000 A 
ATOM      3  C   UNL     1       1.850   7.664  20.065  0.00  0.00    +0.000 A 
ATOM      4  C   UNL     1       2.452   7.276  18.871  0.00  0.00    +0.000 A 
ATOM      5  C   UNL     1       2.423   8.158  17.780  0.00  0.00    +0.000 A 
ATOM      6  C   UNL     1       1.797   9.407  17.887  0.00  0.00    +0.000 A 
ENDROOT
BRANCH   1  13
ATOM      7  C   UNL     1      -2.956  12.229  19.555  0.00  0.00    +0.000 C 
ATOM      8  C   UNL     1      -1.458  12.295  19.457  0.00  0.00    +0.000 A 
ATOM      9  C   UNL     1      -0.812  13.465  19.470  0.00  0.00    +0.000 A 
ATOM     10  C   UNL     1       0.657  13.447  19.376  0.00  0.00    +0.000 A 
ATOM     11  O   UNL     1       1.316  14.478  19.387  0.00  0.00    +0.000 OA
ATOM     12  N   UNL     1       1.217  12.211  19.273  0.00  0.00    +0.000 N 
ATOM     13  C   UNL     1       0.461  11.067  19.242  0.00  0.00    +0.000 A 
ATOM     14  N   UNL     1      -0.835  11.076  19.340  0.00  0.00    +0.000 NA
ATOM     15  H   UNL     1       2.224  12.192  19.255  0.00  0.00    +0.000 HD
ENDBRANCH   1  13
BRANCH   4  16
ATOM     16  N   UNL     1       3.096   6.034  18.689  0.00  0.00    +0.000 N 
ATOM     17  C   UNL     1       2.568   4.883  18.110  0.00  0.00    +0.000 C 
ATOM     18  O   UNL     1       1.440   4.796  17.618  0.00  0.00    +0.000 OA
ATOM     19  H   UNL     1       4.051   5.975  19.019  0.00  0.00    +0.000 HD
BRANCH  17  20
ATOM     20  C   UNL     1       3.556   3.653  18.169  0.00  0.00    +0.000 C 
ATOM     21  C   UNL     1       2.933   2.258  17.745  0.00  0.00    +0.000 C 
ATOM     22  C   UNL     1       3.734   1.617  18.894  0.00  0.00    +0.000 C 
ATOM     23  C   UNL     1       3.695   2.984  19.592  0.00  0.00    +0.000 C 
BRANCH  20  24
ATOM     24  C   UNL     1       4.885   4.019  17.324  0.00  0.00    +0.000 A 
ATOM     25  C   UNL     1       4.888   4.125  15.921  0.00  0.00    +0.000 A 
ATOM     26  C   UNL     1       5.974   4.657  15.222  0.00  0.00    +0.000 A 
ATOM     27  C   UNL     1       7.112   5.065  15.907  0.00  0.00    +0.000 A 
ATOM     28  C   UNL     1       7.185   4.893  17.284  0.00  0.00    +0.000 A 
ATOM     29  C   UNL     1       6.090   4.371  17.976  0.00  0.00    +0.000 A 
ENDBRANCH  20  24
ENDBRANCH  17  20
ENDBRANCH   4  16
TORSDOF 4
ENDMDL
MODEL 8
REMARK VINA RESULT:      -8.7      1.217      1.931
REMARK  Name = 
REMARK  5 active torsions:
REMARK  status: ('A' for Active; 'I' for Inactive)
REMARK    1  A    between atoms: C_1  and  C_2
REMARK    2  A    between atoms: C_7  and  C_8
REMARK    3  A    between atoms: C_11  and  N_12
REMARK    4  A    between atoms: C_13  and  C_15
REMARK    5  A    between atoms: C_15  and  C_16
REMARK                            x       y       z     vdW  Elec       q    Type
REMARK                         _______ _______ _______ _____ _____    ______ ____
ROOT
ATOM      1  C   UNL     1       1.172   9.789  19.094  0.00  0.00    +0.000 A 
ATOM      2  C   UNL     1       1.213   8.914  20.181  0.00  0.00    +0.000 A 
ATOM      3  C   UNL     1       1.851   7.677  20.069  0.00  0.00    +0.000 A 
ATOM      4  C   UNL     1       2.448   7.291  18.872  0.00  0.00    +0.000 A 
ATOM      5  C   UNL     1       2.406   8.169  17.780  0.00  0.00    +0.000 A 
ATOM      6  C   UNL     1       1.772   9.415  17.887  0.00  0.00    +0.000 A 
ENDROOT
BRANCH   1  13
ATOM      7  C   UNL     1       1.160  14.572  19.818  0.00  0.00    +0.000 C 
ATOM      8  C   UNL     1       0.346  13.330  19.594  0.00  0.00    +0.000 A 
ATOM      9  C   UNL     1      -0.991  13.369  19.572  0.00  0.00    +0.000 A 
ATOM     10  C   UNL     1      -1.717  12.110  19.341  0.00  0.00    +0.000 A 
ATOM     11  O   UNL     1      -2.940  12.069  19.302  0.00  0.00    +0.000 OA
ATOM     12  N   UNL     1      -0.935  11.009  19.181  0.00  0.00    +0.000 N 
ATOM     13  C   UNL     1       0.435  11.069  19.248  0.00  0.00    +0.000 A 
ATOM     14  N   UNL     1       1.082  12.179  19.437  0.00  0.00    +0.000 NA
ATOM     15  H   UNL     1      -1.426  10.153  18.978  0.00  0.00    +0.000 HD
ENDBRANCH   1  13
BRANCH   4  16
ATOM     16  N   UNL     1       3.099   6.052  18.689  0.00  0.00    +0.000 N 
ATOM     17  C   UNL     1       2.574   4.896  18.119  0.00  0.00    +0.000 C 
ATOM     18  O   UNL     1       1.442   4.799  17.638  0.00  0.00    +0.000 OA
ATOM     19  H   UNL     1       4.057   6.001  19.011  0.00  0.00    +0.000 HD
BRANCH  17  20
ATOM     20  C   UNL     1       3.571   3.673  18.174  0.00  0.00    +0.000 C 
ATOM     21  C   UNL     1       2.956   2.274  17.752  0.00  0.00    +0.000 C 
ATOM     22  C   UNL     1       3.766   1.638  18.897  0.00  0.00    +0.000 C 
ATOM     23  C   UNL     1       3.721   3.004  19.596  0.00  0.00    +0.000 C 
BRANCH  20  24
ATOM     24  C   UNL     1       4.893   4.048  17.323  0.00  0.00    +0.000 A 
ATOM     25  C   UNL     1       4.884   4.181  15.922  0.00  0.00    +0.000 A 
ATOM     26  C   UNL     1       5.965   4.721  15.222  0.00  0.00    +0.000 A 
ATOM     27  C   UNL     1       7.112   5.110  15.904  0.00  0.00    +0.000 A 
ATOM     28  C   UNL     1       7.197   4.912  17.276  0.00  0.00    +0.000 A 
ATOM     29  C   UNL     1       6.106   4.382  17.969  0.00  0.00    +0.000 A 
ENDBRANCH  20  24
ENDBRANCH  17  20
ENDBRANCH   4  16
TORSDOF 4
ENDMDL
MODEL 9
REMARK VINA RESULT:      -8.7      1.561      3.084
REMARK  Name = 
REMARK  5 active torsions:
REMARK  status: ('A' for Active; 'I' for Inactive)
REMARK    1  A    between atoms: C_1  and  C_2
REMARK    2  A    between atoms: C_7  and  C_8
REMARK    3  A    between atoms: C_11  and  N_12
REMARK    4  A    between atoms: C_13  and  C_15
REMARK    5  A    between atoms: C_15  and  C_16
REMARK                            x       y       z     vdW  Elec       q    Type
REMARK                         _______ _______ _______ _____ _____    ______ ____
ROOT
ATOM      1  C   UNL     1       1.135   9.456  19.657  0.00  0.00    +0.000 A 
ATOM      2  C   UNL     1       1.491   9.505  18.308  0.00  0.00    +0.000 A 
ATOM      3  C   UNL     1       2.199   8.453  17.725  0.00  0.00    +0.000 A 
ATOM      4  C   UNL     1       2.570   7.342  18.478  0.00  0.00    +0.000 A 
ATOM      5  C   UNL     1       2.214   7.293  19.833  0.00  0.00    +0.000 A 
ATOM      6  C   UNL     1       1.498   8.344  20.423  0.00  0.00    +0.000 A 
ENDROOT
BRANCH   1  13
ATOM      7  C   UNL     1      -0.532  13.981  19.274  0.00  0.00    +0.000 C 
ATOM      8  C   UNL     1      -0.379  12.763  20.141  0.00  0.00    +0.000 A 
ATOM      9  C   UNL     1      -0.828  12.746  21.401  0.00  0.00    +0.000 A 
ATOM     10  C   UNL     1      -0.648  11.514  22.184  0.00  0.00    +0.000 A 
ATOM     11  O   UNL     1      -1.037  11.422  23.341  0.00  0.00    +0.000 OA
ATOM     12  N   UNL     1      -0.018  10.499  21.533  0.00  0.00    +0.000 N 
ATOM     13  C   UNL     1       0.431  10.625  20.242  0.00  0.00    +0.000 A 
ATOM     14  N   UNL     1       0.261  11.705  19.541  0.00  0.00    +0.000 NA
ATOM     15  H   UNL     1       0.068   9.638  22.050  0.00  0.00    +0.000 HD
ENDBRANCH   1  13
BRANCH   4  16
ATOM     16  N   UNL     1       3.294   6.251  17.953  0.00  0.00    +0.000 N 
ATOM     17  C   UNL     1       4.588   6.261  17.440  0.00  0.00    +0.000 C 
ATOM     18  O   UNL     1       5.326   7.250  17.409  0.00  0.00    +0.000 OA
ATOM     19  H   UNL     1       2.816   5.359  17.951  0.00  0.00    +0.000 HD
BRANCH  17  20
ATOM     20  C   UNL     1       5.031   4.864  16.852  0.00  0.00    +0.000 C 
ATOM     21  C   UNL     1       6.595   4.607  16.814  0.00  0.00    +0.000 C 
ATOM     22  C   UNL     1       6.393   3.941  15.440  0.00  0.00    +0.000 C 
ATOM     23  C   UNL     1       5.139   4.812  15.279  0.00  0.00    +0.000 C 
BRANCH  20  24
ATOM     24  C   UNL     1       4.233   3.698  17.638  0.00  0.00    +0.000 A 
ATOM     25  C   UNL     1       4.580   3.282  18.937  0.00  0.00    +0.000 A 
ATOM     26  C   UNL     1       3.755   2.442  19.690  0.00  0.00    +0.000 A 
ATOM     27  C   UNL     1       2.570   1.959  19.147  0.00  0.00    +0.000 A 
ATOM     28  C   UNL     1       2.236   2.274  17.836  0.00  0.00    +0.000 A 
ATOM     29  C   UNL     1       3.060   3.123  17.094  0.00  0.00    +0.000 A 
ENDBRANCH  20  24
ENDBRANCH  17  20
ENDBRANCH   4  16
TORSDOF 4
ENDMDL
