MODEL 1
REMARK VINA RESULT:      -8.2      0.000      0.000
REMARK  Name = 
REMARK  6 active torsions:
REMARK  status: ('A' for Active; 'I' for Inactive)
REMARK    1  A    between atoms: C_1  and  N_2
REMARK    2  A    between atoms: C_6  and  C_7
REMARK    3  A    between atoms: C_7  and  C_8
REMARK    4  A    between atoms: C_12  and  N_13
REMARK    5  A    between atoms: C_21  and  C_22
REMARK    6  A    between atoms: C_22  and  C_23
REMARK                            x       y       z     vdW  Elec       q    Type
REMARK                         _______ _______ _______ _____ _____    ______ ____
ROOT
ATOM      1  N   UNL     1      -1.517  12.387  18.804  0.00  0.00    +0.000 N 
ATOM      2  C   UNL     1      -0.143  11.929  18.497  0.00  0.00    +0.000 C 
ATOM      3  C   UNL     1       0.158  11.033  19.668  0.00  0.00    +0.000 A 
ATOM      4  C   UNL     1      -0.597  11.510  20.752  0.00  0.00    +0.000 A 
ATOM      5  C   UNL     1      -0.682  10.849  21.960  0.00  0.00    +0.000 A 
ATOM      6  C   UNL     1       0.006   9.652  22.059  0.00  0.00    +0.000 A 
ATOM      7  F   UNL     1      -0.096   8.927  23.181  0.00  0.00    +0.000 F 
ATOM      8  C   UNL     1       0.743   9.134  20.983  0.00  0.00    +0.000 A 
ATOM      9  C   UNL     1       0.827   9.821  19.753  0.00  0.00    +0.000 A 
ATOM     10  C   UNL     1      -1.563  12.501  20.218  0.00  0.00    +0.000 C 
ATOM     11  O   UNL     1      -2.363  13.106  20.909  0.00  0.00    +0.000 OA
ENDROOT
BRANCH   1  16
ATOM     12  C   UNL     1      -4.829  11.467  17.542  0.00  0.00    +0.000 A 
ATOM     13  C   UNL     1      -4.420  11.051  16.268  0.00  0.00    +0.000 A 
ATOM     14  C   UNL     1      -3.103  10.660  16.035  0.00  0.00    +0.000 A 
ATOM     15  C   UNL     1      -2.157  10.784  17.041  0.00  0.00    +0.000 A 
ATOM     16  C   UNL     1      -2.492  11.469  18.217  0.00  0.00    +0.000 A 
ATOM     17  C   UNL     1      -3.847  11.651  18.533  0.00  0.00    +0.000 A 
BRANCH  12  18
ATOM     18  C   UNL     1      -6.302  11.658  17.824  0.00  0.00    +0.000 C 
BRANCH  18  24
ATOM     19  C   UNL     1      -7.683  13.081  20.274  0.00  0.00    +0.000 C 
ATOM     20  N   UNL     1      -7.440  11.670  20.110  0.00  0.00    +0.000 N 
ATOM     21  C   UNL     1      -7.835  10.697  20.977  0.00  0.00    +0.000 A 
ATOM     22  N   UNL     1      -7.466   9.525  20.522  0.00  0.00    +0.000 NA
ATOM     23  N   UNL     1      -6.829   9.728  19.322  0.00  0.00    +0.000 NA
ATOM     24  C   UNL     1      -6.818  11.023  19.069  0.00  0.00    +0.000 A 
ENDBRANCH  18  24
ENDBRANCH  12  18
ENDBRANCH   1  16
BRANCH   9  25
ATOM     25  C   UNL     1       1.549   9.178  18.590  0.00  0.00    +0.000 C 
ATOM     26  C   UNL     1       2.213   7.882  19.015  0.00  0.00    +0.000 C 
ATOM     27  F   UNL     1       0.709   8.893  17.552  0.00  0.00    +0.000 F 
ATOM     28  F   UNL     1       2.511   9.976  18.043  0.00  0.00    +0.000 F 
ENDBRANCH   9  25
TORSDOF 4
ENDMDL
MODEL 2
REMARK VINA RESULT:      -7.7      4.986      8.520
REMARK  Name = 
REMARK  6 active torsions:
REMARK  status: ('A' for Active; 'I' for Inactive)
REMARK    1  A    between atoms: C_1  and  N_2
REMARK    2  A    between atoms: C_6  and  C_7
REMARK    3  A    between atoms: C_7  and  C_8
REMARK    4  A    between atoms: C_12  and  N_13
REMARK    5  A    between atoms: C_21  and  C_22
REMARK    6  A    between atoms: C_22  and  C_23
REMARK                            x       y       z     vdW  Elec       q    Type
REMARK                         _______ _______ _______ _____ _____    ______ ____
ROOT
ATOM      1  N   UNL     1       3.754   4.751  19.321  0.00  0.00    +0.000 N 
ATOM      2  C   UNL     1       5.149   5.245  19.360  0.00  0.00    +0.000 C 
ATOM      3  C   UNL     1       5.615   4.981  17.954  0.00  0.00    +0.000 A 
ATOM      4  C   UNL     1       4.878   3.883  17.480  0.00  0.00    +0.000 A 
ATOM      5  C   UNL     1       4.939   3.444  16.173  0.00  0.00    +0.000 A 
ATOM      6  C   UNL     1       5.757   4.160  15.318  0.00  0.00    +0.000 A 
ATOM      7  F   UNL     1       5.803   3.828  14.020  0.00  0.00    +0.000 F 
ATOM      8  C   UNL     1       6.481   5.281  15.754  0.00  0.00    +0.000 A 
ATOM      9  C   UNL     1       6.416   5.718  17.095  0.00  0.00    +0.000 A 
ATOM     10  C   UNL     1       3.780   3.635  18.445  0.00  0.00    +0.000 C 
ATOM     11  O   UNL     1       2.962   2.740  18.323  0.00  0.00    +0.000 OA
ENDROOT
BRANCH   1  16
ATOM     12  C   UNL     1       1.778   7.772  19.932  0.00  0.00    +0.000 A 
ATOM     13  C   UNL     1       2.348   8.560  18.923  0.00  0.00    +0.000 A 
ATOM     14  C   UNL     1       2.985   7.969  17.833  0.00  0.00    +0.000 A 
ATOM     15  C   UNL     1       3.155   6.594  17.794  0.00  0.00    +0.000 A 
ATOM     16  C   UNL     1       2.851   5.832  18.931  0.00  0.00    +0.000 A 
ATOM     17  C   UNL     1       2.016   6.385  19.914  0.00  0.00    +0.000 A 
BRANCH  12  18
ATOM     18  C   UNL     1       0.895   8.423  20.972  0.00  0.00    +0.000 C 
BRANCH  18  24
ATOM     19  C   UNL     1      -0.977  10.101  19.071  0.00  0.00    +0.000 C 
ATOM     20  N   UNL     1      -0.072  10.608  20.071  0.00  0.00    +0.000 N 
ATOM     21  C   UNL     1       0.076  11.920  20.406  0.00  0.00    +0.000 A 
ATOM     22  N   UNL     1       0.970  12.033  21.358  0.00  0.00    +0.000 NA
ATOM     23  N   UNL     1       1.408  10.769  21.667  0.00  0.00    +0.000 NA
ATOM     24  C   UNL     1       0.775   9.907  20.894  0.00  0.00    +0.000 A 
ENDBRANCH  18  24
ENDBRANCH  12  18
ENDBRANCH   1  16
BRANCH   9  25
ATOM     25  C   UNL     1       7.132   6.988  17.499  0.00  0.00    +0.000 C 
ATOM     26  C   UNL     1       7.995   6.754  18.725  0.00  0.00    +0.000 C 
ATOM     27  F   UNL     1       7.941   7.465  16.507  0.00  0.00    +0.000 F 
ATOM     28  F   UNL     1       6.287   8.021  17.778  0.00  0.00    +0.000 F 
ENDBRANCH   9  25
TORSDOF 4
ENDMDL
MODEL 3
REMARK VINA RESULT:      -7.6      4.797      7.590
REMARK  Name = 
REMARK  6 active torsions:
REMARK  status: ('A' for Active; 'I' for Inactive)
REMARK    1  A    between atoms: C_1  and  N_2
REMARK    2  A    between atoms: C_6  and  C_7
REMARK    3  A    between atoms: C_7  and  C_8
REMARK    4  A    between atoms: C_12  and  N_13
REMARK    5  A    between atoms: C_21  and  C_22
REMARK    6  A    between atoms: C_22  and  C_23
REMARK                            x       y       z     vdW  Elec       q    Type
REMARK                         _______ _______ _______ _____ _____    ______ ____
ROOT
ATOM      1  N   UNL     1       3.233   6.285  20.103  0.00  0.00    +0.000 N 
ATOM      2  C   UNL     1       4.456   6.054  19.301  0.00  0.00    +0.000 C 
ATOM      3  C   UNL     1       4.104   4.801  18.546  0.00  0.00    +0.000 A 
ATOM      4  C   UNL     1       3.192   4.088  19.340  0.00  0.00    +0.000 A 
ATOM      5  C   UNL     1       2.542   2.951  18.905  0.00  0.00    +0.000 A 
ATOM      6  C   UNL     1       2.812   2.542  17.611  0.00  0.00    +0.000 A 
ATOM      7  F   UNL     1       2.158   1.488  17.106  0.00  0.00    +0.000 F 
ATOM      8  C   UNL     1       3.695   3.252  16.782  0.00  0.00    +0.000 A 
ATOM      9  C   UNL     1       4.359   4.410  17.239  0.00  0.00    +0.000 A 
ATOM     10  C   UNL     1       2.757   4.990  20.435  0.00  0.00    +0.000 C 
ATOM     11  O   UNL     1       1.968   4.666  21.304  0.00  0.00    +0.000 OA
ENDROOT
BRANCH   1  16
ATOM     12  C   UNL     1       1.070   9.204  19.646  0.00  0.00    +0.000 A 
ATOM     13  C   UNL     1       1.652   9.667  18.459  0.00  0.00    +0.000 A 
ATOM     14  C   UNL     1       2.377   8.806  17.638  0.00  0.00    +0.000 A 
ATOM     15  C   UNL     1       2.622   7.504  18.047  0.00  0.00    +0.000 A 
ATOM     16  C   UNL     1       2.297   7.124  19.356  0.00  0.00    +0.000 A 
ATOM     17  C   UNL     1       1.381   7.902  20.081  0.00  0.00    +0.000 A 
BRANCH  12  18
ATOM     18  C   UNL     1       0.099  10.090  20.393  0.00  0.00    +0.000 C 
BRANCH  18  24
ATOM     19  C   UNL     1      -1.107  12.557  18.845  0.00  0.00    +0.000 C 
ATOM     20  N   UNL     1      -0.077  12.580  19.853  0.00  0.00    +0.000 N 
ATOM     21  C   UNL     1       0.508  13.702  20.355  0.00  0.00    +0.000 A 
ATOM     22  N   UNL     1       1.393  13.369  21.263  0.00  0.00    +0.000 NA
ATOM     23  N   UNL     1       1.379  12.000  21.372  0.00  0.00    +0.000 NA
ATOM     24  C   UNL     1       0.487  11.523  20.525  0.00  0.00    +0.000 A 
ENDBRANCH  18  24
ENDBRANCH  12  18
ENDBRANCH   1  16
BRANCH   9  25
ATOM     25  C   UNL     1       5.223   5.200  16.281  0.00  0.00    +0.000 C 
ATOM     26  C   UNL     1       5.459   4.422  15.000  0.00  0.00    +0.000 C 
ATOM     27  F   UNL     1       4.660   6.397  15.941  0.00  0.00    +0.000 F 
ATOM     28  F   UNL     1       6.442   5.528  16.797  0.00  0.00    +0.000 F 
ENDBRANCH   9  25
TORSDOF 4
ENDMDL
MODEL 4
REMARK VINA RESULT:      -7.5      1.755      2.589
REMARK  Name = 
REMARK  6 active torsions:
REMARK  status: ('A' for Active; 'I' for Inactive)
REMARK    1  A    between atoms: C_1  and  N_2
REMARK    2  A    between atoms: C_6  and  C_7
REMARK    3  A    between atoms: C_7  and  C_8
REMARK    4  A    between atoms: C_12  and  N_13
REMARK    5  A    between atoms: C_21  and  C_22
REMARK    6  A    between atoms: C_22  and  C_23
REMARK                            x       y       z     vdW  Elec       q    Type
REMARK                         _______ _______ _______ _____ _____    ______ ____
ROOT
ATOM      1  N   UNL     1      -0.320  11.475  18.401  0.00  0.00    +0.000 N 
ATOM      2  C   UNL     1       0.436  10.699  19.410  0.00  0.00    +0.000 C 
ATOM      3  C   UNL     1      -0.042  11.311  20.699  0.00  0.00    +0.000 A 
ATOM      4  C   UNL     1      -0.398  12.639  20.413  0.00  0.00    +0.000 A 
ATOM      5  C   UNL     1      -1.014  13.467  21.330  0.00  0.00    +0.000 A 
ATOM      6  C   UNL     1      -1.295  12.917  22.568  0.00  0.00    +0.000 A 
ATOM      7  F   UNL     1      -1.956  13.648  23.476  0.00  0.00    +0.000 F 
ATOM      8  C   UNL     1      -0.979  11.584  22.873  0.00  0.00    +0.000 A 
ATOM      9  C   UNL     1      -0.345  10.747  21.930  0.00  0.00    +0.000 A 
ATOM     10  C   UNL     1      -0.418  12.785  18.938  0.00  0.00    +0.000 C 
ATOM     11  O   UNL     1      -0.686  13.826  18.365  0.00  0.00    +0.000 OA
ENDROOT
BRANCH   1  16
ATOM     12  C   UNL     1      -3.906  11.422  17.660  0.00  0.00    +0.000 A 
ATOM     13  C   UNL     1      -3.829  10.669  16.482  0.00  0.00    +0.000 A 
ATOM     14  C   UNL     1      -2.730   9.848  16.231  0.00  0.00    +0.000 A 
ATOM     15  C   UNL     1      -1.651   9.855  17.100  0.00  0.00    +0.000 A 
ATOM     16  C   UNL     1      -1.595  10.817  18.118  0.00  0.00    +0.000 A 
ATOM     17  C   UNL     1      -2.776  11.470  18.499  0.00  0.00    +0.000 A 
BRANCH  12  18
ATOM     18  C   UNL     1      -5.202  12.115  18.016  0.00  0.00    +0.000 C 
BRANCH  18  24
ATOM     19  C   UNL     1      -6.490  13.374  20.603  0.00  0.00    +0.000 C 
ATOM     20  N   UNL     1      -6.621  12.016  20.136  0.00  0.00    +0.000 N 
ATOM     21  C   UNL     1      -7.393  11.056  20.717  0.00  0.00    +0.000 A 
ATOM     22  N   UNL     1      -7.295   9.940  20.035  0.00  0.00    +0.000 NA
ATOM     23  N   UNL     1      -6.456  10.177  18.974  0.00  0.00    +0.000 NA
ATOM     24  C   UNL     1      -6.053  11.431  19.031  0.00  0.00    +0.000 A 
ENDBRANCH  18  24
ENDBRANCH  12  18
ENDBRANCH   1  16
BRANCH   9  25
ATOM     25  C   UNL     1      -0.114   9.291  22.265  0.00  0.00    +0.000 C 
ATOM     26  C   UNL     1       1.366   8.956  22.227  0.00  0.00    +0.000 C 
ATOM     27  F   UNL     1      -0.581   8.963  23.506  0.00  0.00    +0.000 F 
ATOM     28  F   UNL     1      -0.754   8.433  21.420  0.00  0.00    +0.000 F 
ENDBRANCH   9  25
TORSDOF 4
ENDMDL
MODEL 5
REMARK VINA RESULT:      -7.5      5.483      9.009
REMARK  Name = 
REMARK  6 active torsions:
REMARK  status: ('A' for Active; 'I' for Inactive)
REMARK    1  A    between atoms: C_1  and  N_2
REMARK    2  A    between atoms: C_6  and  C_7
REMARK    3  A    between atoms: C_7  and  C_8
REMARK    4  A    between atoms: C_12  and  N_13
REMARK    5  A    between atoms: C_21  and  C_22
REMARK    6  A    between atoms: C_22  and  C_23
REMARK                            x       y       z     vdW  Elec       q    Type
REMARK                         _______ _______ _______ _____ _____    ______ ____
ROOT
ATOM      1  N   UNL     1       3.972   3.089  18.913  0.00  0.00    +0.000 N 
ATOM      2  C   UNL     1       5.438   3.297  18.933  0.00  0.00    +0.000 C 
ATOM      3  C   UNL     1       5.622   4.339  17.863  0.00  0.00    +0.000 A 
ATOM      4  C   UNL     1       4.575   4.168  16.942  0.00  0.00    +0.000 A 
ATOM      5  C   UNL     1       4.341   5.040  15.899  0.00  0.00    +0.000 A 
ATOM      6  C   UNL     1       5.185   6.131  15.804  0.00  0.00    +0.000 A 
ATOM      7  F   UNL     1       4.964   7.052  14.855  0.00  0.00    +0.000 F 
ATOM      8  C   UNL     1       6.221   6.346  16.726  0.00  0.00    +0.000 A 
ATOM      9  C   UNL     1       6.455   5.446  17.788  0.00  0.00    +0.000 A 
ATOM     10  C   UNL     1       3.595   3.237  17.553  0.00  0.00    +0.000 C 
ATOM     11  O   UNL     1       2.570   2.877  17.001  0.00  0.00    +0.000 OA
ENDROOT
BRANCH   1  16
ATOM     12  C   UNL     1       2.241   6.188  19.814  0.00  0.00    +0.000 A 
ATOM     13  C   UNL     1       1.117   5.594  20.402  0.00  0.00    +0.000 A 
ATOM     14  C   UNL     1       1.171   4.287  20.884  0.00  0.00    +0.000 A 
ATOM     15  C   UNL     1       2.312   3.525  20.686  0.00  0.00    +0.000 A 
ATOM     16  C   UNL     1       3.324   4.010  19.846  0.00  0.00    +0.000 A 
ATOM     17  C   UNL     1       3.368   5.382  19.559  0.00  0.00    +0.000 A 
BRANCH  12  18
ATOM     18  C   UNL     1       2.229   7.670  19.517  0.00  0.00    +0.000 C 
BRANCH  18  24
ATOM     19  C   UNL     1       0.231   9.993  18.777  0.00  0.00    +0.000 C 
ATOM     20  N   UNL     1       0.553   9.508  20.096  0.00  0.00    +0.000 N 
ATOM     21  C   UNL     1      -0.014   9.943  21.255  0.00  0.00    +0.000 A 
ATOM     22  N   UNL     1       0.496   9.286  22.268  0.00  0.00    +0.000 NA
ATOM     23  N   UNL     1       1.406   8.390  21.764  0.00  0.00    +0.000 NA
ATOM     24  C   UNL     1       1.437   8.519  20.452  0.00  0.00    +0.000 A 
ENDBRANCH  18  24
ENDBRANCH  12  18
ENDBRANCH   1  16
BRANCH   9  25
ATOM     25  C   UNL     1       7.516   5.768  18.816  0.00  0.00    +0.000 C 
ATOM     26  C   UNL     1       8.118   7.137  18.561  0.00  0.00    +0.000 C 
ATOM     27  F   UNL     1       7.023   5.762  20.090  0.00  0.00    +0.000 F 
ATOM     28  F   UNL     1       8.538   4.865  18.840  0.00  0.00    +0.000 F 
ENDBRANCH   9  25
TORSDOF 4
ENDMDL
MODEL 6
REMARK VINA RESULT:      -7.5      3.955      7.271
REMARK  Name = 
REMARK  6 active torsions:
REMARK  status: ('A' for Active; 'I' for Inactive)
REMARK    1  A    between atoms: C_1  and  N_2
REMARK    2  A    between atoms: C_6  and  C_7
REMARK    3  A    between atoms: C_7  and  C_8
REMARK    4  A    between atoms: C_12  and  N_13
REMARK    5  A    between atoms: C_21  and  C_22
REMARK    6  A    between atoms: C_22  and  C_23
REMARK                            x       y       z     vdW  Elec       q    Type
REMARK                         _______ _______ _______ _____ _____    ______ ____
ROOT
ATOM      1  N   UNL     1       0.105   9.175  20.917  0.00  0.00    +0.000 N 
ATOM      2  C   UNL     1      -1.105   9.071  20.071  0.00  0.00    +0.000 C 
ATOM      3  C   UNL     1      -1.262  10.483  19.573  0.00  0.00    +0.000 A 
ATOM      4  C   UNL     1      -0.704  11.324  20.550  0.00  0.00    +0.000 A 
ATOM      5  C   UNL     1      -0.543  12.683  20.370  0.00  0.00    +0.000 A 
ATOM      6  C   UNL     1      -0.941  13.196  19.148  0.00  0.00    +0.000 A 
ATOM      7  F   UNL     1      -0.743  14.495  18.886  0.00  0.00    +0.000 F 
ATOM      8  C   UNL     1      -1.472  12.376  18.141  0.00  0.00    +0.000 A 
ATOM      9  C   UNL     1      -1.637  10.988  18.337  0.00  0.00    +0.000 A 
ATOM     10  C   UNL     1       0.038  10.465  21.504  0.00  0.00    +0.000 C 
ATOM     11  O   UNL     1       0.632  10.893  22.478  0.00  0.00    +0.000 OA
ENDROOT
BRANCH   1  16
ATOM     12  C   UNL     1       2.466   7.017  19.136  0.00  0.00    +0.000 A 
ATOM     13  C   UNL     1       2.385   7.659  17.893  0.00  0.00    +0.000 A 
ATOM     14  C   UNL     1       1.954   8.982  17.801  0.00  0.00    +0.000 A 
ATOM     15  C   UNL     1       1.496   9.638  18.933  0.00  0.00    +0.000 A 
ATOM     16  C   UNL     1       1.299   8.912  20.116  0.00  0.00    +0.000 A 
ATOM     17  C   UNL     1       1.937   7.671  20.264  0.00  0.00    +0.000 A 
BRANCH  12  18
ATOM     18  C   UNL     1       3.155   5.674  19.234  0.00  0.00    +0.000 C 
BRANCH  18  24
ATOM     19  C   UNL     1       2.083   3.748  21.487  0.00  0.00    +0.000 C 
ATOM     20  N   UNL     1       1.812   3.672  20.074  0.00  0.00    +0.000 N 
ATOM     21  C   UNL     1       0.978   2.773  19.480  0.00  0.00    +0.000 A 
ATOM     22  N   UNL     1       0.948   2.988  18.187  0.00  0.00    +0.000 NA
ATOM     23  N   UNL     1       1.766   4.060  17.926  0.00  0.00    +0.000 NA
ATOM     24  C   UNL     1       2.284   4.477  19.066  0.00  0.00    +0.000 A 
ENDBRANCH  18  24
ENDBRANCH  12  18
ENDBRANCH   1  16
BRANCH   9  25
ATOM     25  C   UNL     1      -2.120  10.127  17.191  0.00  0.00    +0.000 C 
ATOM     26  C   UNL     1      -2.582  10.985  16.028  0.00  0.00    +0.000 C 
ATOM     27  F   UNL     1      -1.147   9.288  16.726  0.00  0.00    +0.000 F 
ATOM     28  F   UNL     1      -3.150   9.301  17.531  0.00  0.00    +0.000 F 
ENDBRANCH   9  25
TORSDOF 4
ENDMDL
MODEL 7
REMARK VINA RESULT:      -7.5      1.632      2.138
REMARK  Name = 
REMARK  6 active torsions:
REMARK  status: ('A' for Active; 'I' for Inactive)
REMARK    1  A    between atoms: C_1  and  N_2
REMARK    2  A    between atoms: C_6  and  C_7
REMARK    3  A    between atoms: C_7  and  C_8
REMARK    4  A    between atoms: C_12  and  N_13
REMARK    5  A    between atoms: C_21  and  C_22
REMARK    6  A    between atoms: C_22  and  C_23
REMARK                            x       y       z     vdW  Elec       q    Type
REMARK                         _______ _______ _______ _____ _____    ______ ____
ROOT
ATOM      1  N   UNL     1      -1.498  12.467  18.969  0.00  0.00    +0.000 N 
ATOM      2  C   UNL     1      -0.140  12.016  18.591  0.00  0.00    +0.000 C 
ATOM      3  C   UNL     1       0.211  11.092  19.726  0.00  0.00    +0.000 A 
ATOM      4  C   UNL     1      -0.494  11.544  20.853  0.00  0.00    +0.000 A 
ATOM      5  C   UNL     1      -0.526  10.854  22.048  0.00  0.00    +0.000 A 
ATOM      6  C   UNL     1       0.164   9.655  22.088  0.00  0.00    +0.000 A 
ATOM      7  F   UNL     1       0.111   8.904  23.196  0.00  0.00    +0.000 F 
ATOM      8  C   UNL     1       0.852   9.162  20.968  0.00  0.00    +0.000 A 
ATOM      9  C   UNL     1       0.882   9.878  19.752  0.00  0.00    +0.000 A 
ATOM     10  C   UNL     1      -1.481  12.547  20.386  0.00  0.00    +0.000 C 
ATOM     11  O   UNL     1      -2.248  13.136  21.126  0.00  0.00    +0.000 OA
ENDROOT
BRANCH   1  16
ATOM     12  C   UNL     1      -4.761  11.665  17.513  0.00  0.00    +0.000 A 
ATOM     13  C   UNL     1      -4.285  11.059  16.343  0.00  0.00    +0.000 A 
ATOM     14  C   UNL     1      -2.993  10.536  16.285  0.00  0.00    +0.000 A 
ATOM     15  C   UNL     1      -2.130  10.710  17.356  0.00  0.00    +0.000 A 
ATOM     16  C   UNL     1      -2.500  11.564  18.405  0.00  0.00    +0.000 A 
ATOM     17  C   UNL     1      -3.854  11.893  18.566  0.00  0.00    +0.000 A 
BRANCH  12  18
ATOM     18  C   UNL     1      -6.228  12.008  17.627  0.00  0.00    +0.000 C 
BRANCH  18  24
ATOM     19  C   UNL     1      -6.615  13.884  20.131  0.00  0.00    +0.000 C 
ATOM     20  N   UNL     1      -6.700  14.257  18.741  0.00  0.00    +0.000 N 
ATOM     21  C   UNL     1      -6.901  15.521  18.277  0.00  0.00    +0.000 A 
ATOM     22  N   UNL     1      -6.912  15.513  16.966  0.00  0.00    +0.000 NA
ATOM     23  N   UNL     1      -6.697  14.218  16.559  0.00  0.00    +0.000 NA
ATOM     24  C   UNL     1      -6.563  13.460  17.631  0.00  0.00    +0.000 A 
ENDBRANCH  18  24
ENDBRANCH  12  18
ENDBRANCH   1  16
BRANCH   9  25
ATOM     25  C   UNL     1       1.551   9.263  18.543  0.00  0.00    +0.000 C 
ATOM     26  C   UNL     1       2.215   7.947  18.904  0.00  0.00    +0.000 C 
ATOM     27  F   UNL     1       0.668   9.018  17.531  0.00  0.00    +0.000 F 
ATOM     28  F   UNL     1       2.500  10.066  17.983  0.00  0.00    +0.000 F 
ENDBRANCH   9  25
TORSDOF 4
ENDMDL
MODEL 8
REMARK VINA RESULT:      -7.4      5.136      8.544
REMARK  Name = 
REMARK  6 active torsions:
REMARK  status: ('A' for Active; 'I' for Inactive)
REMARK    1  A    between atoms: C_1  and  N_2
REMARK    2  A    between atoms: C_6  and  C_7
REMARK    3  A    between atoms: C_7  and  C_8
REMARK    4  A    between atoms: C_12  and  N_13
REMARK    5  A    between atoms: C_21  and  C_22
REMARK    6  A    between atoms: C_22  and  C_23
REMARK                            x       y       z     vdW  Elec       q    Type
REMARK                         _______ _______ _______ _____ _____    ______ ____
ROOT
ATOM      1  N   UNL     1       3.669   4.340  19.080  0.00  0.00    +0.000 N 
ATOM      2  C   UNL     1       5.068   4.811  19.199  0.00  0.00    +0.000 C 
ATOM      3  C   UNL     1       5.546   4.737  17.774  0.00  0.00    +0.000 A 
ATOM      4  C   UNL     1       4.805   3.722  17.147  0.00  0.00    +0.000 A 
ATOM      5  C   UNL     1       4.875   3.465  15.793  0.00  0.00    +0.000 A 
ATOM      6  C   UNL     1       5.708   4.283  15.052  0.00  0.00    +0.000 A 
ATOM      7  F   UNL     1       5.764   4.131  13.721  0.00  0.00    +0.000 F 
ATOM      8  C   UNL     1       6.437   5.326  15.644  0.00  0.00    +0.000 A 
ATOM      9  C   UNL     1       6.362   5.577  17.031  0.00  0.00    +0.000 A 
ATOM     10  C   UNL     1       3.695   3.354  18.060  0.00  0.00    +0.000 C 
ATOM     11  O   UNL     1       2.871   2.493  17.809  0.00  0.00    +0.000 OA
ENDROOT
BRANCH   1  16
ATOM     12  C   UNL     1       2.031   7.493  19.964  0.00  0.00    +0.000 A 
ATOM     13  C   UNL     1       2.455   8.228  18.849  0.00  0.00    +0.000 A 
ATOM     14  C   UNL     1       2.844   7.583  17.676  0.00  0.00    +0.000 A 
ATOM     15  C   UNL     1       2.918   6.199  17.642  0.00  0.00    +0.000 A 
ATOM     16  C   UNL     1       2.779   5.474  18.834  0.00  0.00    +0.000 A 
ATOM     17  C   UNL     1       2.174   6.093  19.937  0.00  0.00    +0.000 A 
BRANCH  12  18
ATOM     18  C   UNL     1       1.395   8.215  21.131  0.00  0.00    +0.000 C 
BRANCH  18  24
ATOM     19  C   UNL     1      -0.426   9.873  23.098  0.00  0.00    +0.000 C 
ATOM     20  N   UNL     1      -0.303  10.044  21.672  0.00  0.00    +0.000 N 
ATOM     21  C   UNL     1      -0.919  11.012  20.939  0.00  0.00    +0.000 A 
ATOM     22  N   UNL     1      -0.582  10.891  19.677  0.00  0.00    +0.000 NA
ATOM     23  N   UNL     1       0.285   9.831  19.581  0.00  0.00    +0.000 NA
ATOM     24  C   UNL     1       0.459   9.322  20.786  0.00  0.00    +0.000 A 
ENDBRANCH  18  24
ENDBRANCH  12  18
ENDBRANCH   1  16
BRANCH   9  25
ATOM     25  C   UNL     1       7.085   6.772  17.611  0.00  0.00    +0.000 C 
ATOM     26  C   UNL     1       7.886   6.376  18.837  0.00  0.00    +0.000 C 
ATOM     27  F   UNL     1       7.949   7.340  16.718  0.00  0.00    +0.000 F 
ATOM     28  F   UNL     1       6.249   7.787  17.972  0.00  0.00    +0.000 F 
ENDBRANCH   9  25
TORSDOF 4
ENDMDL
MODEL 9
REMARK VINA RESULT:      -7.4      5.358      8.750
REMARK  Name = 
REMARK  6 active torsions:
REMARK  status: ('A' for Active; 'I' for Inactive)
REMARK    1  A    between atoms: C_1  and  N_2
REMARK    2  A    between atoms: C_6  and  C_7
REMARK    3  A    between atoms: C_7  and  C_8
REMARK    4  A    between atoms: C_12  and  N_13
REMARK    5  A    between atoms: C_21  and  C_22
REMARK    6  A    between atoms: C_22  and  C_23
REMARK                            x       y       z     vdW  Elec       q    Type
REMARK                         _______ _______ _______ _____ _____    ______ ____
ROOT
ATOM      1  N   UNL     1       3.109   3.844  18.998  0.00  0.00    +0.000 N 
ATOM      2  C   UNL     1       4.508   4.017  19.452  0.00  0.00    +0.000 C 
ATOM      3  C   UNL     1       5.260   4.049  18.149  0.00  0.00    +0.000 A 
ATOM      4  C   UNL     1       4.516   3.290  17.230  0.00  0.00    +0.000 A 
ATOM      5  C   UNL     1       4.830   3.213  15.889  0.00  0.00    +0.000 A 
ATOM      6  C   UNL     1       5.922   3.950  15.467  0.00  0.00    +0.000 A 
ATOM      7  F   UNL     1       6.234   3.974  14.164  0.00  0.00    +0.000 F 
ATOM      8  C   UNL     1       6.666   4.742  16.355  0.00  0.00    +0.000 A 
ATOM      9  C   UNL     1       6.339   4.810  17.726  0.00  0.00    +0.000 A 
ATOM     10  C   UNL     1       3.193   3.022  17.844  0.00  0.00    +0.000 C 
ATOM     11  O   UNL     1       2.313   2.377  17.301  0.00  0.00    +0.000 OA
ENDROOT
BRANCH   1  16
ATOM     12  C   UNL     1       2.096   7.209  20.028  0.00  0.00    +0.000 A 
ATOM     13  C   UNL     1       2.729   7.906  18.991  0.00  0.00    +0.000 A 
ATOM     14  C   UNL     1       3.050   7.267  17.794  0.00  0.00    +0.000 A 
ATOM     15  C   UNL     1       2.843   5.902  17.663  0.00  0.00    +0.000 A 
ATOM     16  C   UNL     1       2.486   5.151  18.791  0.00  0.00    +0.000 A 
ATOM     17  C   UNL     1       1.953   5.814  19.907  0.00  0.00    +0.000 A 
BRANCH  12  18
ATOM     18  C   UNL     1       1.549   7.974  21.212  0.00  0.00    +0.000 C 
BRANCH  18  24
ATOM     19  C   UNL     1      -0.184   9.671  23.224  0.00  0.00    +0.000 C 
ATOM     20  N   UNL     1      -0.074   9.855  21.799  0.00  0.00    +0.000 N 
ATOM     21  C   UNL     1      -0.665  10.855  21.087  0.00  0.00    +0.000 A 
ATOM     22  N   UNL     1      -0.350  10.738  19.819  0.00  0.00    +0.000 NA
ATOM     23  N   UNL     1       0.477   9.648  19.698  0.00  0.00    +0.000 NA
ATOM     24  C   UNL     1       0.649   9.118  20.893  0.00  0.00    +0.000 A 
ENDBRANCH  18  24
ENDBRANCH  12  18
ENDBRANCH   1  16
BRANCH   9  25
ATOM     25  C   UNL     1       7.105   5.753  18.628  0.00  0.00    +0.000 C 
ATOM     26  C   UNL     1       7.448   7.038  17.899  0.00  0.00    +0.000 C 
ATOM     27  F   UNL     1       6.399   6.087  19.748  0.00  0.00    +0.000 F 
ATOM     28  F   UNL     1       8.268   5.222  19.102  0.00  0.00    +0.000 F 
ENDBRANCH   9  25
TORSDOF 4
ENDMDL
