MODEL 1
REMARK VINA RESULT:      -8.6      0.000      0.000
REMARK  Name = 
REMARK  4 active torsions:
REMARK  status: ('A' for Active; 'I' for Inactive)
REMARK    1  A    between atoms: C_1  and  C_2
REMARK    2  A    between atoms: C_5  and  C_6
REMARK    3  A    between atoms: C_12  and  C_13
REMARK    4  A    between atoms: C_19  and  N_20
REMARK                            x       y       z     vdW  Elec       q    Type
REMARK                         _______ _______ _______ _____ _____    ______ ____
ROOT
ATOM      1  C   UNL     1       2.140   5.353  20.313  0.00  0.00    +0.000 C 
ATOM      2  O   UNL     1       0.954   5.236  20.627  0.00  0.00    +0.000 OA
ATOM      3  N   UNL     1       2.741   6.572  20.060  0.00  0.00    +0.000 N 
ATOM      4  C   UNL     1       1.975   7.746  20.059  0.00  0.00    +0.000 A 
ATOM      5  C   UNL     1       1.210   8.109  21.162  0.00  0.00    +0.000 A 
ATOM      6  C   UNL     1       0.467   9.296  21.119  0.00  0.00    +0.000 A 
ATOM      7  C   UNL     1       0.474  10.089  19.975  0.00  0.00    +0.000 A 
ATOM      8  C   UNL     1       1.274   9.616  18.925  0.00  0.00    +0.000 A 
ATOM      9  N   UNL     1       2.058   8.503  18.953  0.00  0.00    +0.000 NA
ATOM     10  H   UNL     1       3.469   6.572  19.357  0.00  0.00    +0.000 HD
ENDROOT
BRANCH   1  16
ATOM     11  C   UNL     1       1.948   2.315  21.679  0.00  0.00    +0.000 C 
ATOM     12  C   UNL     1       2.889   2.866  20.675  0.00  0.00    +0.000 A 
ATOM     13  N   UNL     1       3.813   2.052  20.148  0.00  0.00    +0.000 NA
ATOM     14  O   UNL     1       4.522   2.816  19.263  0.00  0.00    +0.000 OA
ATOM     15  C   UNL     1       4.048   4.093  19.255  0.00  0.00    +0.000 A 
ATOM     16  C   UNL     1       2.970   4.179  20.124  0.00  0.00    +0.000 A 
BRANCH  15  17
ATOM     17  C   UNL     1       4.804   5.021  18.409  0.00  0.00    +0.000 A 
ATOM     18  C   UNL     1       4.286   5.465  17.182  0.00  0.00    +0.000 A 
ATOM     19  C   UNL     1       5.033   6.310  16.354  0.00  0.00    +0.000 A 
ATOM     20  C   UNL     1       6.300   6.726  16.748  0.00  0.00    +0.000 A 
ATOM     21  C   UNL     1       6.830   6.300  17.960  0.00  0.00    +0.000 A 
ATOM     22  C   UNL     1       6.086   5.448  18.784  0.00  0.00    +0.000 A 
ENDBRANCH  15  17
ENDBRANCH   1  16
BRANCH   7  23
ATOM     23  N   UNL     1      -0.253  11.271  19.843  0.00  0.00    +0.000 N 
ATOM     24  C   UNL     1      -1.147  11.695  20.929  0.00  0.00    +0.000 C 
ATOM     25  C   UNL     1      -2.190  12.653  20.346  0.00  0.00    +0.000 C 
ATOM     26  C   UNL     1      -1.540  13.825  19.607  0.00  0.00    +0.000 C 
ATOM     27  C   UNL     1      -0.486  13.352  18.604  0.00  0.00    +0.000 C 
ATOM     28  C   UNL     1       0.506  12.386  19.254  0.00  0.00    +0.000 C 
ENDBRANCH   7  23
TORSDOF 3
ENDMDL
MODEL 2
REMARK VINA RESULT:      -8.6      2.043      3.964
REMARK  Name = 
REMARK  4 active torsions:
REMARK  status: ('A' for Active; 'I' for Inactive)
REMARK    1  A    between atoms: C_1  and  C_2
REMARK    2  A    between atoms: C_5  and  C_6
REMARK    3  A    between atoms: C_12  and  C_13
REMARK    4  A    between atoms: C_19  and  N_20
REMARK                            x       y       z     vdW  Elec       q    Type
REMARK                         _______ _______ _______ _____ _____    ______ ____
ROOT
ATOM      1  C   UNL     1       3.686   6.495  17.622  0.00  0.00    +0.000 C 
ATOM      2  O   UNL     1       4.389   7.493  17.454  0.00  0.00    +0.000 OA
ATOM      3  N   UNL     1       2.456   6.531  18.253  0.00  0.00    +0.000 N 
ATOM      4  C   UNL     1       1.997   7.725  18.827  0.00  0.00    +0.000 A 
ATOM      5  C   UNL     1       1.886   8.891  18.077  0.00  0.00    +0.000 A 
ATOM      6  C   UNL     1       1.414  10.058  18.691  0.00  0.00    +0.000 A 
ATOM      7  C   UNL     1       1.083  10.056  20.044  0.00  0.00    +0.000 A 
ATOM      8  C   UNL     1       1.244   8.826  20.697  0.00  0.00    +0.000 A 
ATOM      9  N   UNL     1       1.640   7.658  20.120  0.00  0.00    +0.000 NA
ATOM     10  H   UNL     1       2.207   5.710  18.790  0.00  0.00    +0.000 HD
ENDROOT
BRANCH   1  16
ATOM     11  C   UNL     1       5.743   5.603  15.152  0.00  0.00    +0.000 C 
ATOM     12  C   UNL     1       5.054   4.786  16.178  0.00  0.00    +0.000 A 
ATOM     13  N   UNL     1       5.288   3.468  16.212  0.00  0.00    +0.000 NA
ATOM     14  O   UNL     1       4.539   2.982  17.246  0.00  0.00    +0.000 OA
ATOM     15  C   UNL     1       3.838   3.990  17.837  0.00  0.00    +0.000 A 
ATOM     16  C   UNL     1       4.156   5.186  17.211  0.00  0.00    +0.000 A 
BRANCH  15  17
ATOM     17  C   UNL     1       2.924   3.559  18.898  0.00  0.00    +0.000 A 
ATOM     18  C   UNL     1       1.614   3.150  18.600  0.00  0.00    +0.000 A 
ATOM     19  C   UNL     1       0.729   2.788  19.621  0.00  0.00    +0.000 A 
ATOM     20  C   UNL     1       1.145   2.823  20.948  0.00  0.00    +0.000 A 
ATOM     21  C   UNL     1       2.438   3.223  21.264  0.00  0.00    +0.000 A 
ATOM     22  C   UNL     1       3.321   3.592  20.242  0.00  0.00    +0.000 A 
ENDBRANCH  15  17
ENDBRANCH   1  16
BRANCH   7  23
ATOM     23  N   UNL     1       0.627  11.178  20.735  0.00  0.00    +0.000 N 
ATOM     24  C   UNL     1       0.846  12.515  20.166  0.00  0.00    +0.000 C 
ATOM     25  C   UNL     1       0.769  13.538  21.303  0.00  0.00    +0.000 C 
ATOM     26  C   UNL     1      -0.538  13.423  22.090  0.00  0.00    +0.000 C 
ATOM     27  C   UNL     1      -0.820  11.981  22.517  0.00  0.00    +0.000 C 
ATOM     28  C   UNL     1      -0.707  11.018  21.335  0.00  0.00    +0.000 C 
ENDBRANCH   7  23
TORSDOF 3
ENDMDL
MODEL 3
REMARK VINA RESULT:      -8.6      1.505      1.662
REMARK  Name = 
REMARK  4 active torsions:
REMARK  status: ('A' for Active; 'I' for Inactive)
REMARK    1  A    between atoms: C_1  and  C_2
REMARK    2  A    between atoms: C_5  and  C_6
REMARK    3  A    between atoms: C_12  and  C_13
REMARK    4  A    between atoms: C_19  and  N_20
REMARK                            x       y       z     vdW  Elec       q    Type
REMARK                         _______ _______ _______ _____ _____    ______ ____
ROOT
ATOM      1  C   UNL     1       2.158   5.342  19.603  0.00  0.00    +0.000 C 
ATOM      2  O   UNL     1       1.358   5.108  20.511  0.00  0.00    +0.000 OA
ATOM      3  N   UNL     1       2.526   6.621  19.228  0.00  0.00    +0.000 N 
ATOM      4  C   UNL     1       1.909   7.731  19.821  0.00  0.00    +0.000 A 
ATOM      5  C   UNL     1       1.908   7.906  21.201  0.00  0.00    +0.000 A 
ATOM      6  C   UNL     1       1.287   9.036  21.748  0.00  0.00    +0.000 A 
ATOM      7  C   UNL     1       0.654   9.960  20.920  0.00  0.00    +0.000 A 
ATOM      8  C   UNL     1       0.713   9.674  19.550  0.00  0.00    +0.000 A 
ATOM      9  N   UNL     1       1.360   8.621  18.977  0.00  0.00    +0.000 NA
ATOM     10  H   UNL     1       2.728   6.757  18.245  0.00  0.00    +0.000 HD
ENDROOT
BRANCH   1  16
ATOM     11  C   UNL     1       0.875   2.383  18.755  0.00  0.00    +0.000 C 
ATOM     12  C   UNL     1       2.180   3.001  18.423  0.00  0.00    +0.000 A 
ATOM     13  N   UNL     1       3.015   2.340  17.610  0.00  0.00    +0.000 NA
ATOM     14  O   UNL     1       4.116   3.138  17.477  0.00  0.00    +0.000 OA
ATOM     15  C   UNL     1       3.968   4.276  18.212  0.00  0.00    +0.000 A 
ATOM     16  C   UNL     1       2.721   4.259  18.820  0.00  0.00    +0.000 A 
BRANCH  15  17
ATOM     17  C   UNL     1       5.137   5.159  18.216  0.00  0.00    +0.000 A 
ATOM     18  C   UNL     1       5.296   6.151  17.235  0.00  0.00    +0.000 A 
ATOM     19  C   UNL     1       6.439   6.958  17.214  0.00  0.00    +0.000 A 
ATOM     20  C   UNL     1       7.430   6.787  18.174  0.00  0.00    +0.000 A 
ATOM     21  C   UNL     1       7.290   5.811  19.155  0.00  0.00    +0.000 A 
ATOM     22  C   UNL     1       6.151   5.000  19.172  0.00  0.00    +0.000 A 
ENDBRANCH  15  17
ENDBRANCH   1  16
BRANCH   7  23
ATOM     23  N   UNL     1      -0.005  11.098  21.385  0.00  0.00    +0.000 N 
ATOM     24  C   UNL     1      -0.655  11.068  22.703  0.00  0.00    +0.000 C 
ATOM     25  C   UNL     1      -1.721  12.167  22.737  0.00  0.00    +0.000 C 
ATOM     26  C   UNL     1      -1.142  13.537  22.380  0.00  0.00    +0.000 C 
ATOM     27  C   UNL     1      -0.322  13.491  21.088  0.00  0.00    +0.000 C 
ATOM     28  C   UNL     1       0.705  12.359  21.122  0.00  0.00    +0.000 C 
ENDBRANCH   7  23
TORSDOF 3
ENDMDL
MODEL 4
REMARK VINA RESULT:      -8.5      1.295      1.699
REMARK  Name = 
REMARK  4 active torsions:
REMARK  status: ('A' for Active; 'I' for Inactive)
REMARK    1  A    between atoms: C_1  and  C_2
REMARK    2  A    between atoms: C_5  and  C_6
REMARK    3  A    between atoms: C_12  and  C_13
REMARK    4  A    between atoms: C_19  and  N_20
REMARK                            x       y       z     vdW  Elec       q    Type
REMARK                         _______ _______ _______ _____ _____    ______ ____
ROOT
ATOM      1  C   UNL     1       2.213   5.264  19.426  0.00  0.00    +0.000 C 
ATOM      2  O   UNL     1       1.262   5.061  20.182  0.00  0.00    +0.000 OA
ATOM      3  N   UNL     1       2.683   6.528  19.121  0.00  0.00    +0.000 N 
ATOM      4  C   UNL     1       2.011   7.661  19.601  0.00  0.00    +0.000 A 
ATOM      5  C   UNL     1       1.779   7.842  20.960  0.00  0.00    +0.000 A 
ATOM      6  C   UNL     1       1.112   8.994  21.394  0.00  0.00    +0.000 A 
ATOM      7  C   UNL     1       0.662   9.935  20.471  0.00  0.00    +0.000 A 
ATOM      8  C   UNL     1       0.946   9.641  19.130  0.00  0.00    +0.000 A 
ATOM      9  N   UNL     1       1.646   8.564  18.676  0.00  0.00    +0.000 NA
ATOM     10  H   UNL     1       3.055   6.652  18.188  0.00  0.00    +0.000 HD
ENDROOT
BRANCH   1  16
ATOM     11  C   UNL     1       1.128   2.180  18.762  0.00  0.00    +0.000 C 
ATOM     12  C   UNL     1       2.410   2.845  18.431  0.00  0.00    +0.000 A 
ATOM     13  N   UNL     1       3.312   2.174  17.704  0.00  0.00    +0.000 NA
ATOM     14  O   UNL     1       4.373   3.022  17.550  0.00  0.00    +0.000 OA
ATOM     15  C   UNL     1       4.133   4.201  18.188  0.00  0.00    +0.000 A 
ATOM     16  C   UNL     1       2.865   4.159  18.750  0.00  0.00    +0.000 A 
BRANCH  15  17
ATOM     17  C   UNL     1       5.252   5.147  18.168  0.00  0.00    +0.000 A 
ATOM     18  C   UNL     1       5.338   6.142  17.180  0.00  0.00    +0.000 A 
ATOM     19  C   UNL     1       6.434   7.010  17.134  0.00  0.00    +0.000 A 
ATOM     20  C   UNL     1       7.450   6.899  18.077  0.00  0.00    +0.000 A 
ATOM     21  C   UNL     1       7.383   5.922  19.064  0.00  0.00    +0.000 A 
ATOM     22  C   UNL     1       6.290   5.049  19.105  0.00  0.00    +0.000 A 
ENDBRANCH  15  17
ENDBRANCH   1  16
BRANCH   7  23
ATOM     23  N   UNL     1      -0.028  11.096  20.817  0.00  0.00    +0.000 N 
ATOM     24  C   UNL     1      -0.853  11.774  19.808  0.00  0.00    +0.000 C 
ATOM     25  C   UNL     1      -1.036  13.233  20.238  0.00  0.00    +0.000 C 
ATOM     26  C   UNL     1      -1.601  13.345  21.656  0.00  0.00    +0.000 C 
ATOM     27  C   UNL     1      -0.818  12.485  22.651  0.00  0.00    +0.000 C 
ATOM     28  C   UNL     1      -0.661  11.051  22.144  0.00  0.00    +0.000 C 
ENDBRANCH   7  23
TORSDOF 3
ENDMDL
MODEL 5
REMARK VINA RESULT:      -8.5      2.049      3.960
REMARK  Name = 
REMARK  4 active torsions:
REMARK  status: ('A' for Active; 'I' for Inactive)
REMARK    1  A    between atoms: C_1  and  C_2
REMARK    2  A    between atoms: C_5  and  C_6
REMARK    3  A    between atoms: C_12  and  C_13
REMARK    4  A    between atoms: C_19  and  N_20
REMARK                            x       y       z     vdW  Elec       q    Type
REMARK                         _______ _______ _______ _____ _____    ______ ____
ROOT
ATOM      1  C   UNL     1       3.656   6.665  17.645  0.00  0.00    +0.000 C 
ATOM      2  O   UNL     1       4.378   7.655  17.519  0.00  0.00    +0.000 OA
ATOM      3  N   UNL     1       2.400   6.711  18.222  0.00  0.00    +0.000 N 
ATOM      4  C   UNL     1       1.931   7.905  18.788  0.00  0.00    +0.000 A 
ATOM      5  C   UNL     1       1.868   9.080  18.047  0.00  0.00    +0.000 A 
ATOM      6  C   UNL     1       1.384  10.247  18.652  0.00  0.00    +0.000 A 
ATOM      7  C   UNL     1       0.996  10.235  19.989  0.00  0.00    +0.000 A 
ATOM      8  C   UNL     1       1.112   8.997  20.635  0.00  0.00    +0.000 A 
ATOM      9  N   UNL     1       1.518   7.829  20.064  0.00  0.00    +0.000 NA
ATOM     10  H   UNL     1       2.117   5.888  18.739  0.00  0.00    +0.000 HD
ENDROOT
BRANCH   1  16
ATOM     11  C   UNL     1       5.731   5.764  15.194  0.00  0.00    +0.000 C 
ATOM     12  C   UNL     1       5.032   4.950  16.217  0.00  0.00    +0.000 A 
ATOM     13  N   UNL     1       5.264   3.631  16.255  0.00  0.00    +0.000 NA
ATOM     14  O   UNL     1       4.504   3.150  17.284  0.00  0.00    +0.000 OA
ATOM     15  C   UNL     1       3.801   4.160  17.867  0.00  0.00    +0.000 A 
ATOM     16  C   UNL     1       4.126   5.354  17.240  0.00  0.00    +0.000 A 
BRANCH  15  17
ATOM     17  C   UNL     1       2.877   3.733  18.922  0.00  0.00    +0.000 A 
ATOM     18  C   UNL     1       3.236   3.828  20.276  0.00  0.00    +0.000 A 
ATOM     19  C   UNL     1       2.371   3.372  21.277  0.00  0.00    +0.000 A 
ATOM     20  C   UNL     1       1.138   2.826  20.937  0.00  0.00    +0.000 A 
ATOM     21  C   UNL     1       0.764   2.726  19.602  0.00  0.00    +0.000 A 
ATOM     22  C   UNL     1       1.632   3.175  18.600  0.00  0.00    +0.000 A 
ENDBRANCH  15  17
ENDBRANCH   1  16
BRANCH   7  23
ATOM     23  N   UNL     1       0.524  11.356  20.672  0.00  0.00    +0.000 N 
ATOM     24  C   UNL     1      -0.113  11.187  21.985  0.00  0.00    +0.000 C 
ATOM     25  C   UNL     1      -0.997  12.409  22.251  0.00  0.00    +0.000 C 
ATOM     26  C   UNL     1      -0.216  13.719  22.123  0.00  0.00    +0.000 C 
ATOM     27  C   UNL     1       0.576  13.784  20.815  0.00  0.00    +0.000 C 
ATOM     28  C   UNL     1       1.417  12.523  20.611  0.00  0.00    +0.000 C 
ENDBRANCH   7  23
TORSDOF 3
ENDMDL
MODEL 6
REMARK VINA RESULT:      -8.4      0.675      1.267
REMARK  Name = 
REMARK  4 active torsions:
REMARK  status: ('A' for Active; 'I' for Inactive)
REMARK    1  A    between atoms: C_1  and  C_2
REMARK    2  A    between atoms: C_5  and  C_6
REMARK    3  A    between atoms: C_12  and  C_13
REMARK    4  A    between atoms: C_19  and  N_20
REMARK                            x       y       z     vdW  Elec       q    Type
REMARK                         _______ _______ _______ _____ _____    ______ ____
ROOT
ATOM      1  C   UNL     1       2.305   5.183  20.320  0.00  0.00    +0.000 C 
ATOM      2  O   UNL     1       1.117   4.995  20.586  0.00  0.00    +0.000 OA
ATOM      3  N   UNL     1       2.846   6.438  20.110  0.00  0.00    +0.000 N 
ATOM      4  C   UNL     1       2.016   7.567  20.099  0.00  0.00    +0.000 A 
ATOM      5  C   UNL     1       1.190   7.867  21.177  0.00  0.00    +0.000 A 
ATOM      6  C   UNL     1       0.384   9.011  21.124  0.00  0.00    +0.000 A 
ATOM      7  C   UNL     1       0.390   9.824  19.994  0.00  0.00    +0.000 A 
ATOM      8  C   UNL     1       1.255   9.416  18.969  0.00  0.00    +0.000 A 
ATOM      9  N   UNL     1       2.098   8.348  19.009  0.00  0.00    +0.000 NA
ATOM     10  H   UNL     1       3.599   6.492  19.436  0.00  0.00    +0.000 HD
ENDROOT
BRANCH   1  16
ATOM     11  C   UNL     1       2.258   2.129  21.663  0.00  0.00    +0.000 C 
ATOM     12  C   UNL     1       3.189   2.741  20.686  0.00  0.00    +0.000 A 
ATOM     13  N   UNL     1       4.171   1.986  20.176  0.00  0.00    +0.000 NA
ATOM     14  O   UNL     1       4.855   2.796  19.314  0.00  0.00    +0.000 OA
ATOM     15  C   UNL     1       4.308   4.044  19.301  0.00  0.00    +0.000 A 
ATOM     16  C   UNL     1       3.207   4.060  20.145  0.00  0.00    +0.000 A 
BRANCH  15  17
ATOM     17  C   UNL     1       5.029   5.020  18.480  0.00  0.00    +0.000 A 
ATOM     18  C   UNL     1       6.304   5.475  18.854  0.00  0.00    +0.000 A 
ATOM     19  C   UNL     1       6.967   6.445  18.094  0.00  0.00    +0.000 A 
ATOM     20  C   UNL     1       6.369   6.963  16.951  0.00  0.00    +0.000 A 
ATOM     21  C   UNL     1       5.108   6.523  16.562  0.00  0.00    +0.000 A 
ATOM     22  C   UNL     1       4.442   5.559  17.327  0.00  0.00    +0.000 A 
ENDBRANCH  15  17
ENDBRANCH   1  16
BRANCH   7  23
ATOM     23  N   UNL     1      -0.397  10.967  19.852  0.00  0.00    +0.000 N 
ATOM     24  C   UNL     1      -1.587  10.922  18.992  0.00  0.00    +0.000 C 
ATOM     25  C   UNL     1      -1.933  12.356  18.577  0.00  0.00    +0.000 C 
ATOM     26  C   UNL     1      -2.096  13.278  19.787  0.00  0.00    +0.000 C 
ATOM     27  C   UNL     1      -0.914  13.167  20.752  0.00  0.00    +0.000 C 
ATOM     28  C   UNL     1      -0.618  11.708  21.104  0.00  0.00    +0.000 C 
ENDBRANCH   7  23
TORSDOF 3
ENDMDL
MODEL 7
REMARK VINA RESULT:      -8.4      1.236      1.351
REMARK  Name = 
REMARK  4 active torsions:
REMARK  status: ('A' for Active; 'I' for Inactive)
REMARK    1  A    between atoms: C_1  and  C_2
REMARK    2  A    between atoms: C_5  and  C_6
REMARK    3  A    between atoms: C_12  and  C_13
REMARK    4  A    between atoms: C_19  and  N_20
REMARK                            x       y       z     vdW  Elec       q    Type
REMARK                         _______ _______ _______ _____ _____    ______ ____
ROOT
ATOM      1  C   UNL     1       2.263   5.326  19.138  0.00  0.00    +0.000 C 
ATOM      2  O   UNL     1       1.309   5.243  19.914  0.00  0.00    +0.000 OA
ATOM      3  N   UNL     1       2.738   6.528  18.645  0.00  0.00    +0.000 N 
ATOM      4  C   UNL     1       2.069   7.722  18.946  0.00  0.00    +0.000 A 
ATOM      5  C   UNL     1       1.835   8.108  20.262  0.00  0.00    +0.000 A 
ATOM      6  C   UNL     1       1.171   9.315  20.514  0.00  0.00    +0.000 A 
ATOM      7  C   UNL     1       0.726  10.107  19.458  0.00  0.00    +0.000 A 
ATOM      8  C   UNL     1       1.011   9.611  18.178  0.00  0.00    +0.000 A 
ATOM      9  N   UNL     1       1.708   8.476  17.894  0.00  0.00    +0.000 NA
ATOM     10  H   UNL     1       3.111   6.507  17.705  0.00  0.00    +0.000 HD
ENDROOT
BRANCH   1  16
ATOM     11  C   UNL     1       1.086   2.233  18.715  0.00  0.00    +0.000 C 
ATOM     12  C   UNL     1       2.420   2.808  18.423  0.00  0.00    +0.000 A 
ATOM     13  N   UNL     1       3.343   2.026  17.848  0.00  0.00    +0.000 NA
ATOM     14  O   UNL     1       4.452   2.809  17.694  0.00  0.00    +0.000 OA
ATOM     15  C   UNL     1       4.220   4.060  18.182  0.00  0.00    +0.000 A 
ATOM     16  C   UNL     1       2.912   4.129  18.638  0.00  0.00    +0.000 A 
BRANCH  15  17
ATOM     17  C   UNL     1       5.382   4.953  18.155  0.00  0.00    +0.000 A 
ATOM     18  C   UNL     1       5.686   5.705  17.008  0.00  0.00    +0.000 A 
ATOM     19  C   UNL     1       6.825   6.517  16.969  0.00  0.00    +0.000 A 
ATOM     20  C   UNL     1       7.664   6.593  18.075  0.00  0.00    +0.000 A 
ATOM     21  C   UNL     1       7.379   5.859  19.220  0.00  0.00    +0.000 A 
ATOM     22  C   UNL     1       6.244   5.040  19.257  0.00  0.00    +0.000 A 
ENDBRANCH  15  17
ENDBRANCH   1  16
BRANCH   7  23
ATOM     23  N   UNL     1       0.040  11.309  19.623  0.00  0.00    +0.000 N 
ATOM     24  C   UNL     1      -0.581  11.615  20.919  0.00  0.00    +0.000 C 
ATOM     25  C   UNL     1      -1.682  12.654  20.690  0.00  0.00    +0.000 C 
ATOM     26  C   UNL     1      -1.157  13.895  19.965  0.00  0.00    +0.000 C 
ATOM     27  C   UNL     1      -0.363  13.527  18.709  0.00  0.00    +0.000 C 
ATOM     28  C   UNL     1       0.702  12.473  19.013  0.00  0.00    +0.000 C 
ENDBRANCH   7  23
TORSDOF 3
ENDMDL
MODEL 8
REMARK VINA RESULT:      -8.4      1.711      3.592
REMARK  Name = 
REMARK  4 active torsions:
REMARK  status: ('A' for Active; 'I' for Inactive)
REMARK    1  A    between atoms: C_1  and  C_2
REMARK    2  A    between atoms: C_5  and  C_6
REMARK    3  A    between atoms: C_12  and  C_13
REMARK    4  A    between atoms: C_19  and  N_20
REMARK                            x       y       z     vdW  Elec       q    Type
REMARK                         _______ _______ _______ _____ _____    ______ ____
ROOT
ATOM      1  C   UNL     1       3.994   6.816  18.244  0.00  0.00    +0.000 C 
ATOM      2  O   UNL     1       4.357   7.771  17.556  0.00  0.00    +0.000 OA
ATOM      3  N   UNL     1       2.826   6.816  18.984  0.00  0.00    +0.000 N 
ATOM      4  C   UNL     1       2.040   7.974  19.055  0.00  0.00    +0.000 A 
ATOM      5  C   UNL     1       1.564   8.596  17.906  0.00  0.00    +0.000 A 
ATOM      6  C   UNL     1       0.775   9.747  18.027  0.00  0.00    +0.000 A 
ATOM      7  C   UNL     1       0.492  10.277  19.283  0.00  0.00    +0.000 A 
ATOM      8  C   UNL     1       1.033   9.570  20.365  0.00  0.00    +0.000 A 
ATOM      9  N   UNL     1       1.751   8.415  20.291  0.00  0.00    +0.000 NA
ATOM     10  H   UNL     1       2.849   6.298  19.853  0.00  0.00    +0.000 HD
ENDROOT
BRANCH   1  16
ATOM     11  C   UNL     1       7.236   6.373  17.595  0.00  0.00    +0.000 C 
ATOM     12  C   UNL     1       6.218   5.433  18.121  0.00  0.00    +0.000 A 
ATOM     13  N   UNL     1       6.603   4.196  18.460  0.00  0.00    +0.000 NA
ATOM     14  O   UNL     1       5.477   3.566  18.912  0.00  0.00    +0.000 OA
ATOM     15  C   UNL     1       4.405   4.403  18.839  0.00  0.00    +0.000 A 
ATOM     16  C   UNL     1       4.828   5.636  18.365  0.00  0.00    +0.000 A 
BRANCH  15  17
ATOM     17  C   UNL     1       3.125   3.792  19.209  0.00  0.00    +0.000 A 
ATOM     18  C   UNL     1       2.260   3.280  18.228  0.00  0.00    +0.000 A 
ATOM     19  C   UNL     1       1.017   2.744  18.581  0.00  0.00    +0.000 A 
ATOM     20  C   UNL     1       0.630   2.705  19.916  0.00  0.00    +0.000 A 
ATOM     21  C   UNL     1       1.473   3.204  20.902  0.00  0.00    +0.000 A 
ATOM     22  C   UNL     1       2.713   3.748  20.548  0.00  0.00    +0.000 A 
ENDBRANCH  15  17
ENDBRANCH   1  16
BRANCH   7  23
ATOM     23  N   UNL     1      -0.267  11.429  19.489  0.00  0.00    +0.000 N 
ATOM     24  C   UNL     1      -1.159  11.507  20.653  0.00  0.00    +0.000 C 
ATOM     25  C   UNL     1      -2.233  12.560  20.365  0.00  0.00    +0.000 C 
ATOM     26  C   UNL     1      -1.623  13.910  19.980  0.00  0.00    +0.000 C 
ATOM     27  C   UNL     1      -0.567  13.765  18.881  0.00  0.00    +0.000 C 
ATOM     28  C   UNL     1       0.456  12.684  19.231  0.00  0.00    +0.000 C 
ENDBRANCH   7  23
TORSDOF 3
ENDMDL
MODEL 9
REMARK VINA RESULT:      -8.2      1.666      2.314
REMARK  Name = 
REMARK  4 active torsions:
REMARK  status: ('A' for Active; 'I' for Inactive)
REMARK    1  A    between atoms: C_1  and  C_2
REMARK    2  A    between atoms: C_5  and  C_6
REMARK    3  A    between atoms: C_12  and  C_13
REMARK    4  A    between atoms: C_19  and  N_20
REMARK                            x       y       z     vdW  Elec       q    Type
REMARK                         _______ _______ _______ _____ _____    ______ ____
ROOT
ATOM      1  C   UNL     1       2.491   6.530  19.671  0.00  0.00    +0.000 C 
ATOM      2  O   UNL     1       2.781   7.322  18.773  0.00  0.00    +0.000 OA
ATOM      3  N   UNL     1       1.687   6.863  20.746  0.00  0.00    +0.000 N 
ATOM      4  C   UNL     1       1.240   8.182  20.905  0.00  0.00    +0.000 A 
ATOM      5  C   UNL     1       0.532   8.831  19.899  0.00  0.00    +0.000 A 
ATOM      6  C   UNL     1       0.097  10.146  20.107  0.00  0.00    +0.000 A 
ATOM      7  C   UNL     1       0.393  10.805  21.297  0.00  0.00    +0.000 A 
ATOM      8  C   UNL     1       1.119  10.053  22.232  0.00  0.00    +0.000 A 
ATOM      9  N   UNL     1       1.504   8.754  22.091  0.00  0.00    +0.000 NA
ATOM     10  H   UNL     1       1.906   6.409  21.623  0.00  0.00    +0.000 HD
ENDROOT
BRANCH   1  16
ATOM     11  C   UNL     1       1.179   3.642  20.703  0.00  0.00    +0.000 C 
ATOM     12  C   UNL     1       2.494   3.941  20.088  0.00  0.00    +0.000 A 
ATOM     13  N   UNL     1       3.326   2.925  19.829  0.00  0.00    +0.000 NA
ATOM     14  O   UNL     1       4.437   3.487  19.266  0.00  0.00    +0.000 OA
ATOM     15  C   UNL     1       4.297   4.840  19.192  0.00  0.00    +0.000 A 
ATOM     16  C   UNL     1       3.046   5.190  19.678  0.00  0.00    +0.000 A 
BRANCH  15  17
ATOM     17  C   UNL     1       5.478   5.551  18.692  0.00  0.00    +0.000 A 
ATOM     18  C   UNL     1       6.701   5.491  19.380  0.00  0.00    +0.000 A 
ATOM     19  C   UNL     1       7.811   6.212  18.928  0.00  0.00    +0.000 A 
ATOM     20  C   UNL     1       7.713   6.993  17.781  0.00  0.00    +0.000 A 
ATOM     21  C   UNL     1       6.512   7.064  17.085  0.00  0.00    +0.000 A 
ATOM     22  C   UNL     1       5.399   6.349  17.542  0.00  0.00    +0.000 A 
ENDBRANCH  15  17
ENDBRANCH   1  16
BRANCH   7  23
ATOM     23  N   UNL     1       0.017  12.118  21.574  0.00  0.00    +0.000 N 
ATOM     24  C   UNL     1       0.000  13.109  20.489  0.00  0.00    +0.000 C 
ATOM     25  C   UNL     1       0.100  14.505  21.113  0.00  0.00    +0.000 C 
ATOM     26  C   UNL     1      -0.987  14.741  22.163  0.00  0.00    +0.000 C 
ATOM     27  C   UNL     1      -1.056  13.599  23.179  0.00  0.00    +0.000 C 
ATOM     28  C   UNL     1      -1.134  12.240  22.483  0.00  0.00    +0.000 C 
ENDBRANCH   7  23
TORSDOF 3
ENDMDL
