MODEL 1
REMARK VINA RESULT:      -7.6      0.000      0.000
REMARK  Name = 
REMARK  7 active torsions:
REMARK  status: ('A' for Active; 'I' for Inactive)
REMARK    1  A    between atoms: C_1  and  C_2
REMARK    2  A    between atoms: C_2  and  C_3
REMARK    3  A    between atoms: C_2  and  C_4
REMARK    4  A    between atoms: C_7  and  C_8
REMARK    5  A    between atoms: CA_15  and  C_16
REMARK    6  A    between atoms: C_16  and  OXT_18
REMARK    7  A    between atoms: C_21  and  C_22
REMARK                            x       y       z     vdW  Elec       q    Type
REMARK                         _______ _______ _______ _____ _____    ______ ____
ROOT
ATOM      1  C   UNL     1       5.139   6.442  17.479  0.00  0.00    +0.000 C 
ATOM      2  C   UNL     1       5.337   5.212  18.382  0.00  0.00    +0.000 C 
ATOM      3  N   UNL     1       4.650   4.115  17.683  0.00  0.00    +0.000 N 
ATOM      4  C   UNL     1       3.702   3.349  18.338  0.00  0.00    +0.000 A 
ATOM      5  C   UNL     1       3.077   2.277  17.695  0.00  0.00    +0.000 A 
ATOM      6  C   UNL     1       2.054   1.570  18.329  0.00  0.00    +0.000 A 
ATOM      7  C   UNL     1       1.679   1.929  19.612  0.00  0.00    +0.000 A 
ATOM      8  CA  UNL     1       2.363   2.977  20.207  0.00  0.00    +0.000 A 
ATOM      9  N   UNL     1       3.351   3.697  19.597  0.00  0.00    +0.000 NA
ATOM     10  C   UNL     1       4.407   4.470  16.272  0.00  0.00    +0.000 C 
ATOM     11  C   UNL     1       5.095   5.839  16.059  0.00  0.00    +0.000 C 
ENDROOT
BRANCH   1  15
ATOM     12  C   UNL     1       2.286   8.579  18.066  0.00  0.00    +0.000 A 
ATOM     13  N   UNL     1       2.084   7.721  19.075  0.00  0.00    +0.000 NA
ATOM     14  N   UNL     1       3.100   6.871  18.918  0.00  0.00    +0.000 N 
ATOM     15  C   UNL     1       3.877   7.191  17.838  0.00  0.00    +0.000 A 
ATOM     16  N   UNL     1       3.371   8.273  17.273  0.00  0.00    +0.000 NA
ATOM     17  H   UNL     1       3.243   6.138  19.606  0.00  0.00    +0.000 HD
BRANCH  12  19
ATOM     18  C   UNL     1       0.273   9.806  18.906  0.00  0.00    +0.000 C 
ATOM     19  C   UNL     1       1.429   9.795  17.907  0.00  0.00    +0.000 C 
ATOM     20  C   UNL     1       2.233  11.090  17.990  0.00  0.00    +0.000 C 
ENDBRANCH  12  19
ENDBRANCH   1  15
BRANCH  11  21
ATOM     21  C   UNL     1       6.475   5.648  15.449  0.00  0.00    +0.000 C 
ATOM     22  C   UNL     1       6.672   4.873  14.169  0.00  0.00    +0.000 C 
ATOM     23  C   UNL     1       7.132   4.282  15.469  0.00  0.00    +0.000 C 
ENDBRANCH  11  21
BRANCH   8  24
ATOM     24  C   UNL     1       2.015   3.395  21.595  0.00  0.00    +0.000 C 
ATOM     25  O   UNL     1       1.458   2.677  22.412  0.00  0.00    +0.000 OA
BRANCH  24  26
ATOM     26  OXT UNL     1       2.394   4.668  21.852  0.00  0.00    +0.000 OA
ATOM     27  HXT UNL     1       2.414   5.188  21.023  0.00  0.00    +0.000 HD
ENDBRANCH  24  26
ENDBRANCH   8  24
TORSDOF 5
ENDMDL
MODEL 2
REMARK VINA RESULT:      -7.2      0.909      1.383
REMARK  Name = 
REMARK  7 active torsions:
REMARK  status: ('A' for Active; 'I' for Inactive)
REMARK    1  A    between atoms: C_1  and  C_2
REMARK    2  A    between atoms: C_2  and  C_3
REMARK    3  A    between atoms: C_2  and  C_4
REMARK    4  A    between atoms: C_7  and  C_8
REMARK    5  A    between atoms: CA_15  and  C_16
REMARK    6  A    between atoms: C_16  and  OXT_18
REMARK    7  A    between atoms: C_21  and  C_22
REMARK                            x       y       z     vdW  Elec       q    Type
REMARK                         _______ _______ _______ _____ _____    ______ ____
ROOT
ATOM      1  C   UNL     1       5.538   5.559  17.012  0.00  0.00    +0.000 C 
ATOM      2  C   UNL     1       5.509   4.384  18.006  0.00  0.00    +0.000 C 
ATOM      3  N   UNL     1       4.544   3.430  17.436  0.00  0.00    +0.000 N 
ATOM      4  C   UNL     1       3.491   2.956  18.197  0.00  0.00    +0.000 A 
ATOM      5  C   UNL     1       2.597   2.016  17.678  0.00  0.00    +0.000 A 
ATOM      6  C   UNL     1       1.483   1.614  18.418  0.00  0.00    +0.000 A 
ATOM      7  C   UNL     1       1.286   2.141  19.682  0.00  0.00    +0.000 A 
ATOM      8  CA  UNL     1       2.229   3.040  20.153  0.00  0.00    +0.000 A 
ATOM      9  N   UNL     1       3.313   3.465  19.438  0.00  0.00    +0.000 NA
ATOM     10  C   UNL     1       4.297   3.731  16.013  0.00  0.00    +0.000 C 
ATOM     11  C   UNL     1       5.264   4.883  15.653  0.00  0.00    +0.000 C 
ENDROOT
BRANCH   1  15
ATOM     12  C   UNL     1       2.864   7.725  18.110  0.00  0.00    +0.000 A 
ATOM     13  N   UNL     1       3.315   8.486  17.105  0.00  0.00    +0.000 NA
ATOM     14  N   UNL     1       4.335   7.757  16.648  0.00  0.00    +0.000 N 
ATOM     15  C   UNL     1       4.507   6.605  17.366  0.00  0.00    +0.000 A 
ATOM     16  N   UNL     1       3.585   6.568  18.312  0.00  0.00    +0.000 NA
ATOM     17  H   UNL     1       4.830   8.065  15.816  0.00  0.00    +0.000 HD
BRANCH  12  19
ATOM     18  C   UNL     1       1.829   7.972  20.375  0.00  0.00    +0.000 C 
ATOM     19  C   UNL     1       1.629   8.102  18.866  0.00  0.00    +0.000 C 
ATOM     20  C   UNL     1       1.124   9.496  18.502  0.00  0.00    +0.000 C 
ENDBRANCH  12  19
ENDBRANCH   1  15
BRANCH  11  21
ATOM     21  C   UNL     1       6.521   4.332  14.995  0.00  0.00    +0.000 C 
ATOM     22  C   UNL     1       7.300   5.136  13.984  0.00  0.00    +0.000 C 
ATOM     23  C   UNL     1       6.505   3.947  13.529  0.00  0.00    +0.000 C 
ENDBRANCH  11  21
BRANCH   8  24
ATOM     24  C   UNL     1       2.079   3.626  21.516  0.00  0.00    +0.000 C 
ATOM     25  O   UNL     1       1.680   3.006  22.491  0.00  0.00    +0.000 OA
BRANCH  24  26
ATOM     26  OXT UNL     1       2.439   4.928  21.552  0.00  0.00    +0.000 OA
ATOM     27  HXT UNL     1       2.216   5.364  20.703  0.00  0.00    +0.000 HD
ENDBRANCH  24  26
ENDBRANCH   8  24
TORSDOF 5
ENDMDL
MODEL 3
REMARK VINA RESULT:      -7.1      2.233      5.101
REMARK  Name = 
REMARK  7 active torsions:
REMARK  status: ('A' for Active; 'I' for Inactive)
REMARK    1  A    between atoms: C_1  and  C_2
REMARK    2  A    between atoms: C_2  and  C_3
REMARK    3  A    between atoms: C_2  and  C_4
REMARK    4  A    between atoms: C_7  and  C_8
REMARK    5  A    between atoms: CA_15  and  C_16
REMARK    6  A    between atoms: C_16  and  OXT_18
REMARK    7  A    between atoms: C_21  and  C_22
REMARK                            x       y       z     vdW  Elec       q    Type
REMARK                         _______ _______ _______ _____ _____    ______ ____
ROOT
ATOM      1  C   UNL     1       2.772   7.469  17.358  0.00  0.00    +0.000 C 
ATOM      2  C   UNL     1       1.843   6.270  17.619  0.00  0.00    +0.000 C 
ATOM      3  N   UNL     1       1.797   6.140  19.084  0.00  0.00    +0.000 N 
ATOM      4  C   UNL     1       2.081   4.930  19.691  0.00  0.00    +0.000 A 
ATOM      5  C   UNL     1       1.995   4.786  21.079  0.00  0.00    +0.000 A 
ATOM      6  C   UNL     1       2.376   3.591  21.691  0.00  0.00    +0.000 A 
ATOM      7  C   UNL     1       2.818   2.540  20.907  0.00  0.00    +0.000 A 
ATOM      8  CA  UNL     1       2.844   2.735  19.536  0.00  0.00    +0.000 A 
ATOM      9  N   UNL     1       2.499   3.903  18.916  0.00  0.00    +0.000 NA
ATOM     10  C   UNL     1       2.279   7.376  19.730  0.00  0.00    +0.000 C 
ATOM     11  C   UNL     1       2.533   8.379  18.581  0.00  0.00    +0.000 C 
ENDROOT
BRANCH   1  15
ATOM     12  C   UNL     1       6.282   6.618  17.458  0.00  0.00    +0.000 A 
ATOM     13  N   UNL     1       6.081   6.416  16.150  0.00  0.00    +0.000 NA
ATOM     14  N   UNL     1       4.782   6.694  16.026  0.00  0.00    +0.000 N 
ATOM     15  C   UNL     1       4.212   7.030  17.224  0.00  0.00    +0.000 A 
ATOM     16  N   UNL     1       5.149   6.979  18.155  0.00  0.00    +0.000 NA
ATOM     17  H   UNL     1       4.362   6.695  15.102  0.00  0.00    +0.000 HD
BRANCH  12  19
ATOM     18  C   UNL     1       8.269   7.908  18.260  0.00  0.00    +0.000 C 
ATOM     19  C   UNL     1       7.653   6.526  18.049  0.00  0.00    +0.000 C 
ATOM     20  C   UNL     1       7.678   5.716  19.343  0.00  0.00    +0.000 C 
ENDBRANCH  12  19
ENDBRANCH   1  15
BRANCH  11  21
ATOM     21  C   UNL     1       1.338   9.305  18.412  0.00  0.00    +0.000 C 
ATOM     22  C   UNL     1       1.509  10.798  18.278  0.00  0.00    +0.000 C 
ATOM     23  C   UNL     1       0.930  10.230  19.541  0.00  0.00    +0.000 C 
ENDBRANCH  11  21
BRANCH   8  24
ATOM     24  C   UNL     1       3.293   1.631  18.639  0.00  0.00    +0.000 C 
ATOM     25  O   UNL     1       4.243   0.899  18.871  0.00  0.00    +0.000 OA
BRANCH  24  26
ATOM     26  OXT UNL     1       2.521   1.530  17.533  0.00  0.00    +0.000 OA
ATOM     27  HXT UNL     1       3.013   1.846  16.747  0.00  0.00    +0.000 HD
ENDBRANCH  24  26
ENDBRANCH   8  24
TORSDOF 5
ENDMDL
MODEL 4
REMARK VINA RESULT:      -6.9      2.829      5.074
REMARK  Name = 
REMARK  7 active torsions:
REMARK  status: ('A' for Active; 'I' for Inactive)
REMARK    1  A    between atoms: C_1  and  C_2
REMARK    2  A    between atoms: C_2  and  C_3
REMARK    3  A    between atoms: C_2  and  C_4
REMARK    4  A    between atoms: C_7  and  C_8
REMARK    5  A    between atoms: CA_15  and  C_16
REMARK    6  A    between atoms: C_16  and  OXT_18
REMARK    7  A    between atoms: C_21  and  C_22
REMARK                            x       y       z     vdW  Elec       q    Type
REMARK                         _______ _______ _______ _____ _____    ______ ____
ROOT
ATOM      1  C   UNL     1       6.054   6.508  16.740  0.00  0.00    +0.000 C 
ATOM      2  C   UNL     1       4.882   6.512  17.737  0.00  0.00    +0.000 C 
ATOM      3  N   UNL     1       5.300   5.601  18.815  0.00  0.00    +0.000 N 
ATOM      4  C   UNL     1       4.483   4.556  19.208  0.00  0.00    +0.000 A 
ATOM      5  C   UNL     1       4.853   3.714  20.260  0.00  0.00    +0.000 A 
ATOM      6  C   UNL     1       4.070   2.605  20.588  0.00  0.00    +0.000 A 
ATOM      7  C   UNL     1       2.912   2.360  19.872  0.00  0.00    +0.000 A 
ATOM      8  CA  UNL     1       2.583   3.253  18.866  0.00  0.00    +0.000 A 
ATOM      9  N   UNL     1       3.345   4.331  18.512  0.00  0.00    +0.000 NA
ATOM     10  C   UNL     1       6.756   5.368  18.762  0.00  0.00    +0.000 C 
ATOM     11  C   UNL     1       7.288   6.291  17.640  0.00  0.00    +0.000 C 
ENDROOT
BRANCH   1  15
ATOM     12  C   UNL     1       5.959   4.166  13.991  0.00  0.00    +0.000 A 
ATOM     13  N   UNL     1       4.861   3.744  14.630  0.00  0.00    +0.000 NA
ATOM     14  N   UNL     1       4.830   4.556  15.687  0.00  0.00    +0.000 N 
ATOM     15  C   UNL     1       5.887   5.426  15.699  0.00  0.00    +0.000 A 
ATOM     16  N   UNL     1       6.627   5.189  14.630  0.00  0.00    +0.000 NA
ATOM     17  H   UNL     1       4.041   4.510  16.324  0.00  0.00    +0.000 HD
BRANCH  12  19
ATOM     18  C   UNL     1       5.111   3.239  11.827  0.00  0.00    +0.000 C 
ATOM     19  C   UNL     1       6.341   3.600  12.660  0.00  0.00    +0.000 C 
ATOM     20  C   UNL     1       7.274   4.522  11.879  0.00  0.00    +0.000 C 
ENDBRANCH  12  19
ENDBRANCH   1  15
BRANCH  11  21
ATOM     21  C   UNL     1       7.831   7.583  18.231  0.00  0.00    +0.000 C 
ATOM     22  C   UNL     1       7.323   8.931  17.783  0.00  0.00    +0.000 C 
ATOM     23  C   UNL     1       8.704   8.494  17.391  0.00  0.00    +0.000 C 
ENDBRANCH  11  21
BRANCH   8  24
ATOM     24  C   UNL     1       1.336   3.052  18.073  0.00  0.00    +0.000 C 
ATOM     25  O   UNL     1       0.541   2.142  18.260  0.00  0.00    +0.000 OA
BRANCH  24  26
ATOM     26  OXT UNL     1       1.180   3.998  17.120  0.00  0.00    +0.000 OA
ATOM     27  HXT UNL     1       0.504   4.650  17.398  0.00  0.00    +0.000 HD
ENDBRANCH  24  26
ENDBRANCH   8  24
TORSDOF 5
ENDMDL
MODEL 5
REMARK VINA RESULT:      -6.8      6.748     11.012
REMARK  Name = 
REMARK  7 active torsions:
REMARK  status: ('A' for Active; 'I' for Inactive)
REMARK    1  A    between atoms: C_1  and  C_2
REMARK    2  A    between atoms: C_2  and  C_3
REMARK    3  A    between atoms: C_2  and  C_4
REMARK    4  A    between atoms: C_7  and  C_8
REMARK    5  A    between atoms: CA_15  and  C_16
REMARK    6  A    between atoms: C_16  and  OXT_18
REMARK    7  A    between atoms: C_21  and  C_22
REMARK                            x       y       z     vdW  Elec       q    Type
REMARK                         _______ _______ _______ _____ _____    ______ ____
ROOT
ATOM      1  C   UNL     1      -1.745  13.448  22.496  0.00  0.00    +0.000 C 
ATOM      2  C   UNL     1      -2.331  13.917  21.152  0.00  0.00    +0.000 C 
ATOM      3  N   UNL     1      -3.674  13.319  21.096  0.00  0.00    +0.000 N 
ATOM      4  C   UNL     1      -4.063  12.567  20.002  0.00  0.00    +0.000 A 
ATOM      5  C   UNL     1      -5.352  12.033  19.921  0.00  0.00    +0.000 A 
ATOM      6  C   UNL     1      -5.706  11.196  18.861  0.00  0.00    +0.000 A 
ATOM      7  C   UNL     1      -4.773  10.918  17.878  0.00  0.00    +0.000 A 
ATOM      8  CA  UNL     1      -3.525  11.508  17.999  0.00  0.00    +0.000 A 
ATOM      9  N   UNL     1      -3.149  12.311  19.038  0.00  0.00    +0.000 NA
ATOM     10  C   UNL     1      -4.101  12.875  22.436  0.00  0.00    +0.000 C 
ATOM     11  C   UNL     1      -2.987  13.335  23.405  0.00  0.00    +0.000 C 
ENDROOT
BRANCH   1  15
ATOM     12  C   UNL     1       0.134  10.466  21.708  0.00  0.00    +0.000 A 
ATOM     13  N   UNL     1      -0.509   9.998  22.785  0.00  0.00    +0.000 NA
ATOM     14  N   UNL     1      -1.225  11.060  23.159  0.00  0.00    +0.000 N 
ATOM     15  C   UNL     1      -1.004  12.141  22.348  0.00  0.00    +0.000 A 
ATOM     16  N   UNL     1      -0.132  11.787  21.419  0.00  0.00    +0.000 NA
ATOM     17  H   UNL     1      -1.882  10.970  23.927  0.00  0.00    +0.000 HD
BRANCH  12  19
ATOM     18  C   UNL     1       0.877   8.109  21.315  0.00  0.00    +0.000 C 
ATOM     19  C   UNL     1       0.993   9.568  20.875  0.00  0.00    +0.000 C 
ATOM     20  C   UNL     1       0.710   9.710  19.381  0.00  0.00    +0.000 C 
ENDBRANCH  12  19
ENDBRANCH   1  15
BRANCH  11  21
ATOM     21  C   UNL     1      -3.368  14.653  24.063  0.00  0.00    +0.000 C 
ATOM     22  C   UNL     1      -2.335  15.705  24.379  0.00  0.00    +0.000 C 
ATOM     23  C   UNL     1      -2.966  14.930  25.498  0.00  0.00    +0.000 C 
ENDBRANCH  11  21
BRANCH   8  24
ATOM     24  C   UNL     1      -2.484  11.260  16.960  0.00  0.00    +0.000 C 
ATOM     25  O   UNL     1      -2.535  10.358  16.136  0.00  0.00    +0.000 OA
BRANCH  24  26
ATOM     26  OXT UNL     1      -1.472  12.153  17.031  0.00  0.00    +0.000 OA
ATOM     27  HXT UNL     1      -1.666  12.831  17.711  0.00  0.00    +0.000 HD
ENDBRANCH  24  26
ENDBRANCH   8  24
TORSDOF 5
ENDMDL
MODEL 6
REMARK VINA RESULT:      -6.8      6.906     11.429
REMARK  Name = 
REMARK  7 active torsions:
REMARK  status: ('A' for Active; 'I' for Inactive)
REMARK    1  A    between atoms: C_1  and  C_2
REMARK    2  A    between atoms: C_2  and  C_3
REMARK    3  A    between atoms: C_2  and  C_4
REMARK    4  A    between atoms: C_7  and  C_8
REMARK    5  A    between atoms: CA_15  and  C_16
REMARK    6  A    between atoms: C_16  and  OXT_18
REMARK    7  A    between atoms: C_21  and  C_22
REMARK                            x       y       z     vdW  Elec       q    Type
REMARK                         _______ _______ _______ _____ _____    ______ ____
ROOT
ATOM      1  C   UNL     1      -2.264  13.593  22.389  0.00  0.00    +0.000 C 
ATOM      2  C   UNL     1      -3.121  13.956  21.163  0.00  0.00    +0.000 C 
ATOM      3  N   UNL     1      -4.434  13.345  21.425  0.00  0.00    +0.000 N 
ATOM      4  C   UNL     1      -5.020  12.511  20.490  0.00  0.00    +0.000 A 
ATOM      5  C   UNL     1      -6.286  11.962  20.712  0.00  0.00    +0.000 A 
ATOM      6  C   UNL     1      -6.829  11.046  19.809  0.00  0.00    +0.000 A 
ATOM      7  C   UNL     1      -6.108  10.704  18.678  0.00  0.00    +0.000 A 
ATOM      8  CA  UNL     1      -4.876  11.311  18.499  0.00  0.00    +0.000 A 
ATOM      9  N   UNL     1      -4.315  12.192  19.380  0.00  0.00    +0.000 NA
ATOM     10  C   UNL     1      -4.569  12.997  22.853  0.00  0.00    +0.000 C 
ATOM     11  C   UNL     1      -3.292  13.537  23.539  0.00  0.00    +0.000 C 
ENDROOT
BRANCH   1  15
ATOM     12  C   UNL     1      -0.600  10.530  21.442  0.00  0.00    +0.000 A 
ATOM     13  N   UNL     1      -0.767  10.254  22.741  0.00  0.00    +0.000 NA
ATOM     14  N   UNL     1      -1.368  11.361  23.181  0.00  0.00    +0.000 N 
ATOM     15  C   UNL     1      -1.539  12.284  22.185  0.00  0.00    +0.000 A 
ATOM     16  N   UNL     1      -1.047  11.778  21.067  0.00  0.00    +0.000 NA
ATOM     17  H   UNL     1      -1.688  11.402  24.144  0.00  0.00    +0.000 HD
BRANCH  12  19
ATOM     18  C   UNL     1       0.736  10.151  19.360  0.00  0.00    +0.000 C 
ATOM     19  C   UNL     1      -0.046   9.505  20.503  0.00  0.00    +0.000 C 
ATOM     20  C   UNL     1       0.801   8.455  21.217  0.00  0.00    +0.000 C 
ENDBRANCH  12  19
ENDBRANCH   1  15
BRANCH  11  21
ATOM     21  C   UNL     1      -3.562  14.896  24.165  0.00  0.00    +0.000 C 
ATOM     22  C   UNL     1      -2.490  15.954  24.248  0.00  0.00    +0.000 C 
ATOM     23  C   UNL     1      -2.937  15.255  25.499  0.00  0.00    +0.000 C 
ENDBRANCH  11  21
BRANCH   8  24
ATOM     24  C   UNL     1      -4.063  10.995  17.289  0.00  0.00    +0.000 C 
ATOM     25  O   UNL     1      -3.471   9.941  17.114  0.00  0.00    +0.000 OA
BRANCH  24  26
ATOM     26  OXT UNL     1      -4.057  12.014  16.400  0.00  0.00    +0.000 OA
ATOM     27  HXT UNL     1      -4.111  12.872  16.870  0.00  0.00    +0.000 HD
ENDBRANCH  24  26
ENDBRANCH   8  24
TORSDOF 5
ENDMDL
MODEL 7
REMARK VINA RESULT:      -6.6      5.387      9.366
REMARK  Name = 
REMARK  7 active torsions:
REMARK  status: ('A' for Active; 'I' for Inactive)
REMARK    1  A    between atoms: C_1  and  C_2
REMARK    2  A    between atoms: C_2  and  C_3
REMARK    3  A    between atoms: C_2  and  C_4
REMARK    4  A    between atoms: C_7  and  C_8
REMARK    5  A    between atoms: CA_15  and  C_16
REMARK    6  A    between atoms: C_16  and  OXT_18
REMARK    7  A    between atoms: C_21  and  C_22
REMARK                            x       y       z     vdW  Elec       q    Type
REMARK                         _______ _______ _______ _____ _____    ______ ____
ROOT
ATOM      1  C   UNL     1      -1.046  13.163  21.633  0.00  0.00    +0.000 C 
ATOM      2  C   UNL     1      -1.335  11.999  20.668  0.00  0.00    +0.000 C 
ATOM      3  N   UNL     1      -1.010  10.785  21.433  0.00  0.00    +0.000 N 
ATOM      4  C   UNL     1      -0.140   9.841  20.917  0.00  0.00    +0.000 A 
ATOM      5  C   UNL     1       0.139   8.664  21.617  0.00  0.00    +0.000 A 
ATOM      6  C   UNL     1       1.090   7.763  21.135  0.00  0.00    +0.000 A 
ATOM      7  C   UNL     1       1.739   8.037  19.943  0.00  0.00    +0.000 A 
ATOM      8  CA  UNL     1       1.389   9.202  19.280  0.00  0.00    +0.000 A 
ATOM      9  N   UNL     1       0.480  10.110  19.744  0.00  0.00    +0.000 NA
ATOM     10  C   UNL     1      -0.940  11.083  22.876  0.00  0.00    +0.000 C 
ATOM     11  C   UNL     1      -1.363  12.564  23.019  0.00  0.00    +0.000 C 
ENDROOT
BRANCH   1  15
ATOM     12  C   UNL     1       2.245  14.652  21.623  0.00  0.00    +0.000 A 
ATOM     13  N   UNL     1       2.405  13.844  20.567  0.00  0.00    +0.000 NA
ATOM     14  N   UNL     1       1.222  13.231  20.510  0.00  0.00    +0.000 N 
ATOM     15  C   UNL     1       0.382  13.638  21.511  0.00  0.00    +0.000 A 
ATOM     16  N   UNL     1       1.018  14.539  22.240  0.00  0.00    +0.000 NA
ATOM     17  H   UNL     1       1.029  12.598  19.740  0.00  0.00    +0.000 HD
BRANCH  12  19
ATOM     18  C   UNL     1       4.028  16.193  20.784  0.00  0.00    +0.000 C 
ATOM     19  C   UNL     1       3.305  15.634  22.008  0.00  0.00    +0.000 C 
ATOM     20  C   UNL     1       2.766  16.762  22.884  0.00  0.00    +0.000 C 
ENDBRANCH  12  19
ENDBRANCH   1  15
BRANCH  11  21
ATOM     21  C   UNL     1      -2.836  12.660  23.389  0.00  0.00    +0.000 C 
ATOM     22  C   UNL     1      -3.703  13.789  22.891  0.00  0.00    +0.000 C 
ATOM     23  C   UNL     1      -3.311  13.741  24.339  0.00  0.00    +0.000 C 
ENDBRANCH  11  21
BRANCH   8  24
ATOM     24  C   UNL     1       2.041   9.540  17.982  0.00  0.00    +0.000 C 
ATOM     25  O   UNL     1       2.501   8.715  17.207  0.00  0.00    +0.000 OA
BRANCH  24  26
ATOM     26  OXT UNL     1       2.063  10.873  17.756  0.00  0.00    +0.000 OA
ATOM     27  HXT UNL     1       2.063  11.360  18.606  0.00  0.00    +0.000 HD
ENDBRANCH  24  26
ENDBRANCH   8  24
TORSDOF 5
ENDMDL
MODEL 8
REMARK VINA RESULT:      -6.6      6.153      9.404
REMARK  Name = 
REMARK  7 active torsions:
REMARK  status: ('A' for Active; 'I' for Inactive)
REMARK    1  A    between atoms: C_1  and  C_2
REMARK    2  A    between atoms: C_2  and  C_3
REMARK    3  A    between atoms: C_2  and  C_4
REMARK    4  A    between atoms: C_7  and  C_8
REMARK    5  A    between atoms: CA_15  and  C_16
REMARK    6  A    between atoms: C_16  and  OXT_18
REMARK    7  A    between atoms: C_21  and  C_22
REMARK                            x       y       z     vdW  Elec       q    Type
REMARK                         _______ _______ _______ _____ _____    ______ ____
ROOT
ATOM      1  C   UNL     1       0.538  10.250  19.313  0.00  0.00    +0.000 C 
ATOM      2  C   UNL     1       1.078  11.466  20.086  0.00  0.00    +0.000 C 
ATOM      3  N   UNL     1       0.334  11.467  21.356  0.00  0.00    +0.000 N 
ATOM      4  C   UNL     1      -0.335  12.601  21.778  0.00  0.00    +0.000 A 
ATOM      5  C   UNL     1      -1.007  12.624  23.003  0.00  0.00    +0.000 A 
ATOM      6  C   UNL     1      -1.759  13.740  23.377  0.00  0.00    +0.000 A 
ATOM      7  C   UNL     1      -1.814  14.832  22.531  0.00  0.00    +0.000 A 
ATOM      8  CA  UNL     1      -1.097  14.760  21.348  0.00  0.00    +0.000 A 
ATOM      9  N   UNL     1      -0.373  13.671  20.950  0.00  0.00    +0.000 NA
ATOM     10  C   UNL     1      -0.302  10.155  21.585  0.00  0.00    +0.000 C 
ATOM     11  C   UNL     1       0.178   9.247  20.429  0.00  0.00    +0.000 C 
ENDROOT
BRANCH   1  15
ATOM     12  C   UNL     1      -2.316  10.694  17.144  0.00  0.00    +0.000 A 
ATOM     13  N   UNL     1      -1.966  11.982  17.252  0.00  0.00    +0.000 NA
ATOM     14  N   UNL     1      -0.912  11.911  18.067  0.00  0.00    +0.000 N 
ATOM     15  C   UNL     1      -0.648  10.625  18.455  0.00  0.00    +0.000 A 
ATOM     16  N   UNL     1      -1.538   9.832  17.885  0.00  0.00    +0.000 NA
ATOM     17  H   UNL     1      -0.385  12.755  18.270  0.00  0.00    +0.000 HD
BRANCH  12  19
ATOM     18  C   UNL     1      -4.634  11.182  16.336  0.00  0.00    +0.000 C 
ATOM     19  C   UNL     1      -3.413  10.270  16.219  0.00  0.00    +0.000 C 
ATOM     20  C   UNL     1      -2.947  10.168  14.768  0.00  0.00    +0.000 C 
ENDBRANCH  12  19
ENDBRANCH   1  15
BRANCH  11  21
ATOM     21  C   UNL     1       1.361   8.402  20.877  0.00  0.00    +0.000 C 
ATOM     22  C   UNL     1       2.156   7.575  19.897  0.00  0.00    +0.000 C 
ATOM     23  C   UNL     1       1.255   6.890  20.883  0.00  0.00    +0.000 C 
ENDBRANCH  11  21
BRANCH   8  24
ATOM     24  C   UNL     1      -1.104  15.915  20.404  0.00  0.00    +0.000 C 
ATOM     25  O   UNL     1      -1.190  17.085  20.749  0.00  0.00    +0.000 OA
BRANCH  24  26
ATOM     26  OXT UNL     1      -0.999  15.520  19.116  0.00  0.00    +0.000 OA
ATOM     27  HXT UNL     1      -0.539  16.205  18.588  0.00  0.00    +0.000 HD
ENDBRANCH  24  26
ENDBRANCH   8  24
TORSDOF 5
ENDMDL
MODEL 9
REMARK VINA RESULT:      -6.6      6.773      9.898
REMARK  Name = 
REMARK  7 active torsions:
REMARK  status: ('A' for Active; 'I' for Inactive)
REMARK    1  A    between atoms: C_1  and  C_2
REMARK    2  A    between atoms: C_2  and  C_3
REMARK    3  A    between atoms: C_2  and  C_4
REMARK    4  A    between atoms: C_7  and  C_8
REMARK    5  A    between atoms: CA_15  and  C_16
REMARK    6  A    between atoms: C_16  and  OXT_18
REMARK    7  A    between atoms: C_21  and  C_22
REMARK                            x       y       z     vdW  Elec       q    Type
REMARK                         _______ _______ _______ _____ _____    ______ ____
ROOT
ATOM      1  C   UNL     1      -0.615  11.476  18.210  0.00  0.00    +0.000 C 
ATOM      2  C   UNL     1      -0.453  12.570  19.280  0.00  0.00    +0.000 C 
ATOM      3  N   UNL     1      -0.813  11.916  20.548  0.00  0.00    +0.000 N 
ATOM      4  C   UNL     1      -1.768  12.472  21.380  0.00  0.00    +0.000 A 
ATOM      5  C   UNL     1      -2.082  11.880  22.607  0.00  0.00    +0.000 A 
ATOM      6  C   UNL     1      -3.113  12.393  23.396  0.00  0.00    +0.000 A 
ATOM      7  C   UNL     1      -3.807  13.509  22.961  0.00  0.00    +0.000 A 
ATOM      8  CA  UNL     1      -3.421  14.069  21.754  0.00  0.00    +0.000 A 
ATOM      9  N   UNL     1      -2.432  13.571  20.954  0.00  0.00    +0.000 NA
ATOM     10  C   UNL     1      -0.785  10.448  20.400  0.00  0.00    +0.000 C 
ATOM     11  C   UNL     1      -0.262  10.180  18.970  0.00  0.00    +0.000 C 
ENDROOT
BRANCH   1  15
ATOM     12  C   UNL     1      -4.111  11.417  17.301  0.00  0.00    +0.000 A 
ATOM     13  N   UNL     1      -3.603  11.128  16.097  0.00  0.00    +0.000 NA
ATOM     14  N   UNL     1      -2.292  11.148  16.341  0.00  0.00    +0.000 N 
ATOM     15  C   UNL     1      -2.016  11.462  17.644  0.00  0.00    +0.000 A 
ATOM     16  N   UNL     1      -3.162  11.647  18.275  0.00  0.00    +0.000 NA
ATOM     17  H   UNL     1      -1.646  10.885  15.602  0.00  0.00    +0.000 HD
BRANCH  12  19
ATOM     18  C   UNL     1      -5.921  11.103  19.000  0.00  0.00    +0.000 C 
ATOM     19  C   UNL     1      -5.588  11.398  17.538  0.00  0.00    +0.000 C 
ATOM     20  C   UNL     1      -6.270  12.683  17.073  0.00  0.00    +0.000 C 
ENDBRANCH  12  19
ENDBRANCH   1  15
BRANCH  11  21
ATOM     21  C   UNL     1       1.232   9.892  18.998  0.00  0.00    +0.000 C 
ATOM     22  C   UNL     1       1.936   9.256  17.825  0.00  0.00    +0.000 C 
ATOM     23  C   UNL     1       1.728   8.463  19.082  0.00  0.00    +0.000 C 
ENDBRANCH  11  21
BRANCH   8  24
ATOM     24  C   UNL     1      -4.120  15.284  21.244  0.00  0.00    +0.000 C 
ATOM     25  O   UNL     1      -4.118  16.367  21.809  0.00  0.00    +0.000 OA
BRANCH  24  26
ATOM     26  OXT UNL     1      -4.756  15.050  20.074  0.00  0.00    +0.000 OA
ATOM     27  HXT UNL     1      -4.913  15.893  19.601  0.00  0.00    +0.000 HD
ENDBRANCH  24  26
ENDBRANCH   8  24
TORSDOF 5
ENDMDL
