MODEL 1
REMARK VINA RESULT:      -8.3      0.000      0.000
REMARK  Name = 
REMARK  5 active torsions:
REMARK  status: ('A' for Active; 'I' for Inactive)
REMARK    1  A    between atoms: C_2  and  C_3
REMARK    2  A    between atoms: C_6  and  N_7
REMARK    3  A    between atoms: N_7  and  S_8
REMARK    4  A    between atoms: S_8  and  C_11
REMARK    5  A    between atoms: C_15  and  C_16
REMARK                            x       y       z     vdW  Elec       q    Type
REMARK                         _______ _______ _______ _____ _____    ______ ____
ROOT
ATOM      1  N   UNL     1       2.832   6.056  20.441  0.00  0.00    +0.000 N 
ATOM      2  H   UNL     1       3.464   6.070  21.240  0.00  0.00    +0.000 HD
ENDROOT
BRANCH   1   6
ATOM      3  C   UNL     1       0.737   9.524  19.326  0.00  0.00    +0.000 A 
ATOM      4  C   UNL     1       0.586   9.011  20.623  0.00  0.00    +0.000 A 
ATOM      5  C   UNL     1       1.270   7.848  21.000  0.00  0.00    +0.000 A 
ATOM      6  C   UNL     1       2.099   7.206  20.081  0.00  0.00    +0.000 A 
ATOM      7  C   UNL     1       2.286   7.735  18.807  0.00  0.00    +0.000 A 
ATOM      8  C   UNL     1       1.619   8.899  18.438  0.00  0.00    +0.000 A 
BRANCH   3  10
ATOM      9  O   UNL     1       0.576  11.850  19.309  0.00  0.00    +0.000 OA
ATOM     10  C   UNL     1       0.064  10.795  18.945  0.00  0.00    +0.000 C 
ATOM     11  N   UNL     1      -1.085  10.734  18.168  0.00  0.00    +0.000 N 
ATOM     12  C   UNL     1      -1.678  11.944  17.625  0.00  0.00    +0.000 C 
ATOM     13  C   UNL     1      -3.174  11.689  17.686  0.00  0.00    +0.000 C 
ATOM     14  C   UNL     1      -3.278  10.191  17.445  0.00  0.00    +0.000 C 
ATOM     15  C   UNL     1      -2.037   9.627  18.124  0.00  0.00    +0.000 C 
ENDBRANCH   3  10
ENDBRANCH   1   6
BRANCH   1  16
ATOM     16  S   UNL     1       2.537   4.577  19.718  0.00  0.00    +0.000 S 
ATOM     17  O   UNL     1       2.769   3.577  20.743  0.00  0.00    +0.000 OA
ATOM     18  O   UNL     1       1.292   4.637  18.996  0.00  0.00    +0.000 OA
BRANCH  16  19
ATOM     19  C   UNL     1       3.858   4.431  18.527  0.00  0.00    +0.000 A 
ATOM     20  C   UNL     1       3.571   4.025  17.221  0.00  0.00    +0.000 A 
ATOM     21  C   UNL     1       4.594   3.968  16.276  0.00  0.00    +0.000 A 
ATOM     22  C   UNL     1       5.897   4.333  16.628  0.00  0.00    +0.000 A 
ATOM     23  C   UNL     1       6.194   4.765  17.932  0.00  0.00    +0.000 A 
ATOM     24  C   UNL     1       5.161   4.808  18.884  0.00  0.00    +0.000 A 
BRANCH  23  25
ATOM     25  C   UNL     1       7.591   5.201  18.305  0.00  0.00    +0.000 C 
ATOM     26  F   UNL     1       8.544   4.264  18.035  0.00  0.00    +0.000 F 
ATOM     27  F   UNL     1       7.979   6.327  17.647  0.00  0.00    +0.000 F 
ATOM     28  F   UNL     1       7.711   5.480  19.633  0.00  0.00    +0.000 F 
ENDBRANCH  23  25
ENDBRANCH  16  19
ENDBRANCH   1  16
TORSDOF 5
ENDMDL
MODEL 2
REMARK VINA RESULT:      -8.3      1.658      2.162
REMARK  Name = 
REMARK  5 active torsions:
REMARK  status: ('A' for Active; 'I' for Inactive)
REMARK    1  A    between atoms: C_2  and  C_3
REMARK    2  A    between atoms: C_6  and  N_7
REMARK    3  A    between atoms: N_7  and  S_8
REMARK    4  A    between atoms: S_8  and  C_11
REMARK    5  A    between atoms: C_15  and  C_16
REMARK                            x       y       z     vdW  Elec       q    Type
REMARK                         _______ _______ _______ _____ _____    ______ ____
ROOT
ATOM      1  N   UNL     1       3.179   6.232  20.024  0.00  0.00    +0.000 N 
ATOM      2  H   UNL     1       3.704   6.159  20.893  0.00  0.00    +0.000 HD
ENDROOT
BRANCH   1   6
ATOM      3  C   UNL     1       0.794   9.601  19.235  0.00  0.00    +0.000 A 
ATOM      4  C   UNL     1       0.720   8.980  20.490  0.00  0.00    +0.000 A 
ATOM      5  C   UNL     1       1.502   7.848  20.758  0.00  0.00    +0.000 A 
ATOM      6  C   UNL     1       2.350   7.345  19.773  0.00  0.00    +0.000 A 
ATOM      7  C   UNL     1       2.458   7.984  18.540  0.00  0.00    +0.000 A 
ATOM      8  C   UNL     1       1.694   9.117  18.279  0.00  0.00    +0.000 A 
BRANCH   3  10
ATOM      9  O   UNL     1       0.389  11.881  19.505  0.00  0.00    +0.000 OA
ATOM     10  C   UNL     1       0.015  10.841  18.971  0.00  0.00    +0.000 C 
ATOM     11  N   UNL     1      -1.071  10.775  18.108  0.00  0.00    +0.000 N 
ATOM     12  C   UNL     1      -1.754  11.985  17.684  0.00  0.00    +0.000 C 
ATOM     13  C   UNL     1      -3.216  11.580  17.599  0.00  0.00    +0.000 C 
ATOM     14  C   UNL     1      -3.146  10.126  17.160  0.00  0.00    +0.000 C 
ATOM     15  C   UNL     1      -1.897   9.597  17.852  0.00  0.00    +0.000 C 
ENDBRANCH   3  10
ENDBRANCH   1   6
BRANCH   1  16
ATOM     16  S   UNL     1       3.169   4.898  19.015  0.00  0.00    +0.000 S 
ATOM     17  O   UNL     1       3.183   3.738  19.887  0.00  0.00    +0.000 OA
ATOM     18  O   UNL     1       2.153   5.067  18.007  0.00  0.00    +0.000 OA
BRANCH  16  19
ATOM     19  C   UNL     1       4.761   4.976  18.213  0.00  0.00    +0.000 A 
ATOM     20  C   UNL     1       5.916   5.147  18.983  0.00  0.00    +0.000 A 
ATOM     21  C   UNL     1       7.164   5.149  18.361  0.00  0.00    +0.000 A 
ATOM     22  C   UNL     1       7.261   4.962  16.979  0.00  0.00    +0.000 A 
ATOM     23  C   UNL     1       6.109   4.765  16.199  0.00  0.00    +0.000 A 
ATOM     24  C   UNL     1       4.852   4.778  16.828  0.00  0.00    +0.000 A 
BRANCH  23  25
ATOM     25  C   UNL     1       6.213   4.520  14.712  0.00  0.00    +0.000 C 
ATOM     26  F   UNL     1       6.382   3.208  14.387  0.00  0.00    +0.000 F 
ATOM     27  F   UNL     1       5.105   4.931  14.038  0.00  0.00    +0.000 F 
ATOM     28  F   UNL     1       7.264   5.180  14.148  0.00  0.00    +0.000 F 
ENDBRANCH  23  25
ENDBRANCH  16  19
ENDBRANCH   1  16
TORSDOF 5
ENDMDL
MODEL 3
REMARK VINA RESULT:      -8.2      1.002      1.244
REMARK  Name = 
REMARK  5 active torsions:
REMARK  status: ('A' for Active; 'I' for Inactive)
REMARK    1  A    between atoms: C_2  and  C_3
REMARK    2  A    between atoms: C_6  and  N_7
REMARK    3  A    between atoms: N_7  and  S_8
REMARK    4  A    between atoms: S_8  and  C_11
REMARK    5  A    between atoms: C_15  and  C_16
REMARK                            x       y       z     vdW  Elec       q    Type
REMARK                         _______ _______ _______ _____ _____    ______ ____
ROOT
ATOM      1  N   UNL     1       3.116   6.127  19.924  0.00  0.00    +0.000 N 
ATOM      2  H   UNL     1       3.697   6.043  20.756  0.00  0.00    +0.000 HD
ENDROOT
BRANCH   1   6
ATOM      3  C   UNL     1       0.769   9.555  19.291  0.00  0.00    +0.000 A 
ATOM      4  C   UNL     1       0.732   8.913  20.537  0.00  0.00    +0.000 A 
ATOM      5  C   UNL     1       1.502   7.762  20.753  0.00  0.00    +0.000 A 
ATOM      6  C   UNL     1       2.300   7.261  19.726  0.00  0.00    +0.000 A 
ATOM      7  C   UNL     1       2.372   7.920  18.502  0.00  0.00    +0.000 A 
ATOM      8  C   UNL     1       1.620   9.072  18.292  0.00  0.00    +0.000 A 
BRANCH   3  10
ATOM      9  O   UNL     1       0.405  11.832  19.640  0.00  0.00    +0.000 OA
ATOM     10  C   UNL     1       0.005  10.814  19.080  0.00  0.00    +0.000 C 
ATOM     11  N   UNL     1      -1.097  10.792  18.235  0.00  0.00    +0.000 N 
ATOM     12  C   UNL     1      -1.769  12.025  17.861  0.00  0.00    +0.000 C 
ATOM     13  C   UNL     1      -3.238  11.646  17.790  0.00  0.00    +0.000 C 
ATOM     14  C   UNL     1      -3.198  10.205  17.304  0.00  0.00    +0.000 C 
ATOM     15  C   UNL     1      -1.945   9.636  17.957  0.00  0.00    +0.000 C 
ENDBRANCH   3  10
ENDBRANCH   1   6
BRANCH   1  16
ATOM     16  S   UNL     1       3.002   4.791  18.925  0.00  0.00    +0.000 S 
ATOM     17  O   UNL     1       3.182   3.634  19.782  0.00  0.00    +0.000 OA
ATOM     18  O   UNL     1       1.845   4.925  18.077  0.00  0.00    +0.000 OA
BRANCH  16  19
ATOM     19  C   UNL     1       4.457   4.920  17.899  0.00  0.00    +0.000 A 
ATOM     20  C   UNL     1       4.617   4.054  16.813  0.00  0.00    +0.000 A 
ATOM     21  C   UNL     1       5.724   4.194  15.978  0.00  0.00    +0.000 A 
ATOM     22  C   UNL     1       6.658   5.207  16.213  0.00  0.00    +0.000 A 
ATOM     23  C   UNL     1       6.495   6.099  17.286  0.00  0.00    +0.000 A 
ATOM     24  C   UNL     1       5.384   5.945  18.134  0.00  0.00    +0.000 A 
BRANCH  23  25
ATOM     25  C   UNL     1       7.479   7.221  17.518  0.00  0.00    +0.000 C 
ATOM     26  F   UNL     1       8.322   6.998  18.565  0.00  0.00    +0.000 F 
ATOM     27  F   UNL     1       8.277   7.446  16.439  0.00  0.00    +0.000 F 
ATOM     28  F   UNL     1       6.862   8.406  17.785  0.00  0.00    +0.000 F 
ENDBRANCH  23  25
ENDBRANCH  16  19
ENDBRANCH   1  16
TORSDOF 5
ENDMDL
MODEL 4
REMARK VINA RESULT:      -8.2      1.542      2.318
REMARK  Name = 
REMARK  5 active torsions:
REMARK  status: ('A' for Active; 'I' for Inactive)
REMARK    1  A    between atoms: C_2  and  C_3
REMARK    2  A    between atoms: C_6  and  N_7
REMARK    3  A    between atoms: N_7  and  S_8
REMARK    4  A    between atoms: S_8  and  C_11
REMARK    5  A    between atoms: C_15  and  C_16
REMARK                            x       y       z     vdW  Elec       q    Type
REMARK                         _______ _______ _______ _____ _____    ______ ____
ROOT
ATOM      1  N   UNL     1       2.880   6.123  20.183  0.00  0.00    +0.000 N 
ATOM      2  H   UNL     1       3.193   5.976  21.141  0.00  0.00    +0.000 HD
ENDROOT
BRANCH   1   6
ATOM      3  C   UNL     1       0.887   9.663  19.110  0.00  0.00    +0.000 A 
ATOM      4  C   UNL     1       1.656   8.986  18.153  0.00  0.00    +0.000 A 
ATOM      5  C   UNL     1       2.335   7.811  18.505  0.00  0.00    +0.000 A 
ATOM      6  C   UNL     1       2.241   7.323  19.807  0.00  0.00    +0.000 A 
ATOM      7  C   UNL     1       1.445   7.969  20.749  0.00  0.00    +0.000 A 
ATOM      8  C   UNL     1       0.758   9.126  20.396  0.00  0.00    +0.000 A 
BRANCH   3  10
ATOM      9  O   UNL     1       0.597  11.973  18.974  0.00  0.00    +0.000 OA
ATOM     10  C   UNL     1       0.113  10.873  18.722  0.00  0.00    +0.000 C 
ATOM     11  N   UNL     1      -1.098  10.707  18.062  0.00  0.00    +0.000 N 
ATOM     12  C   UNL     1      -1.804  11.850  17.509  0.00  0.00    +0.000 C 
ATOM     13  C   UNL     1      -3.272  11.526  17.726  0.00  0.00    +0.000 C 
ATOM     14  C   UNL     1      -3.315  10.012  17.583  0.00  0.00    +0.000 C 
ATOM     15  C   UNL     1      -1.988   9.553  18.173  0.00  0.00    +0.000 C 
ENDBRANCH   3  10
ENDBRANCH   1   6
BRANCH   1  16
ATOM     16  S   UNL     1       2.957   4.818  19.140  0.00  0.00    +0.000 S 
ATOM     17  O   UNL     1       2.993   3.635  19.981  0.00  0.00    +0.000 OA
ATOM     18  O   UNL     1       1.967   4.973  18.105  0.00  0.00    +0.000 OA
BRANCH  16  19
ATOM     19  C   UNL     1       4.568   4.983  18.392  0.00  0.00    +0.000 A 
ATOM     20  C   UNL     1       5.676   5.280  19.192  0.00  0.00    +0.000 A 
ATOM     21  C   UNL     1       6.943   5.351  18.616  0.00  0.00    +0.000 A 
ATOM     22  C   UNL     1       7.108   5.108  17.249  0.00  0.00    +0.000 A 
ATOM     23  C   UNL     1       6.006   4.786  16.439  0.00  0.00    +0.000 A 
ATOM     24  C   UNL     1       4.729   4.729  17.022  0.00  0.00    +0.000 A 
BRANCH  23  25
ATOM     25  C   UNL     1       6.186   4.482  14.970  0.00  0.00    +0.000 C 
ATOM     26  F   UNL     1       7.381   4.905  14.469  0.00  0.00    +0.000 F 
ATOM     27  F   UNL     1       6.121   3.149  14.703  0.00  0.00    +0.000 F 
ATOM     28  F   UNL     1       5.231   5.069  14.197  0.00  0.00    +0.000 F 
ENDBRANCH  23  25
ENDBRANCH  16  19
ENDBRANCH   1  16
TORSDOF 5
ENDMDL
MODEL 5
REMARK VINA RESULT:      -8.2      1.298      2.289
REMARK  Name = 
REMARK  5 active torsions:
REMARK  status: ('A' for Active; 'I' for Inactive)
REMARK    1  A    between atoms: C_2  and  C_3
REMARK    2  A    between atoms: C_6  and  N_7
REMARK    3  A    between atoms: N_7  and  S_8
REMARK    4  A    between atoms: S_8  and  C_11
REMARK    5  A    between atoms: C_15  and  C_16
REMARK                            x       y       z     vdW  Elec       q    Type
REMARK                         _______ _______ _______ _____ _____    ______ ____
ROOT
ATOM      1  N   UNL     1       2.822   6.121  20.424  0.00  0.00    +0.000 N 
ATOM      2  H   UNL     1       3.391   6.126  21.269  0.00  0.00    +0.000 HD
ENDROOT
BRANCH   1   6
ATOM      3  C   UNL     1       0.797   9.576  19.153  0.00  0.00    +0.000 A 
ATOM      4  C   UNL     1       1.652   8.909  18.264  0.00  0.00    +0.000 A 
ATOM      5  C   UNL     1       2.341   7.764  18.682  0.00  0.00    +0.000 A 
ATOM      6  C   UNL     1       2.173   7.293  19.984  0.00  0.00    +0.000 A 
ATOM      7  C   UNL     1       1.294   7.928  20.857  0.00  0.00    +0.000 A 
ATOM      8  C   UNL     1       0.596   9.056  20.436  0.00  0.00    +0.000 A 
BRANCH   3  10
ATOM      9  O   UNL     1      -0.925  10.556  17.924  0.00  0.00    +0.000 OA
ATOM     10  C   UNL     1       0.014  10.754  18.690  0.00  0.00    +0.000 C 
ATOM     11  N   UNL     1       0.352  12.011  19.172  0.00  0.00    +0.000 N 
ATOM     12  C   UNL     1      -0.486  13.164  18.889  0.00  0.00    +0.000 C 
ATOM     13  C   UNL     1       0.496  14.309  18.712  0.00  0.00    +0.000 C 
ATOM     14  C   UNL     1       1.616  13.954  19.678  0.00  0.00    +0.000 C 
ATOM     15  C   UNL     1       1.677  12.433  19.621  0.00  0.00    +0.000 C 
ENDBRANCH   3  10
ENDBRANCH   1   6
BRANCH   1  16
ATOM     16  S   UNL     1       2.515   4.639  19.712  0.00  0.00    +0.000 S 
ATOM     17  O   UNL     1       2.728   3.645  20.748  0.00  0.00    +0.000 OA
ATOM     18  O   UNL     1       1.275   4.707  18.981  0.00  0.00    +0.000 OA
BRANCH  16  19
ATOM     19  C   UNL     1       3.843   4.467  18.532  0.00  0.00    +0.000 A 
ATOM     20  C   UNL     1       3.562   4.033  17.233  0.00  0.00    +0.000 A 
ATOM     21  C   UNL     1       4.591   3.956  16.296  0.00  0.00    +0.000 A 
ATOM     22  C   UNL     1       5.892   4.328  16.647  0.00  0.00    +0.000 A 
ATOM     23  C   UNL     1       6.181   4.788  17.942  0.00  0.00    +0.000 A 
ATOM     24  C   UNL     1       5.143   4.852  18.888  0.00  0.00    +0.000 A 
BRANCH  23  25
ATOM     25  C   UNL     1       7.577   5.231  18.314  0.00  0.00    +0.000 C 
ATOM     26  F   UNL     1       7.718   5.533  19.635  0.00  0.00    +0.000 F 
ATOM     27  F   UNL     1       8.514   4.282  18.046  0.00  0.00    +0.000 F 
ATOM     28  F   UNL     1       7.965   6.347  17.635  0.00  0.00    +0.000 F 
ENDBRANCH  23  25
ENDBRANCH  16  19
ENDBRANCH   1  16
TORSDOF 5
ENDMDL
MODEL 6
REMARK VINA RESULT:      -8.2      2.024      3.008
REMARK  Name = 
REMARK  5 active torsions:
REMARK  status: ('A' for Active; 'I' for Inactive)
REMARK    1  A    between atoms: C_2  and  C_3
REMARK    2  A    between atoms: C_6  and  N_7
REMARK    3  A    between atoms: N_7  and  S_8
REMARK    4  A    between atoms: S_8  and  C_11
REMARK    5  A    between atoms: C_15  and  C_16
REMARK                            x       y       z     vdW  Elec       q    Type
REMARK                         _______ _______ _______ _____ _____    ______ ____
ROOT
ATOM      1  N   UNL     1       2.992   6.252  20.096  0.00  0.00    +0.000 N 
ATOM      2  H   UNL     1       3.376   6.149  21.033  0.00  0.00    +0.000 HD
ENDROOT
BRANCH   1   6
ATOM      3  C   UNL     1       0.793   9.677  19.050  0.00  0.00    +0.000 A 
ATOM      4  C   UNL     1       1.616   9.065  18.094  0.00  0.00    +0.000 A 
ATOM      5  C   UNL     1       2.363   7.930  18.437  0.00  0.00    +0.000 A 
ATOM      6  C   UNL     1       2.283   7.416  19.730  0.00  0.00    +0.000 A 
ATOM      7  C   UNL     1       1.436   7.995  20.670  0.00  0.00    +0.000 A 
ATOM      8  C   UNL     1       0.682   9.113  20.325  0.00  0.00    +0.000 A 
BRANCH   3  10
ATOM      9  O   UNL     1      -1.031  10.636  17.960  0.00  0.00    +0.000 OA
ATOM     10  C   UNL     1      -0.051  10.842  18.670  0.00  0.00    +0.000 C 
ATOM     11  N   UNL     1       0.284  12.097  19.162  0.00  0.00    +0.000 N 
ATOM     12  C   UNL     1      -0.603  13.231  18.964  0.00  0.00    +0.000 C 
ATOM     13  C   UNL     1       0.334  14.408  18.755  0.00  0.00    +0.000 C 
ATOM     14  C   UNL     1       1.523  14.063  19.638  0.00  0.00    +0.000 C 
ATOM     15  C   UNL     1       1.622  12.546  19.537  0.00  0.00    +0.000 C 
ENDBRANCH   3  10
ENDBRANCH   1   6
BRANCH   1  16
ATOM     16  S   UNL     1       3.044   4.916  19.091  0.00  0.00    +0.000 S 
ATOM     17  O   UNL     1       3.055   3.758  19.966  0.00  0.00    +0.000 OA
ATOM     18  O   UNL     1       2.058   5.061  18.050  0.00  0.00    +0.000 OA
BRANCH  16  19
ATOM     19  C   UNL     1       4.660   5.029  18.341  0.00  0.00    +0.000 A 
ATOM     20  C   UNL     1       5.782   5.250  19.146  0.00  0.00    +0.000 A 
ATOM     21  C   UNL     1       7.049   5.279  18.566  0.00  0.00    +0.000 A 
ATOM     22  C   UNL     1       7.199   5.068  17.192  0.00  0.00    +0.000 A 
ATOM     23  C   UNL     1       6.081   4.821  16.378  0.00  0.00    +0.000 A 
ATOM     24  C   UNL     1       4.804   4.806  16.965  0.00  0.00    +0.000 A 
BRANCH  23  25
ATOM     25  C   UNL     1       6.243   4.551  14.901  0.00  0.00    +0.000 C 
ATOM     26  F   UNL     1       6.264   3.224  14.589  0.00  0.00    +0.000 F 
ATOM     27  F   UNL     1       5.238   5.092  14.159  0.00  0.00    +0.000 F 
ATOM     28  F   UNL     1       7.401   5.067  14.401  0.00  0.00    +0.000 F 
ENDBRANCH  23  25
ENDBRANCH  16  19
ENDBRANCH   1  16
TORSDOF 5
ENDMDL
MODEL 7
REMARK VINA RESULT:      -8.1      4.337      8.271
REMARK  Name = 
REMARK  5 active torsions:
REMARK  status: ('A' for Active; 'I' for Inactive)
REMARK    1  A    between atoms: C_2  and  C_3
REMARK    2  A    between atoms: C_6  and  N_7
REMARK    3  A    between atoms: N_7  and  S_8
REMARK    4  A    between atoms: S_8  and  C_11
REMARK    5  A    between atoms: C_15  and  C_16
REMARK                            x       y       z     vdW  Elec       q    Type
REMARK                         _______ _______ _______ _____ _____    ______ ____
ROOT
ATOM      1  N   UNL     1       4.281   5.842  19.502  0.00  0.00    +0.000 N 
ATOM      2  H   UNL     1       4.793   6.272  20.270  0.00  0.00    +0.000 HD
ENDROOT
BRANCH   1   6
ATOM      3  C   UNL     1       6.205   5.204  15.822  0.00  0.00    +0.000 A 
ATOM      4  C   UNL     1       5.447   6.368  16.013  0.00  0.00    +0.000 A 
ATOM      5  C   UNL     1       4.792   6.584  17.232  0.00  0.00    +0.000 A 
ATOM      6  C   UNL     1       4.896   5.636  18.250  0.00  0.00    +0.000 A 
ATOM      7  C   UNL     1       5.681   4.500  18.079  0.00  0.00    +0.000 A 
ATOM      8  C   UNL     1       6.346   4.293  16.874  0.00  0.00    +0.000 A 
BRANCH   3  10
ATOM      9  O   UNL     1       8.014   5.610  14.408  0.00  0.00    +0.000 OA
ATOM     10  C   UNL     1       6.956   5.005  14.552  0.00  0.00    +0.000 C 
ATOM     11  N   UNL     1       6.449   4.120  13.610  0.00  0.00    +0.000 N 
ATOM     12  C   UNL     1       7.229   3.760  12.437  0.00  0.00    +0.000 C 
ATOM     13  C   UNL     1       6.199   3.623  11.329  0.00  0.00    +0.000 C 
ATOM     14  C   UNL     1       4.975   3.094  12.061  0.00  0.00    +0.000 C 
ATOM     15  C   UNL     1       5.043   3.774  13.422  0.00  0.00    +0.000 C 
ENDBRANCH   3  10
ENDBRANCH   1   6
BRANCH   1  16
ATOM     16  S   UNL     1       2.641   5.592  19.714  0.00  0.00    +0.000 S 
ATOM     17  O   UNL     1       2.161   5.007  18.476  0.00  0.00    +0.000 OA
ATOM     18  O   UNL     1       2.414   4.951  20.984  0.00  0.00    +0.000 OA
BRANCH  16  19
ATOM     19  C   UNL     1       1.982   7.248  19.807  0.00  0.00    +0.000 A 
ATOM     20  C   UNL     1       2.034   8.078  18.682  0.00  0.00    +0.000 A 
ATOM     21  C   UNL     1       1.466   9.349  18.738  0.00  0.00    +0.000 A 
ATOM     22  C   UNL     1       0.831   9.786  19.904  0.00  0.00    +0.000 A 
ATOM     23  C   UNL     1       0.752   8.953  21.033  0.00  0.00    +0.000 A 
ATOM     24  C   UNL     1       1.338   7.676  20.977  0.00  0.00    +0.000 A 
BRANCH  23  25
ATOM     25  C   UNL     1       0.031   9.404  22.281  0.00  0.00    +0.000 C 
ATOM     26  F   UNL     1      -0.534  10.639  22.166  0.00  0.00    +0.000 F 
ATOM     27  F   UNL     1      -0.980   8.563  22.631  0.00  0.00    +0.000 F 
ATOM     28  F   UNL     1       0.857   9.473  23.362  0.00  0.00    +0.000 F 
ENDBRANCH  23  25
ENDBRANCH  16  19
ENDBRANCH   1  16
TORSDOF 5
ENDMDL
MODEL 8
REMARK VINA RESULT:      -8.1      2.042      2.938
REMARK  Name = 
REMARK  5 active torsions:
REMARK  status: ('A' for Active; 'I' for Inactive)
REMARK    1  A    between atoms: C_2  and  C_3
REMARK    2  A    between atoms: C_6  and  N_7
REMARK    3  A    between atoms: N_7  and  S_8
REMARK    4  A    between atoms: S_8  and  C_11
REMARK    5  A    between atoms: C_15  and  C_16
REMARK                            x       y       z     vdW  Elec       q    Type
REMARK                         _______ _______ _______ _____ _____    ______ ____
ROOT
ATOM      1  N   UNL     1       3.004   6.338  20.099  0.00  0.00    +0.000 N 
ATOM      2  H   UNL     1       3.473   6.289  21.002  0.00  0.00    +0.000 HD
ENDROOT
BRANCH   1   6
ATOM      3  C   UNL     1       0.696   9.688  19.048  0.00  0.00    +0.000 A 
ATOM      4  C   UNL     1       0.605   9.165  20.346  0.00  0.00    +0.000 A 
ATOM      5  C   UNL     1       1.361   8.041  20.702  0.00  0.00    +0.000 A 
ATOM      6  C   UNL     1       2.201   7.447  19.761  0.00  0.00    +0.000 A 
ATOM      7  C   UNL     1       2.327   7.988  18.485  0.00  0.00    +0.000 A 
ATOM      8  C   UNL     1       1.588   9.114  18.135  0.00  0.00    +0.000 A 
BRANCH   3  10
ATOM      9  O   UNL     1      -1.057  10.802  17.988  0.00  0.00    +0.000 OA
ATOM     10  C   UNL     1      -0.055  10.921  18.687  0.00  0.00    +0.000 C 
ATOM     11  N   UNL     1       0.386  12.140  19.186  0.00  0.00    +0.000 N 
ATOM     12  C   UNL     1      -0.408  13.344  19.009  0.00  0.00    +0.000 C 
ATOM     13  C   UNL     1       0.619  14.443  18.799  0.00  0.00    +0.000 C 
ATOM     14  C   UNL     1       1.787  13.994  19.664  0.00  0.00    +0.000 C 
ATOM     15  C   UNL     1       1.761  12.476  19.549  0.00  0.00    +0.000 C 
ENDBRANCH   3  10
ENDBRANCH   1   6
BRANCH   1  16
ATOM     16  S   UNL     1       3.047   4.971  19.135  0.00  0.00    +0.000 S 
ATOM     17  O   UNL     1       3.059   3.840  20.045  0.00  0.00    +0.000 OA
ATOM     18  O   UNL     1       2.056   5.087  18.095  0.00  0.00    +0.000 OA
BRANCH  16  19
ATOM     19  C   UNL     1       4.659   5.055  18.374  0.00  0.00    +0.000 A 
ATOM     20  C   UNL     1       5.789   5.267  19.170  0.00  0.00    +0.000 A 
ATOM     21  C   UNL     1       7.053   5.273  18.582  0.00  0.00    +0.000 A 
ATOM     22  C   UNL     1       7.191   5.050  17.209  0.00  0.00    +0.000 A 
ATOM     23  C   UNL     1       6.065   4.813  16.403  0.00  0.00    +0.000 A 
ATOM     24  C   UNL     1       4.791   4.820  16.998  0.00  0.00    +0.000 A 
BRANCH  23  25
ATOM     25  C   UNL     1       6.213   4.529  14.927  0.00  0.00    +0.000 C 
ATOM     26  F   UNL     1       7.356   5.038  14.387  0.00  0.00    +0.000 F 
ATOM     27  F   UNL     1       6.232   3.196  14.652  0.00  0.00    +0.000 F 
ATOM     28  F   UNL     1       5.191   5.051  14.193  0.00  0.00    +0.000 F 
ENDBRANCH  23  25
ENDBRANCH  16  19
ENDBRANCH   1  16
TORSDOF 5
ENDMDL
MODEL 9
REMARK VINA RESULT:      -8.0      4.294      8.213
REMARK  Name = 
REMARK  5 active torsions:
REMARK  status: ('A' for Active; 'I' for Inactive)
REMARK    1  A    between atoms: C_2  and  C_3
REMARK    2  A    between atoms: C_6  and  N_7
REMARK    3  A    between atoms: N_7  and  S_8
REMARK    4  A    between atoms: S_8  and  C_11
REMARK    5  A    between atoms: C_15  and  C_16
REMARK                            x       y       z     vdW  Elec       q    Type
REMARK                         _______ _______ _______ _____ _____    ______ ____
ROOT
ATOM      1  N   UNL     1       4.294   5.797  19.450  0.00  0.00    +0.000 N 
ATOM      2  H   UNL     1       4.745   6.201  20.269  0.00  0.00    +0.000 HD
ENDROOT
BRANCH   1   6
ATOM      3  C   UNL     1       6.356   5.243  15.831  0.00  0.00    +0.000 A 
ATOM      4  C   UNL     1       6.340   4.213  16.783  0.00  0.00    +0.000 A 
ATOM      5  C   UNL     1       5.666   4.393  17.998  0.00  0.00    +0.000 A 
ATOM      6  C   UNL     1       5.014   5.599  18.254  0.00  0.00    +0.000 A 
ATOM      7  C   UNL     1       4.991   6.607  17.295  0.00  0.00    +0.000 A 
ATOM      8  C   UNL     1       5.647   6.423  16.082  0.00  0.00    +0.000 A 
BRANCH   3  10
ATOM      9  O   UNL     1       8.062   5.629  14.289  0.00  0.00    +0.000 OA
ATOM     10  C   UNL     1       7.014   5.029  14.514  0.00  0.00    +0.000 C 
ATOM     11  N   UNL     1       6.439   4.138  13.618  0.00  0.00    +0.000 N 
ATOM     12  C   UNL     1       7.132   3.764  12.397  0.00  0.00    +0.000 C 
ATOM     13  C   UNL     1       6.026   3.622  11.366  0.00  0.00    +0.000 C 
ATOM     14  C   UNL     1       4.854   3.105  12.186  0.00  0.00    +0.000 C 
ATOM     15  C   UNL     1       5.021   3.797  13.533  0.00  0.00    +0.000 C 
ENDBRANCH   3  10
ENDBRANCH   1   6
BRANCH   1  16
ATOM     16  S   UNL     1       2.636   5.586  19.510  0.00  0.00    +0.000 S 
ATOM     17  O   UNL     1       2.251   5.074  18.209  0.00  0.00    +0.000 OA
ATOM     18  O   UNL     1       2.286   4.892  20.724  0.00  0.00    +0.000 OA
BRANCH  16  19
ATOM     19  C   UNL     1       2.013   7.254  19.629  0.00  0.00    +0.000 A 
ATOM     20  C   UNL     1       2.040   8.084  18.504  0.00  0.00    +0.000 A 
ATOM     21  C   UNL     1       1.499   9.366  18.581  0.00  0.00    +0.000 A 
ATOM     22  C   UNL     1       0.915   9.812  19.771  0.00  0.00    +0.000 A 
ATOM     23  C   UNL     1       0.861   8.979  20.900  0.00  0.00    +0.000 A 
ATOM     24  C   UNL     1       1.419   7.691  20.821  0.00  0.00    +0.000 A 
BRANCH  23  25
ATOM     25  C   UNL     1       0.193   9.441  22.174  0.00  0.00    +0.000 C 
ATOM     26  F   UNL     1      -0.886   8.688  22.528  0.00  0.00    +0.000 F 
ATOM     27  F   UNL     1       1.034   9.412  23.243  0.00  0.00    +0.000 F 
ATOM     28  F   UNL     1      -0.263  10.722  22.086  0.00  0.00    +0.000 F 
ENDBRANCH  23  25
ENDBRANCH  16  19
ENDBRANCH   1  16
TORSDOF 5
ENDMDL
