MODEL 1
REMARK VINA RESULT:     -10.2      0.000      0.000
REMARK  Name = 
REMARK  6 active torsions:
REMARK  status: ('A' for Active; 'I' for Inactive)
REMARK    1  A    between atoms: C_1  and  C_2
REMARK    2  A    between atoms: C_8  and  C_9
REMARK    3  A    between atoms: N_11  and  C_12
REMARK    4  A    between atoms: C_17  and  C_18
REMARK    5  A    between atoms: N_20  and  C_21
REMARK    6  A    between atoms: C_21  and  C_22
REMARK                            x       y       z     vdW  Elec       q    Type
REMARK                         _______ _______ _______ _____ _____    ______ ____
ROOT
ATOM      1  C   UNL     1       3.625   4.035  19.664  0.00  0.00    +0.000 A 
ATOM      2  C   UNL     1       3.774   2.765  20.242  0.00  0.00    +0.000 A 
ATOM      3  C   UNL     1       2.944   2.360  21.289  0.00  0.00    +0.000 A 
ATOM      4  C   UNL     1       1.935   3.203  21.744  0.00  0.00    +0.000 A 
ATOM      5  C   UNL     1       1.763   4.457  21.158  0.00  0.00    +0.000 A 
ATOM      6  C   UNL     1       2.606   4.893  20.118  0.00  0.00    +0.000 A 
ENDROOT
BRANCH   1   9
ATOM      7  C   UNL     1       4.326   4.026  17.371  0.00  0.00    +0.000 C 
ATOM      8  O   UNL     1       3.354   3.370  17.016  0.00  0.00    +0.000 OA
ATOM      9  N   UNL     1       4.585   4.417  18.686  0.00  0.00    +0.000 N 
ATOM     10  H   UNL     1       4.859   5.395  18.730  0.00  0.00    +0.000 HD
BRANCH   7  18
ATOM     11  C   UNL     1       5.865   3.075  11.862  0.00  0.00    +0.000 C 
ATOM     12  C   UNL     1       6.543   4.008  12.793  0.00  0.00    +0.000 A 
ATOM     13  N   UNL     1       7.651   4.658  12.416  0.00  0.00    +0.000 NA
ATOM     14  O   UNL     1       8.041   5.408  13.519  0.00  0.00    +0.000 OA
ATOM     15  C   UNL     1       7.169   5.204  14.547  0.00  0.00    +0.000 A 
ATOM     16  N   UNL     1       7.283   5.772  15.765  0.00  0.00    +0.000 NA
ATOM     17  C   UNL     1       6.321   5.365  16.631  0.00  0.00    +0.000 A 
ATOM     18  C   UNL     1       5.273   4.498  16.334  0.00  0.00    +0.000 A 
ATOM     19  C   UNL     1       5.180   3.969  15.040  0.00  0.00    +0.000 A 
ATOM     20  C   UNL     1       6.183   4.324  14.126  0.00  0.00    +0.000 A 
ENDBRANCH   7  18
ENDBRANCH   1   9
BRANCH   6  21
ATOM     21  C   UNL     1       2.291   6.242  19.556  0.00  0.00    +0.000 C 
ATOM     22  O   UNL     1       2.378   6.435  18.347  0.00  0.00    +0.000 OA
ATOM     23  N   UNL     1       2.003   7.251  20.446  0.00  0.00    +0.000 N 
ATOM     24  H   UNL     1       1.886   7.030  21.425  0.00  0.00    +0.000 HD
BRANCH  23  25
ATOM     25  C   UNL     1       1.709   8.591  19.983  0.00  0.00    +0.000 C 
BRANCH  25  26
ATOM     26  C   UNL     1       0.836   9.344  20.955  0.00  0.00    +0.000 A 
ATOM     27  C   UNL     1       0.105  10.467  20.531  0.00  0.00    +0.000 A 
ATOM     28  C   UNL     1      -0.739  11.141  21.412  0.00  0.00    +0.000 A 
ATOM     29  C   UNL     1      -0.870  10.700  22.732  0.00  0.00    +0.000 A 
ATOM     30  C   UNL     1      -0.156   9.583  23.159  0.00  0.00    +0.000 A 
ATOM     31  C   UNL     1       0.693   8.908  22.279  0.00  0.00    +0.000 A 
ENDBRANCH  25  26
ENDBRANCH  23  25
ENDBRANCH   6  21
TORSDOF 5
ENDMDL
MODEL 2
REMARK VINA RESULT:      -9.8      1.279      1.697
REMARK  Name = 
REMARK  6 active torsions:
REMARK  status: ('A' for Active; 'I' for Inactive)
REMARK    1  A    between atoms: C_1  and  C_2
REMARK    2  A    between atoms: C_8  and  C_9
REMARK    3  A    between atoms: N_11  and  C_12
REMARK    4  A    between atoms: C_17  and  C_18
REMARK    5  A    between atoms: N_20  and  C_21
REMARK    6  A    between atoms: C_21  and  C_22
REMARK                            x       y       z     vdW  Elec       q    Type
REMARK                         _______ _______ _______ _____ _____    ______ ____
ROOT
ATOM      1  C   UNL     1       2.416   4.045  18.532  0.00  0.00    +0.000 A 
ATOM      2  C   UNL     1       2.022   2.699  18.471  0.00  0.00    +0.000 A 
ATOM      3  C   UNL     1       1.294   2.124  19.515  0.00  0.00    +0.000 A 
ATOM      4  C   UNL     1       0.922   2.896  20.612  0.00  0.00    +0.000 A 
ATOM      5  C   UNL     1       1.287   4.240  20.669  0.00  0.00    +0.000 A 
ATOM      6  C   UNL     1       2.042   4.832  19.638  0.00  0.00    +0.000 A 
ENDROOT
BRANCH   1   9
ATOM      7  C   UNL     1       4.622   4.267  17.620  0.00  0.00    +0.000 C 
ATOM      8  O   UNL     1       5.137   3.690  18.570  0.00  0.00    +0.000 OA
ATOM      9  N   UNL     1       3.256   4.521  17.487  0.00  0.00    +0.000 N 
ATOM     10  H   UNL     1       2.929   4.291  16.552  0.00  0.00    +0.000 HD
BRANCH   7  18
ATOM     11  C   UNL     1       5.713   3.063  12.054  0.00  0.00    +0.000 C 
ATOM     12  C   UNL     1       6.474   4.021  12.889  0.00  0.00    +0.000 A 
ATOM     13  N   UNL     1       7.559   4.636  12.400  0.00  0.00    +0.000 NA
ATOM     14  O   UNL     1       8.045   5.425  13.437  0.00  0.00    +0.000 OA
ATOM     15  C   UNL     1       7.252   5.278  14.536  0.00  0.00    +0.000 A 
ATOM     16  N   UNL     1       7.469   5.894  15.717  0.00  0.00    +0.000 NA
ATOM     17  C   UNL     1       6.572   5.540  16.672  0.00  0.00    +0.000 A 
ATOM     18  C   UNL     1       5.492   4.679  16.493  0.00  0.00    +0.000 A 
ATOM     19  C   UNL     1       5.290   4.099  15.234  0.00  0.00    +0.000 A 
ATOM     20  C   UNL     1       6.224   4.399  14.231  0.00  0.00    +0.000 A 
ENDBRANCH   7  18
ENDBRANCH   1   9
BRANCH   6  21
ATOM     21  C   UNL     1       2.337   6.287  19.807  0.00  0.00    +0.000 C 
ATOM     22  O   UNL     1       3.297   6.787  19.228  0.00  0.00    +0.000 OA
ATOM     23  N   UNL     1       1.558   6.995  20.694  0.00  0.00    +0.000 N 
ATOM     24  H   UNL     1       0.744   6.555  21.100  0.00  0.00    +0.000 HD
BRANCH  23  25
ATOM     25  C   UNL     1       1.793   8.404  20.930  0.00  0.00    +0.000 C 
BRANCH  25  26
ATOM     26  C   UNL     1       0.853   9.274  20.133  0.00  0.00    +0.000 A 
ATOM     27  C   UNL     1       0.956   9.332  18.733  0.00  0.00    +0.000 A 
ATOM     28  C   UNL     1       0.062  10.098  17.986  0.00  0.00    +0.000 A 
ATOM     29  C   UNL     1      -0.952  10.815  18.627  0.00  0.00    +0.000 A 
ATOM     30  C   UNL     1      -1.067  10.756  20.013  0.00  0.00    +0.000 A 
ATOM     31  C   UNL     1      -0.171   9.992  20.764  0.00  0.00    +0.000 A 
ENDBRANCH  25  26
ENDBRANCH  23  25
ENDBRANCH   6  21
TORSDOF 5
ENDMDL
MODEL 3
REMARK VINA RESULT:      -9.8      0.913      1.258
REMARK  Name = 
REMARK  6 active torsions:
REMARK  status: ('A' for Active; 'I' for Inactive)
REMARK    1  A    between atoms: C_1  and  C_2
REMARK    2  A    between atoms: C_8  and  C_9
REMARK    3  A    between atoms: N_11  and  C_12
REMARK    4  A    between atoms: C_17  and  C_18
REMARK    5  A    between atoms: N_20  and  C_21
REMARK    6  A    between atoms: C_21  and  C_22
REMARK                            x       y       z     vdW  Elec       q    Type
REMARK                         _______ _______ _______ _____ _____    ______ ____
ROOT
ATOM      1  C   UNL     1       2.962   4.197  18.773  0.00  0.00    +0.000 A 
ATOM      2  C   UNL     1       2.880   2.843  19.131  0.00  0.00    +0.000 A 
ATOM      3  C   UNL     1       2.338   2.466  20.362  0.00  0.00    +0.000 A 
ATOM      4  C   UNL     1       1.840   3.433  21.229  0.00  0.00    +0.000 A 
ATOM      5  C   UNL     1       1.894   4.780  20.870  0.00  0.00    +0.000 A 
ATOM      6  C   UNL     1       2.459   5.182  19.645  0.00  0.00    +0.000 A 
ENDROOT
BRANCH   1   9
ATOM      7  C   UNL     1       5.030   4.484  17.594  0.00  0.00    +0.000 C 
ATOM      8  O   UNL     1       5.699   4.242  18.592  0.00  0.00    +0.000 OA
ATOM      9  N   UNL     1       3.635   4.505  17.558  0.00  0.00    +0.000 N 
ATOM     10  H   UNL     1       3.282   4.004  16.747  0.00  0.00    +0.000 HD
BRANCH   7  18
ATOM     11  C   UNL     1       5.107   2.714  12.074  0.00  0.00    +0.000 C 
ATOM     12  C   UNL     1       6.068   3.662  12.684  0.00  0.00    +0.000 A 
ATOM     13  N   UNL     1       7.106   4.127  11.976  0.00  0.00    +0.000 NA
ATOM     14  O   UNL     1       7.814   4.951  12.843  0.00  0.00    +0.000 OA
ATOM     15  C   UNL     1       7.200   4.974  14.060  0.00  0.00    +0.000 A 
ATOM     16  N   UNL     1       7.655   5.664  15.127  0.00  0.00    +0.000 NA
ATOM     17  C   UNL     1       6.898   5.480  16.237  0.00  0.00    +0.000 A 
ATOM     18  C   UNL     1       5.737   4.715  16.313  0.00  0.00    +0.000 A 
ATOM     19  C   UNL     1       5.288   4.051  15.163  0.00  0.00    +0.000 A 
ATOM     20  C   UNL     1       6.069   4.174  14.004  0.00  0.00    +0.000 A 
ENDBRANCH   7  18
ENDBRANCH   1   9
BRANCH   6  21
ATOM     21  C   UNL     1       2.422   6.650  19.368  0.00  0.00    +0.000 C 
ATOM     22  O   UNL     1       3.137   7.124  18.490  0.00  0.00    +0.000 OA
ATOM     23  N   UNL     1       1.643   7.433  20.189  0.00  0.00    +0.000 N 
ATOM     24  H   UNL     1       1.028   6.991  20.858  0.00  0.00    +0.000 HD
BRANCH  23  25
ATOM     25  C   UNL     1       1.570   8.867  20.000  0.00  0.00    +0.000 C 
BRANCH  25  26
ATOM     26  C   UNL     1       0.686   9.526  21.029  0.00  0.00    +0.000 A 
ATOM     27  C   UNL     1       0.288   8.824  22.179  0.00  0.00    +0.000 A 
ATOM     28  C   UNL     1      -0.491   9.442  23.155  0.00  0.00    +0.000 A 
ATOM     29  C   UNL     1      -0.881  10.775  23.000  0.00  0.00    +0.000 A 
ATOM     30  C   UNL     1      -0.485  11.482  21.868  0.00  0.00    +0.000 A 
ATOM     31  C   UNL     1       0.294  10.864  20.887  0.00  0.00    +0.000 A 
ENDBRANCH  25  26
ENDBRANCH  23  25
ENDBRANCH   6  21
TORSDOF 5
ENDMDL
MODEL 4
REMARK VINA RESULT:      -9.3      1.516      1.969
REMARK  Name = 
REMARK  6 active torsions:
REMARK  status: ('A' for Active; 'I' for Inactive)
REMARK    1  A    between atoms: C_1  and  C_2
REMARK    2  A    between atoms: C_8  and  C_9
REMARK    3  A    between atoms: N_11  and  C_12
REMARK    4  A    between atoms: C_17  and  C_18
REMARK    5  A    between atoms: N_20  and  C_21
REMARK    6  A    between atoms: C_21  and  C_22
REMARK                            x       y       z     vdW  Elec       q    Type
REMARK                         _______ _______ _______ _____ _____    ______ ____
ROOT
ATOM      1  C   UNL     1       2.388   3.937  18.252  0.00  0.00    +0.000 A 
ATOM      2  C   UNL     1       1.986   2.593  18.287  0.00  0.00    +0.000 A 
ATOM      3  C   UNL     1       1.278   2.092  19.381  0.00  0.00    +0.000 A 
ATOM      4  C   UNL     1       0.934   2.935  20.433  0.00  0.00    +0.000 A 
ATOM      5  C   UNL     1       1.306   4.279  20.394  0.00  0.00    +0.000 A 
ATOM      6  C   UNL     1       2.042   4.797  19.311  0.00  0.00    +0.000 A 
ENDROOT
BRANCH   1   9
ATOM      7  C   UNL     1       4.586   4.323  17.376  0.00  0.00    +0.000 C 
ATOM      8  O   UNL     1       5.125   4.010  18.431  0.00  0.00    +0.000 OA
ATOM      9  N   UNL     1       3.207   4.339  17.160  0.00  0.00    +0.000 N 
ATOM     10  H   UNL     1       2.969   3.898  16.276  0.00  0.00    +0.000 HD
BRANCH   7  18
ATOM     11  C   UNL     1       5.523   2.839  11.850  0.00  0.00    +0.000 C 
ATOM     12  C   UNL     1       6.335   3.802  12.628  0.00  0.00    +0.000 A 
ATOM     13  N   UNL     1       7.432   4.353  12.094  0.00  0.00    +0.000 NA
ATOM     14  O   UNL     1       7.967   5.167  13.086  0.00  0.00    +0.000 OA
ATOM     15  C   UNL     1       7.191   5.098  14.204  0.00  0.00    +0.000 A 
ATOM     16  N   UNL     1       7.454   5.756  15.353  0.00  0.00    +0.000 NA
ATOM     17  C   UNL     1       6.563   5.478  16.338  0.00  0.00    +0.000 A 
ATOM     18  C   UNL     1       5.448   4.652  16.217  0.00  0.00    +0.000 A 
ATOM     19  C   UNL     1       5.201   4.026  14.988  0.00  0.00    +0.000 A 
ATOM     20  C   UNL     1       6.126   4.247  13.956  0.00  0.00    +0.000 A 
ENDBRANCH   7  18
ENDBRANCH   1   9
BRANCH   6  21
ATOM     21  C   UNL     1       2.346   6.258  19.379  0.00  0.00    +0.000 C 
ATOM     22  O   UNL     1       2.766   6.747  20.424  0.00  0.00    +0.000 OA
ATOM     23  N   UNL     1       2.050   7.022  18.273  0.00  0.00    +0.000 N 
ATOM     24  H   UNL     1       1.763   6.567  17.419  0.00  0.00    +0.000 HD
BRANCH  23  25
ATOM     25  C   UNL     1       2.296   8.449  18.267  0.00  0.00    +0.000 C 
BRANCH  25  26
ATOM     26  C   UNL     1       1.081   9.232  18.697  0.00  0.00    +0.000 A 
ATOM     27  C   UNL     1       0.925   9.621  20.038  0.00  0.00    +0.000 A 
ATOM     28  C   UNL     1      -0.173  10.384  20.433  0.00  0.00    +0.000 A 
ATOM     29  C   UNL     1      -1.130  10.776  19.493  0.00  0.00    +0.000 A 
ATOM     30  C   UNL     1      -0.979  10.402  18.160  0.00  0.00    +0.000 A 
ATOM     31  C   UNL     1       0.119   9.635  17.762  0.00  0.00    +0.000 A 
ENDBRANCH  25  26
ENDBRANCH  23  25
ENDBRANCH   6  21
TORSDOF 5
ENDMDL
MODEL 5
REMARK VINA RESULT:      -9.1      2.250      8.642
REMARK  Name = 
REMARK  6 active torsions:
REMARK  status: ('A' for Active; 'I' for Inactive)
REMARK    1  A    between atoms: C_1  and  C_2
REMARK    2  A    between atoms: C_8  and  C_9
REMARK    3  A    between atoms: N_11  and  C_12
REMARK    4  A    between atoms: C_17  and  C_18
REMARK    5  A    between atoms: N_20  and  C_21
REMARK    6  A    between atoms: C_21  and  C_22
REMARK                            x       y       z     vdW  Elec       q    Type
REMARK                         _______ _______ _______ _____ _____    ______ ____
ROOT
ATOM      1  C   UNL     1       2.368   4.401  18.196  0.00  0.00    +0.000 A 
ATOM      2  C   UNL     1       1.433   3.546  18.799  0.00  0.00    +0.000 A 
ATOM      3  C   UNL     1       1.651   2.167  18.837  0.00  0.00    +0.000 A 
ATOM      4  C   UNL     1       2.821   1.633  18.306  0.00  0.00    +0.000 A 
ATOM      5  C   UNL     1       3.769   2.477  17.728  0.00  0.00    +0.000 A 
ATOM      6  C   UNL     1       3.555   3.867  17.658  0.00  0.00    +0.000 A 
ENDROOT
BRANCH   1   9
ATOM      7  C   UNL     1       2.287   6.574  19.203  0.00  0.00    +0.000 C 
ATOM      8  O   UNL     1       2.780   6.171  20.250  0.00  0.00    +0.000 OA
ATOM      9  N   UNL     1       2.016   5.775  18.091  0.00  0.00    +0.000 N 
ATOM     10  H   UNL     1       2.330   6.221  17.234  0.00  0.00    +0.000 HD
BRANCH   7  18
ATOM     11  C   UNL     1      -0.422  10.940  21.890  0.00  0.00    +0.000 C 
ATOM     12  C   UNL     1       0.232  11.024  20.563  0.00  0.00    +0.000 A 
ATOM     13  N   UNL     1       0.163  12.150  19.841  0.00  0.00    +0.000 NA
ATOM     14  O   UNL     1       0.840  11.881  18.657  0.00  0.00    +0.000 OA
ATOM     15  C   UNL     1       1.307  10.600  18.676  0.00  0.00    +0.000 A 
ATOM     16  N   UNL     1       1.987  10.025  17.662  0.00  0.00    +0.000 NA
ATOM     17  C   UNL     1       2.294   8.725  17.901  0.00  0.00    +0.000 A 
ATOM     18  C   UNL     1       2.008   8.023  19.069  0.00  0.00    +0.000 A 
ATOM     19  C   UNL     1       1.334   8.682  20.106  0.00  0.00    +0.000 A 
ATOM     20  C   UNL     1       0.954  10.014  19.882  0.00  0.00    +0.000 A 
ENDBRANCH   7  18
ENDBRANCH   1   9
BRANCH   6  21
ATOM     21  C   UNL     1       4.664   4.660  17.045  0.00  0.00    +0.000 C 
ATOM     22  O   UNL     1       4.497   5.850  16.795  0.00  0.00    +0.000 OA
ATOM     23  N   UNL     1       5.811   3.985  16.697  0.00  0.00    +0.000 N 
ATOM     24  H   UNL     1       5.924   3.021  16.976  0.00  0.00    +0.000 HD
BRANCH  23  25
ATOM     25  C   UNL     1       6.923   4.677  16.078  0.00  0.00    +0.000 C 
BRANCH  25  26
ATOM     26  C   UNL     1       6.904   4.546  14.576  0.00  0.00    +0.000 A 
ATOM     27  C   UNL     1       7.753   5.335  13.783  0.00  0.00    +0.000 A 
ATOM     28  C   UNL     1       7.774   5.187  12.397  0.00  0.00    +0.000 A 
ATOM     29  C   UNL     1       6.948   4.242  11.782  0.00  0.00    +0.000 A 
ATOM     30  C   UNL     1       6.109   3.450  12.559  0.00  0.00    +0.000 A 
ATOM     31  C   UNL     1       6.085   3.598  13.949  0.00  0.00    +0.000 A 
ENDBRANCH  25  26
ENDBRANCH  23  25
ENDBRANCH   6  21
TORSDOF 5
ENDMDL
MODEL 6
REMARK VINA RESULT:      -9.0      1.102      1.202
REMARK  Name = 
REMARK  6 active torsions:
REMARK  status: ('A' for Active; 'I' for Inactive)
REMARK    1  A    between atoms: C_1  and  C_2
REMARK    2  A    between atoms: C_8  and  C_9
REMARK    3  A    between atoms: N_11  and  C_12
REMARK    4  A    between atoms: C_17  and  C_18
REMARK    5  A    between atoms: N_20  and  C_21
REMARK    6  A    between atoms: C_21  and  C_22
REMARK                            x       y       z     vdW  Elec       q    Type
REMARK                         _______ _______ _______ _____ _____    ______ ____
ROOT
ATOM      1  C   UNL     1       3.598   3.388  18.851  0.00  0.00    +0.000 A 
ATOM      2  C   UNL     1       3.973   2.215  19.525  0.00  0.00    +0.000 A 
ATOM      3  C   UNL     1       3.531   1.971  20.827  0.00  0.00    +0.000 A 
ATOM      4  C   UNL     1       2.683   2.877  21.455  0.00  0.00    +0.000 A 
ATOM      5  C   UNL     1       2.283   4.033  20.784  0.00  0.00    +0.000 A 
ATOM      6  C   UNL     1       2.738   4.308  19.480  0.00  0.00    +0.000 A 
ENDROOT
BRANCH   1   9
ATOM      7  C   UNL     1       5.180   4.596  17.515  0.00  0.00    +0.000 C 
ATOM      8  O   UNL     1       5.558   5.269  18.467  0.00  0.00    +0.000 OA
ATOM      9  N   UNL     1       4.185   3.618  17.576  0.00  0.00    +0.000 N 
ATOM     10  H   UNL     1       4.472   2.773  17.090  0.00  0.00    +0.000 HD
BRANCH   7  18
ATOM     11  C   UNL     1       5.019   2.757  12.019  0.00  0.00    +0.000 C 
ATOM     12  C   UNL     1       6.039   3.668  12.589  0.00  0.00    +0.000 A 
ATOM     13  N   UNL     1       7.076   4.077  11.846  0.00  0.00    +0.000 NA
ATOM     14  O   UNL     1       7.846   4.877  12.682  0.00  0.00    +0.000 OA
ATOM     15  C   UNL     1       7.269   4.943  13.915  0.00  0.00    +0.000 A 
ATOM     16  N   UNL     1       7.784   5.625  14.959  0.00  0.00    +0.000 NA
ATOM     17  C   UNL     1       7.052   5.489  16.093  0.00  0.00    +0.000 A 
ATOM     18  C   UNL     1       5.859   4.778  16.211  0.00  0.00    +0.000 A 
ATOM     19  C   UNL     1       5.349   4.122  15.083  0.00  0.00    +0.000 A 
ATOM     20  C   UNL     1       6.101   4.195  13.901  0.00  0.00    +0.000 A 
ENDBRANCH   7  18
ENDBRANCH   1   9
BRANCH   6  21
ATOM     21  C   UNL     1       2.207   5.562  18.864  0.00  0.00    +0.000 C 
ATOM     22  O   UNL     1       1.492   5.497  17.868  0.00  0.00    +0.000 OA
ATOM     23  N   UNL     1       2.628   6.760  19.395  0.00  0.00    +0.000 N 
ATOM     24  H   UNL     1       3.167   6.761  20.249  0.00  0.00    +0.000 HD
BRANCH  23  25
ATOM     25  C   UNL     1       2.176   8.019  18.842  0.00  0.00    +0.000 C 
BRANCH  25  26
ATOM     26  C   UNL     1       1.319   8.788  19.815  0.00  0.00    +0.000 A 
ATOM     27  C   UNL     1       0.589   9.909  19.387  0.00  0.00    +0.000 A 
ATOM     28  C   UNL     1      -0.242  10.597  20.270  0.00  0.00    +0.000 A 
ATOM     29  C   UNL     1      -0.359  10.172  21.596  0.00  0.00    +0.000 A 
ATOM     30  C   UNL     1       0.354   9.057  22.028  0.00  0.00    +0.000 A 
ATOM     31  C   UNL     1       1.189   8.368  21.145  0.00  0.00    +0.000 A 
ENDBRANCH  25  26
ENDBRANCH  23  25
ENDBRANCH   6  21
TORSDOF 5
ENDMDL
MODEL 7
REMARK VINA RESULT:      -8.7      2.484      7.718
REMARK  Name = 
REMARK  6 active torsions:
REMARK  status: ('A' for Active; 'I' for Inactive)
REMARK    1  A    between atoms: C_1  and  C_2
REMARK    2  A    between atoms: C_8  and  C_9
REMARK    3  A    between atoms: N_11  and  C_12
REMARK    4  A    between atoms: C_17  and  C_18
REMARK    5  A    between atoms: N_20  and  C_21
REMARK    6  A    between atoms: C_21  and  C_22
REMARK                            x       y       z     vdW  Elec       q    Type
REMARK                         _______ _______ _______ _____ _____    ______ ____
ROOT
ATOM      1  C   UNL     1       2.117   4.258  18.409  0.00  0.00    +0.000 A 
ATOM      2  C   UNL     1       1.174   3.454  19.068  0.00  0.00    +0.000 A 
ATOM      3  C   UNL     1       1.352   2.071  19.148  0.00  0.00    +0.000 A 
ATOM      4  C   UNL     1       2.489   1.483  18.603  0.00  0.00    +0.000 A 
ATOM      5  C   UNL     1       3.444   2.277  17.970  0.00  0.00    +0.000 A 
ATOM      6  C   UNL     1       3.271   3.670  17.857  0.00  0.00    +0.000 A 
ENDROOT
BRANCH   1   9
ATOM      7  C   UNL     1       2.180   6.475  19.319  0.00  0.00    +0.000 C 
ATOM      8  O   UNL     1       2.733   6.101  20.346  0.00  0.00    +0.000 OA
ATOM      9  N   UNL     1       1.804   5.638  18.267  0.00  0.00    +0.000 N 
ATOM     10  H   UNL     1       2.069   6.036  17.369  0.00  0.00    +0.000 HD
BRANCH   7  18
ATOM     11  C   UNL     1      -0.340  11.012  21.903  0.00  0.00    +0.000 C 
ATOM     12  C   UNL     1       0.286  11.029  20.561  0.00  0.00    +0.000 A 
ATOM     13  N   UNL     1       0.233  12.130  19.800  0.00  0.00    +0.000 NA
ATOM     14  O   UNL     1       0.874  11.799  18.612  0.00  0.00    +0.000 OA
ATOM     15  C   UNL     1       1.304  10.507  18.667  0.00  0.00    +0.000 A 
ATOM     16  N   UNL     1       1.944   9.876  17.660  0.00  0.00    +0.000 NA
ATOM     17  C   UNL     1       2.218   8.577  17.939  0.00  0.00    +0.000 A 
ATOM     18  C   UNL     1       1.939   7.926  19.138  0.00  0.00    +0.000 A 
ATOM     19  C   UNL     1       1.309   8.641  20.165  0.00  0.00    +0.000 A 
ATOM     20  C   UNL     1       0.963   9.975  19.901  0.00  0.00    +0.000 A 
ENDBRANCH   7  18
ENDBRANCH   1   9
BRANCH   6  21
ATOM     21  C   UNL     1       4.385   4.406  17.185  0.00  0.00    +0.000 C 
ATOM     22  O   UNL     1       4.203   5.551  16.782  0.00  0.00    +0.000 OA
ATOM     23  N   UNL     1       5.557   3.722  16.963  0.00  0.00    +0.000 N 
ATOM     24  H   UNL     1       5.680   2.803  17.366  0.00  0.00    +0.000 HD
BRANCH  23  25
ATOM     25  C   UNL     1       6.676   4.357  16.299  0.00  0.00    +0.000 C 
BRANCH  25  26
ATOM     26  C   UNL     1       7.262   5.474  17.126  0.00  0.00    +0.000 A 
ATOM     27  C   UNL     1       7.323   6.781  16.614  0.00  0.00    +0.000 A 
ATOM     28  C   UNL     1       7.821   7.826  17.389  0.00  0.00    +0.000 A 
ATOM     29  C   UNL     1       8.262   7.583  18.693  0.00  0.00    +0.000 A 
ATOM     30  C   UNL     1       8.198   6.293  19.213  0.00  0.00    +0.000 A 
ATOM     31  C   UNL     1       7.702   5.243  18.436  0.00  0.00    +0.000 A 
ENDBRANCH  25  26
ENDBRANCH  23  25
ENDBRANCH   6  21
TORSDOF 5
ENDMDL
MODEL 8
REMARK VINA RESULT:      -8.5      2.019      8.680
REMARK  Name = 
REMARK  6 active torsions:
REMARK  status: ('A' for Active; 'I' for Inactive)
REMARK    1  A    between atoms: C_1  and  C_2
REMARK    2  A    between atoms: C_8  and  C_9
REMARK    3  A    between atoms: N_11  and  C_12
REMARK    4  A    between atoms: C_17  and  C_18
REMARK    5  A    between atoms: N_20  and  C_21
REMARK    6  A    between atoms: C_21  and  C_22
REMARK                            x       y       z     vdW  Elec       q    Type
REMARK                         _______ _______ _______ _____ _____    ______ ____
ROOT
ATOM      1  C   UNL     1       3.058   4.273  19.332  0.00  0.00    +0.000 A 
ATOM      2  C   UNL     1       2.146   3.352  19.871  0.00  0.00    +0.000 A 
ATOM      3  C   UNL     1       2.181   2.010  19.487  0.00  0.00    +0.000 A 
ATOM      4  C   UNL     1       3.149   1.567  18.592  0.00  0.00    +0.000 A 
ATOM      5  C   UNL     1       4.077   2.469  18.072  0.00  0.00    +0.000 A 
ATOM      6  C   UNL     1       4.042   3.831  18.427  0.00  0.00    +0.000 A 
ENDROOT
BRANCH   1   9
ATOM      7  C   UNL     1       2.169   6.428  18.775  0.00  0.00    +0.000 C 
ATOM      8  O   UNL     1       1.715   6.030  17.709  0.00  0.00    +0.000 OA
ATOM      9  N   UNL     1       2.881   5.640  19.682  0.00  0.00    +0.000 N 
ATOM     10  H   UNL     1       2.553   5.789  20.633  0.00  0.00    +0.000 HD
BRANCH   7  18
ATOM     11  C   UNL     1       0.107   9.577  23.185  0.00  0.00    +0.000 C 
ATOM     12  C   UNL     1       0.503  10.112  21.861  0.00  0.00    +0.000 A 
ATOM     13  N   UNL     1       0.325  11.407  21.571  0.00  0.00    +0.000 NA
ATOM     14  O   UNL     1       0.762  11.563  20.261  0.00  0.00    +0.000 OA
ATOM     15  C   UNL     1       1.196  10.365  19.775  0.00  0.00    +0.000 A 
ATOM     16  N   UNL     1       1.662  10.177  18.523  0.00  0.00    +0.000 NA
ATOM     17  C   UNL     1       1.979   8.883  18.265  0.00  0.00    +0.000 A 
ATOM     18  C   UNL     1       1.902   7.830  19.174  0.00  0.00    +0.000 A 
ATOM     19  C   UNL     1       1.449   8.090  20.474  0.00  0.00    +0.000 A 
ATOM     20  C   UNL     1       1.063   9.407  20.769  0.00  0.00    +0.000 A 
ENDBRANCH   7  18
ENDBRANCH   1   9
BRANCH   6  21
ATOM     21  C   UNL     1       5.113   4.682  17.825  0.00  0.00    +0.000 C 
ATOM     22  O   UNL     1       5.257   5.841  18.204  0.00  0.00    +0.000 OA
ATOM     23  N   UNL     1       5.844   4.148  16.789  0.00  0.00    +0.000 N 
ATOM     24  H   UNL     1       5.730   3.172  16.553  0.00  0.00    +0.000 HD
BRANCH  23  25
ATOM     25  C   UNL     1       6.885   4.915  16.139  0.00  0.00    +0.000 C 
BRANCH  25  26
ATOM     26  C   UNL     1       6.896   4.700  14.646  0.00  0.00    +0.000 A 
ATOM     27  C   UNL     1       7.780   5.425  13.830  0.00  0.00    +0.000 A 
ATOM     28  C   UNL     1       7.828   5.198  12.456  0.00  0.00    +0.000 A 
ATOM     29  C   UNL     1       6.995   4.238  11.875  0.00  0.00    +0.000 A 
ATOM     30  C   UNL     1       6.121   3.508  12.676  0.00  0.00    +0.000 A 
ATOM     31  C   UNL     1       6.070   3.736  14.054  0.00  0.00    +0.000 A 
ENDBRANCH  25  26
ENDBRANCH  23  25
ENDBRANCH   6  21
TORSDOF 5
ENDMDL
MODEL 9
REMARK VINA RESULT:      -8.5      1.710      2.174
REMARK  Name = 
REMARK  6 active torsions:
REMARK  status: ('A' for Active; 'I' for Inactive)
REMARK    1  A    between atoms: C_1  and  C_2
REMARK    2  A    between atoms: C_8  and  C_9
REMARK    3  A    between atoms: N_11  and  C_12
REMARK    4  A    between atoms: C_17  and  C_18
REMARK    5  A    between atoms: N_20  and  C_21
REMARK    6  A    between atoms: C_21  and  C_22
REMARK                            x       y       z     vdW  Elec       q    Type
REMARK                         _______ _______ _______ _____ _____    ______ ____
ROOT
ATOM      1  C   UNL     1       3.465   5.471  18.918  0.00  0.00    +0.000 A 
ATOM      2  C   UNL     1       3.471   4.301  19.693  0.00  0.00    +0.000 A 
ATOM      3  C   UNL     1       2.635   4.181  20.804  0.00  0.00    +0.000 A 
ATOM      4  C   UNL     1       1.760   5.212  21.132  0.00  0.00    +0.000 A 
ATOM      5  C   UNL     1       1.728   6.368  20.353  0.00  0.00    +0.000 A 
ATOM      6  C   UNL     1       2.580   6.518  19.243  0.00  0.00    +0.000 A 
ENDROOT
BRANCH   1   9
ATOM      7  C   UNL     1       4.350   4.602  16.867  0.00  0.00    +0.000 C 
ATOM      8  O   UNL     1       3.532   3.690  16.832  0.00  0.00    +0.000 OA
ATOM      9  N   UNL     1       4.429   5.563  17.876  0.00  0.00    +0.000 N 
ATOM     10  H   UNL     1       4.534   6.496  17.487  0.00  0.00    +0.000 HD
BRANCH   7  18
ATOM     11  C   UNL     1       5.402   2.532  11.554  0.00  0.00    +0.000 C 
ATOM     12  C   UNL     1       6.263   3.488  12.288  0.00  0.00    +0.000 A 
ATOM     13  N   UNL     1       7.430   3.889  11.767  0.00  0.00    +0.000 NA
ATOM     14  O   UNL     1       7.991   4.741  12.710  0.00  0.00    +0.000 OA
ATOM     15  C   UNL     1       7.161   4.846  13.787  0.00  0.00    +0.000 A 
ATOM     16  N   UNL     1       7.430   5.582  14.885  0.00  0.00    +0.000 NA
ATOM     17  C   UNL     1       6.472   5.477  15.840  0.00  0.00    +0.000 A 
ATOM     18  C   UNL     1       5.292   4.745  15.732  0.00  0.00    +0.000 A 
ATOM     19  C   UNL     1       5.045   4.031  14.552  0.00  0.00    +0.000 A 
ATOM     20  C   UNL     1       6.034   4.072  13.557  0.00  0.00    +0.000 A 
ENDBRANCH   7  18
ENDBRANCH   1   9
BRANCH   6  21
ATOM     21  C   UNL     1       2.421   7.790  18.474  0.00  0.00    +0.000 C 
ATOM     22  O   UNL     1       3.120   7.998  17.486  0.00  0.00    +0.000 OA
ATOM     23  N   UNL     1       1.546   8.728  18.971  0.00  0.00    +0.000 N 
ATOM     24  H   UNL     1       0.951   8.488  19.751  0.00  0.00    +0.000 HD
BRANCH  23  25
ATOM     25  C   UNL     1       1.350   9.995  18.297  0.00  0.00    +0.000 C 
BRANCH  25  26
ATOM     26  C   UNL     1      -0.062  10.501  18.448  0.00  0.00    +0.000 A 
ATOM     27  C   UNL     1      -1.074  10.053  17.582  0.00  0.00    +0.000 A 
ATOM     28  C   UNL     1      -2.390  10.482  17.744  0.00  0.00    +0.000 A 
ATOM     29  C   UNL     1      -2.717  11.363  18.778  0.00  0.00    +0.000 A 
ATOM     30  C   UNL     1      -1.724  11.807  19.646  0.00  0.00    +0.000 A 
ATOM     31  C   UNL     1      -0.403  11.381  19.484  0.00  0.00    +0.000 A 
ENDBRANCH  25  26
ENDBRANCH  23  25
ENDBRANCH   6  21
TORSDOF 5
ENDMDL
