MODEL 1
REMARK VINA RESULT:      -8.5      0.000      0.000
REMARK  Name = 
REMARK  4 active torsions:
REMARK  status: ('A' for Active; 'I' for Inactive)
REMARK    1  A    between atoms: C_2  and  C_11
REMARK    2  A    between atoms: N_3  and  C_4
REMARK    3  A    between atoms: C_9  and  O_10
REMARK    4  A    between atoms: N_13  and  C_14
REMARK                            x       y       z     vdW  Elec       q    Type
REMARK                         _______ _______ _______ _____ _____    ______ ____
ROOT
ATOM      1  C   UNL     1       3.005   6.184  18.291  0.00  0.00    +0.000 A 
ATOM      2  N   UNL     1       3.954   6.043  17.412  0.00  0.00    +0.000 NA
ATOM      3  N   UNL     1       4.407   4.770  17.102  0.00  0.00    +0.000 N 
ATOM      4  C   UNL     1       3.917   3.606  17.712  0.00  0.00    +0.000 A 
ATOM      5  O   UNL     1       4.266   2.450  17.474  0.00  0.00    +0.000 OA
ATOM      6  C   UNL     1       2.913   3.791  18.774  0.00  0.00    +0.000 A 
ATOM      7  C   UNL     1       2.442   2.671  19.484  0.00  0.00    +0.000 A 
ATOM      8  C   UNL     1       1.493   2.825  20.491  0.00  0.00    +0.000 A 
ATOM      9  C   UNL     1       1.013   4.094  20.791  0.00  0.00    +0.000 A 
ATOM     10  C   UNL     1       1.490   5.209  20.094  0.00  0.00    +0.000 A 
ATOM     11  C   UNL     1       2.443   5.061  19.074  0.00  0.00    +0.000 A 
ENDROOT
BRANCH   3  12
ATOM     12  C   UNL     1       5.338   4.737  16.010  0.00  0.00    +0.000 A 
ATOM     13  C   UNL     1       6.648   5.230  16.132  0.00  0.00    +0.000 A 
ATOM     14  C   UNL     1       7.552   5.164  15.068  0.00  0.00    +0.000 A 
ATOM     15  C   UNL     1       7.159   4.615  13.853  0.00  0.00    +0.000 A 
ATOM     16  C   UNL     1       5.865   4.127  13.704  0.00  0.00    +0.000 A 
ATOM     17  C   UNL     1       4.967   4.177  14.777  0.00  0.00    +0.000 A 
ENDBRANCH   3  12
BRANCH   1  19
ATOM     18  O   UNL     1       2.607   8.399  17.562  0.00  0.00    +0.000 OA
ATOM     19  C   UNL     1       2.430   7.593  18.464  0.00  0.00    +0.000 C 
ATOM     20  N   UNL     1       1.806   7.832  19.672  0.00  0.00    +0.000 N 
ATOM     21  H   UNL     1       1.991   7.184  20.431  0.00  0.00    +0.000 HD
BRANCH  20  22
ATOM     22  C   UNL     1       1.118   9.023  20.008  0.00  0.00    +0.000 A 
ATOM     23  C   UNL     1       0.435   9.793  19.060  0.00  0.00    +0.000 A 
ATOM     24  C   UNL     1      -0.228  10.967  19.431  0.00  0.00    +0.000 A 
ATOM     25  C   UNL     1      -0.212  11.388  20.758  0.00  0.00    +0.000 A 
ATOM     26  C   UNL     1       0.451  10.625  21.720  0.00  0.00    +0.000 A 
ATOM     27  C   UNL     1       1.099   9.444  21.344  0.00  0.00    +0.000 A 
BRANCH  27  28
ATOM     28  O   UNL     1       1.750   8.688  22.286  0.00  0.00    +0.000 OA
ATOM     29  H   UNL     1       1.630   9.114  23.151  0.00  0.00    +0.000 HD
ENDBRANCH  27  28
ENDBRANCH  20  22
ENDBRANCH   1  19
TORSDOF 4
ENDMDL
MODEL 2
REMARK VINA RESULT:      -8.4      1.712      7.078
REMARK  Name = 
REMARK  4 active torsions:
REMARK  status: ('A' for Active; 'I' for Inactive)
REMARK    1  A    between atoms: C_2  and  C_11
REMARK    2  A    between atoms: N_3  and  C_4
REMARK    3  A    between atoms: C_9  and  O_10
REMARK    4  A    between atoms: N_13  and  C_14
REMARK                            x       y       z     vdW  Elec       q    Type
REMARK                         _______ _______ _______ _____ _____    ______ ____
ROOT
ATOM      1  C   UNL     1       4.010   5.048  18.221  0.00  0.00    +0.000 A 
ATOM      2  N   UNL     1       3.432   6.210  18.129  0.00  0.00    +0.000 NA
ATOM      3  N   UNL     1       2.540   6.603  19.115  0.00  0.00    +0.000 N 
ATOM      4  C   UNL     1       2.193   5.797  20.209  0.00  0.00    +0.000 A 
ATOM      5  O   UNL     1       1.421   6.091  21.121  0.00  0.00    +0.000 OA
ATOM      6  C   UNL     1       2.781   4.447  20.246  0.00  0.00    +0.000 A 
ATOM      7  C   UNL     1       2.410   3.558  21.271  0.00  0.00    +0.000 A 
ATOM      8  C   UNL     1       2.954   2.278  21.324  0.00  0.00    +0.000 A 
ATOM      9  C   UNL     1       3.870   1.884  20.355  0.00  0.00    +0.000 A 
ATOM     10  C   UNL     1       4.231   2.763  19.329  0.00  0.00    +0.000 A 
ATOM     11  C   UNL     1       3.689   4.057  19.272  0.00  0.00    +0.000 A 
ENDROOT
BRANCH   3  12
ATOM     12  C   UNL     1       2.094   7.961  18.982  0.00  0.00    +0.000 A 
ATOM     13  C   UNL     1       2.299   8.703  17.807  0.00  0.00    +0.000 A 
ATOM     14  C   UNL     1       1.832  10.014  17.684  0.00  0.00    +0.000 A 
ATOM     15  C   UNL     1       1.161  10.617  18.741  0.00  0.00    +0.000 A 
ATOM     16  C   UNL     1       0.951   9.906  19.919  0.00  0.00    +0.000 A 
ATOM     17  C   UNL     1       1.404   8.587  20.033  0.00  0.00    +0.000 A 
ENDBRANCH   3  12
BRANCH   1  19
ATOM     18  O   UNL     1       6.190   4.355  17.621  0.00  0.00    +0.000 OA
ATOM     19  C   UNL     1       5.110   4.742  17.200  0.00  0.00    +0.000 C 
ATOM     20  N   UNL     1       4.780   4.995  15.884  0.00  0.00    +0.000 N 
ATOM     21  H   UNL     1       3.974   5.585  15.707  0.00  0.00    +0.000 HD
BRANCH  20  22
ATOM     22  C   UNL     1       5.601   4.692  14.770  0.00  0.00    +0.000 A 
ATOM     23  C   UNL     1       5.178   3.863  13.724  0.00  0.00    +0.000 A 
ATOM     24  C   UNL     1       6.021   3.584  12.644  0.00  0.00    +0.000 A 
ATOM     25  C   UNL     1       7.301   4.129  12.598  0.00  0.00    +0.000 A 
ATOM     26  C   UNL     1       7.734   4.970  13.623  0.00  0.00    +0.000 A 
ATOM     27  C   UNL     1       6.880   5.258  14.693  0.00  0.00    +0.000 A 
BRANCH  27  28
ATOM     28  O   UNL     1       7.299   6.086  15.703  0.00  0.00    +0.000 OA
ATOM     29  H   UNL     1       6.512   6.462  16.132  0.00  0.00    +0.000 HD
ENDBRANCH  27  28
ENDBRANCH  20  22
ENDBRANCH   1  19
TORSDOF 4
ENDMDL
MODEL 3
REMARK VINA RESULT:      -8.1      2.155      2.885
REMARK  Name = 
REMARK  4 active torsions:
REMARK  status: ('A' for Active; 'I' for Inactive)
REMARK    1  A    between atoms: C_2  and  C_11
REMARK    2  A    between atoms: N_3  and  C_4
REMARK    3  A    between atoms: C_9  and  O_10
REMARK    4  A    between atoms: N_13  and  C_14
REMARK                            x       y       z     vdW  Elec       q    Type
REMARK                         _______ _______ _______ _____ _____    ______ ____
ROOT
ATOM      1  C   UNL     1       2.622   5.518  19.669  0.00  0.00    +0.000 A 
ATOM      2  N   UNL     1       3.801   6.028  19.466  0.00  0.00    +0.000 NA
ATOM      3  N   UNL     1       4.706   5.344  18.669  0.00  0.00    +0.000 N 
ATOM      4  C   UNL     1       4.435   4.099  18.083  0.00  0.00    +0.000 A 
ATOM      5  O   UNL     1       5.187   3.449  17.359  0.00  0.00    +0.000 OA
ATOM      6  C   UNL     1       3.132   3.490  18.404  0.00  0.00    +0.000 A 
ATOM      7  C   UNL     1       2.830   2.206  17.917  0.00  0.00    +0.000 A 
ATOM      8  C   UNL     1       1.604   1.614  18.208  0.00  0.00    +0.000 A 
ATOM      9  C   UNL     1       0.678   2.302  18.984  0.00  0.00    +0.000 A 
ATOM     10  C   UNL     1       0.983   3.574  19.478  0.00  0.00    +0.000 A 
ATOM     11  C   UNL     1       2.215   4.180  19.184  0.00  0.00    +0.000 A 
ENDROOT
BRANCH   3  12
ATOM     12  C   UNL     1       5.907   6.082  18.395  0.00  0.00    +0.000 A 
ATOM     13  C   UNL     1       5.967   7.062  17.391  0.00  0.00    +0.000 A 
ATOM     14  C   UNL     1       7.136   7.792  17.156  0.00  0.00    +0.000 A 
ATOM     15  C   UNL     1       8.275   7.546  17.913  0.00  0.00    +0.000 A 
ATOM     16  C   UNL     1       8.244   6.574  18.909  0.00  0.00    +0.000 A 
ATOM     17  C   UNL     1       7.067   5.858  19.155  0.00  0.00    +0.000 A 
ENDBRANCH   3  12
BRANCH   1  19
ATOM     18  O   UNL     1       0.688   5.841  20.992  0.00  0.00    +0.000 OA
ATOM     19  C   UNL     1       1.610   6.395  20.411  0.00  0.00    +0.000 C 
ATOM     20  N   UNL     1       1.813   7.756  20.298  0.00  0.00    +0.000 N 
ATOM     21  H   UNL     1       2.425   8.079  19.556  0.00  0.00    +0.000 HD
BRANCH  20  22
ATOM     22  C   UNL     1       1.066   8.748  20.980  0.00  0.00    +0.000 A 
ATOM     23  C   UNL     1       0.955   8.783  22.375  0.00  0.00    +0.000 A 
ATOM     24  C   UNL     1       0.201   9.775  23.009  0.00  0.00    +0.000 A 
ATOM     25  C   UNL     1      -0.453  10.746  22.255  0.00  0.00    +0.000 A 
ATOM     26  C   UNL     1      -0.340  10.735  20.864  0.00  0.00    +0.000 A 
ATOM     27  C   UNL     1       0.427   9.749  20.237  0.00  0.00    +0.000 A 
BRANCH  27  28
ATOM     28  O   UNL     1       0.545   9.736  18.870  0.00  0.00    +0.000 OA
ATOM     29  H   UNL     1      -0.303   9.444  18.497  0.00  0.00    +0.000 HD
ENDBRANCH  27  28
ENDBRANCH  20  22
ENDBRANCH   1  19
TORSDOF 4
ENDMDL
MODEL 4
REMARK VINA RESULT:      -8.1      3.070      8.009
REMARK  Name = 
REMARK  4 active torsions:
REMARK  status: ('A' for Active; 'I' for Inactive)
REMARK    1  A    between atoms: C_2  and  C_11
REMARK    2  A    between atoms: N_3  and  C_4
REMARK    3  A    between atoms: C_9  and  O_10
REMARK    4  A    between atoms: N_13  and  C_14
REMARK                            x       y       z     vdW  Elec       q    Type
REMARK                         _______ _______ _______ _____ _____    ______ ____
ROOT
ATOM      1  C   UNL     1       1.271  10.190  19.233  0.00  0.00    +0.000 A 
ATOM      2  N   UNL     1       1.591  11.366  18.778  0.00  0.00    +0.000 NA
ATOM      3  N   UNL     1       1.388  12.480  19.578  0.00  0.00    +0.000 N 
ATOM      4  C   UNL     1       0.820  12.419  20.859  0.00  0.00    +0.000 A 
ATOM      5  O   UNL     1       0.626  13.365  21.621  0.00  0.00    +0.000 OA
ATOM      6  C   UNL     1       0.373  11.093  21.319  0.00  0.00    +0.000 A 
ATOM      7  C   UNL     1      -0.280  10.974  22.559  0.00  0.00    +0.000 A 
ATOM      8  C   UNL     1      -0.710   9.730  23.012  0.00  0.00    +0.000 A 
ATOM      9  C   UNL     1      -0.488   8.603  22.229  0.00  0.00    +0.000 A 
ATOM     10  C   UNL     1       0.152   8.722  20.991  0.00  0.00    +0.000 A 
ATOM     11  C   UNL     1       0.592   9.973  20.530  0.00  0.00    +0.000 A 
ENDROOT
BRANCH   3  12
ATOM     12  C   UNL     1       1.925  13.692  19.028  0.00  0.00    +0.000 A 
ATOM     13  C   UNL     1       3.222  13.758  18.491  0.00  0.00    +0.000 A 
ATOM     14  C   UNL     1       3.718  14.939  17.932  0.00  0.00    +0.000 A 
ATOM     15  C   UNL     1       2.932  16.085  17.912  0.00  0.00    +0.000 A 
ATOM     16  C   UNL     1       1.647  16.048  18.444  0.00  0.00    +0.000 A 
ATOM     17  C   UNL     1       1.145  14.859  18.986  0.00  0.00    +0.000 A 
ENDBRANCH   3  12
BRANCH   1  19
ATOM     18  O   UNL     1       1.220   8.909  17.246  0.00  0.00    +0.000 OA
ATOM     19  C   UNL     1       1.675   8.986  18.378  0.00  0.00    +0.000 C 
ATOM     20  N   UNL     1       2.486   8.061  19.005  0.00  0.00    +0.000 N 
ATOM     21  H   UNL     1       2.542   8.097  20.017  0.00  0.00    +0.000 HD
BRANCH  20  22
ATOM     22  C   UNL     1       3.062   6.930  18.378  0.00  0.00    +0.000 A 
ATOM     23  C   UNL     1       4.041   7.035  17.383  0.00  0.00    +0.000 A 
ATOM     24  C   UNL     1       4.580   5.892  16.784  0.00  0.00    +0.000 A 
ATOM     25  C   UNL     1       4.144   4.628  17.170  0.00  0.00    +0.000 A 
ATOM     26  C   UNL     1       3.179   4.504  18.171  0.00  0.00    +0.000 A 
ATOM     27  C   UNL     1       2.655   5.650  18.777  0.00  0.00    +0.000 A 
BRANCH  27  28
ATOM     28  O   UNL     1       1.710   5.534  19.764  0.00  0.00    +0.000 OA
ATOM     29  H   UNL     1       0.837   5.684  19.365  0.00  0.00    +0.000 HD
ENDBRANCH  27  28
ENDBRANCH  20  22
ENDBRANCH   1  19
TORSDOF 4
ENDMDL
MODEL 5
REMARK VINA RESULT:      -8.0      1.137      1.419
REMARK  Name = 
REMARK  4 active torsions:
REMARK  status: ('A' for Active; 'I' for Inactive)
REMARK    1  A    between atoms: C_2  and  C_11
REMARK    2  A    between atoms: N_3  and  C_4
REMARK    3  A    between atoms: C_9  and  O_10
REMARK    4  A    between atoms: N_13  and  C_14
REMARK                            x       y       z     vdW  Elec       q    Type
REMARK                         _______ _______ _______ _____ _____    ______ ____
ROOT
ATOM      1  C   UNL     1       2.687   5.898  18.291  0.00  0.00    +0.000 A 
ATOM      2  N   UNL     1       3.671   5.851  17.442  0.00  0.00    +0.000 NA
ATOM      3  N   UNL     1       4.365   4.663  17.274  0.00  0.00    +0.000 N 
ATOM      4  C   UNL     1       4.086   3.495  18.000  0.00  0.00    +0.000 A 
ATOM      5  O   UNL     1       4.654   2.409  17.891  0.00  0.00    +0.000 OA
ATOM      6  C   UNL     1       3.034   3.594  19.027  0.00  0.00    +0.000 A 
ATOM      7  C   UNL     1       2.761   2.484  19.847  0.00  0.00    +0.000 A 
ATOM      8  C   UNL     1       1.771   2.557  20.823  0.00  0.00    +0.000 A 
ATOM      9  C   UNL     1       1.050   3.735  20.980  0.00  0.00    +0.000 A 
ATOM     10  C   UNL     1       1.329   4.843  20.173  0.00  0.00    +0.000 A 
ATOM     11  C   UNL     1       2.323   4.775  19.184  0.00  0.00    +0.000 A 
ENDROOT
BRANCH   3  12
ATOM     12  C   UNL     1       5.319   4.696  16.202  0.00  0.00    +0.000 A 
ATOM     13  C   UNL     1       6.612   5.219  16.369  0.00  0.00    +0.000 A 
ATOM     14  C   UNL     1       7.538   5.217  15.323  0.00  0.00    +0.000 A 
ATOM     15  C   UNL     1       7.185   4.704  14.080  0.00  0.00    +0.000 A 
ATOM     16  C   UNL     1       5.908   4.187  13.886  0.00  0.00    +0.000 A 
ATOM     17  C   UNL     1       4.988   4.173  14.941  0.00  0.00    +0.000 A 
ENDBRANCH   3  12
BRANCH   1  19
ATOM     18  O   UNL     1       1.078   7.372  17.379  0.00  0.00    +0.000 OA
ATOM     19  C   UNL     1       1.851   7.181  18.306  0.00  0.00    +0.000 C 
ATOM     20  N   UNL     1       2.102   8.037  19.360  0.00  0.00    +0.000 N 
ATOM     21  H   UNL     1       2.961   7.900  19.881  0.00  0.00    +0.000 HD
BRANCH  20  22
ATOM     22  C   UNL     1       1.380   9.225  19.630  0.00  0.00    +0.000 A 
ATOM     23  C   UNL     1       0.660   9.417  20.815  0.00  0.00    +0.000 A 
ATOM     24  C   UNL     1      -0.045  10.603  21.041  0.00  0.00    +0.000 A 
ATOM     25  C   UNL     1      -0.042  11.612  20.081  0.00  0.00    +0.000 A 
ATOM     26  C   UNL     1       0.683  11.444  18.901  0.00  0.00    +0.000 A 
ATOM     27  C   UNL     1       1.399  10.261  18.688  0.00  0.00    +0.000 A 
BRANCH  27  28
ATOM     28  O   UNL     1       2.116  10.092  17.531  0.00  0.00    +0.000 OA
ATOM     29  H   UNL     1       1.713   9.363  17.030  0.00  0.00    +0.000 HD
ENDBRANCH  27  28
ENDBRANCH  20  22
ENDBRANCH   1  19
TORSDOF 4
ENDMDL
MODEL 6
REMARK VINA RESULT:      -7.9      4.073     10.721
REMARK  Name = 
REMARK  4 active torsions:
REMARK  status: ('A' for Active; 'I' for Inactive)
REMARK    1  A    between atoms: C_2  and  C_11
REMARK    2  A    between atoms: N_3  and  C_4
REMARK    3  A    between atoms: C_9  and  O_10
REMARK    4  A    between atoms: N_13  and  C_14
REMARK                            x       y       z     vdW  Elec       q    Type
REMARK                         _______ _______ _______ _____ _____    ______ ____
ROOT
ATOM      1  C   UNL     1      -0.814  11.955  20.260  0.00  0.00    +0.000 A 
ATOM      2  N   UNL     1      -1.772  11.912  21.139  0.00  0.00    +0.000 NA
ATOM      3  N   UNL     1      -2.309  13.099  21.614  0.00  0.00    +0.000 N 
ATOM      4  C   UNL     1      -1.854  14.366  21.220  0.00  0.00    +0.000 A 
ATOM      5  O   UNL     1      -2.294  15.452  21.593  0.00  0.00    +0.000 OA
ATOM      6  C   UNL     1      -0.703  14.396  20.300  0.00  0.00    +0.000 A 
ATOM      7  C   UNL     1      -0.144  15.633  19.931  0.00  0.00    +0.000 A 
ATOM      8  C   UNL     1       0.942  15.683  19.063  0.00  0.00    +0.000 A 
ATOM      9  C   UNL     1       1.471  14.500  18.560  0.00  0.00    +0.000 A 
ATOM     10  C   UNL     1       0.923  13.269  18.936  0.00  0.00    +0.000 A 
ATOM     11  C   UNL     1      -0.176  13.211  19.807  0.00  0.00    +0.000 A 
ENDROOT
BRANCH   3  12
ATOM     12  C   UNL     1      -3.459  12.917  22.454  0.00  0.00    +0.000 A 
ATOM     13  C   UNL     1      -3.344  12.591  23.815  0.00  0.00    +0.000 A 
ATOM     14  C   UNL     1      -4.473  12.447  24.627  0.00  0.00    +0.000 A 
ATOM     15  C   UNL     1      -5.743  12.613  24.089  0.00  0.00    +0.000 A 
ATOM     16  C   UNL     1      -5.885  12.929  22.741  0.00  0.00    +0.000 A 
ATOM     17  C   UNL     1      -4.752  13.091  21.935  0.00  0.00    +0.000 A 
ENDBRANCH   3  12
BRANCH   1  19
ATOM     18  O   UNL     1      -1.157  10.060  18.887  0.00  0.00    +0.000 OA
ATOM     19  C   UNL     1      -0.380  10.620  19.647  0.00  0.00    +0.000 C 
ATOM     20  N   UNL     1       0.846  10.146  20.069  0.00  0.00    +0.000 N 
ATOM     21  H   UNL     1       1.241  10.552  20.911  0.00  0.00    +0.000 HD
BRANCH  20  22
ATOM     22  C   UNL     1       1.487   8.991  19.562  0.00  0.00    +0.000 A 
ATOM     23  C   UNL     1       1.663   7.829  20.323  0.00  0.00    +0.000 A 
ATOM     24  C   UNL     1       2.308   6.710  19.787  0.00  0.00    +0.000 A 
ATOM     25  C   UNL     1       2.789   6.740  18.481  0.00  0.00    +0.000 A 
ATOM     26  C   UNL     1       2.610   7.884  17.702  0.00  0.00    +0.000 A 
ATOM     27  C   UNL     1       1.950   8.994  18.240  0.00  0.00    +0.000 A 
BRANCH  27  28
ATOM     28  O   UNL     1       1.768  10.120  17.478  0.00  0.00    +0.000 OA
ATOM     29  H   UNL     1       2.554  10.681  17.575  0.00  0.00    +0.000 HD
ENDBRANCH  27  28
ENDBRANCH  20  22
ENDBRANCH   1  19
TORSDOF 4
ENDMDL
MODEL 7
REMARK VINA RESULT:      -7.8      3.640      9.952
REMARK  Name = 
REMARK  4 active torsions:
REMARK  status: ('A' for Active; 'I' for Inactive)
REMARK    1  A    between atoms: C_2  and  C_11
REMARK    2  A    between atoms: N_3  and  C_4
REMARK    3  A    between atoms: C_9  and  O_10
REMARK    4  A    between atoms: N_13  and  C_14
REMARK                            x       y       z     vdW  Elec       q    Type
REMARK                         _______ _______ _______ _____ _____    ______ ____
ROOT
ATOM      1  C   UNL     1       0.018  11.542  19.189  0.00  0.00    +0.000 A 
ATOM      2  N   UNL     1      -1.121  11.595  19.814  0.00  0.00    +0.000 NA
ATOM      3  N   UNL     1      -1.647  12.830  20.161  0.00  0.00    +0.000 N 
ATOM      4  C   UNL     1      -0.998  14.046  19.903  0.00  0.00    +0.000 A 
ATOM      5  O   UNL     1      -1.414  15.172  20.173  0.00  0.00    +0.000 OA
ATOM      6  C   UNL     1       0.336  13.963  19.284  0.00  0.00    +0.000 A 
ATOM      7  C   UNL     1       1.077  15.140  19.074  0.00  0.00    +0.000 A 
ATOM      8  C   UNL     1       2.339  15.083  18.490  0.00  0.00    +0.000 A 
ATOM      9  C   UNL     1       2.864  13.852  18.114  0.00  0.00    +0.000 A 
ATOM     10  C   UNL     1       2.133  12.679  18.333  0.00  0.00    +0.000 A 
ATOM     11  C   UNL     1       0.857  12.730  18.917  0.00  0.00    +0.000 A 
ENDROOT
BRANCH   3  12
ATOM     12  C   UNL     1      -2.976  12.762  20.701  0.00  0.00    +0.000 A 
ATOM     13  C   UNL     1      -3.228  12.879  22.077  0.00  0.00    +0.000 A 
ATOM     14  C   UNL     1      -4.530  12.840  22.584  0.00  0.00    +0.000 A 
ATOM     15  C   UNL     1      -5.608  12.669  21.723  0.00  0.00    +0.000 A 
ATOM     16  C   UNL     1      -5.384  12.544  20.355  0.00  0.00    +0.000 A 
ATOM     17  C   UNL     1      -4.080  12.601  19.849  0.00  0.00    +0.000 A 
ENDBRANCH   3  12
BRANCH   1  19
ATOM     18  O   UNL     1      -0.113   9.703  17.707  0.00  0.00    +0.000 OA
ATOM     19  C   UNL     1       0.462  10.167  18.681  0.00  0.00    +0.000 C 
ATOM     20  N   UNL     1       1.450   9.553  19.425  0.00  0.00    +0.000 N 
ATOM     21  H   UNL     1       1.622   9.908  20.360  0.00  0.00    +0.000 HD
BRANCH  20  22
ATOM     22  C   UNL     1       2.081   8.332  19.085  0.00  0.00    +0.000 A 
ATOM     23  C   UNL     1       2.760   8.145  17.875  0.00  0.00    +0.000 A 
ATOM     24  C   UNL     1       3.365   6.921  17.574  0.00  0.00    +0.000 A 
ATOM     25  C   UNL     1       3.295   5.865  18.479  0.00  0.00    +0.000 A 
ATOM     26  C   UNL     1       2.635   6.038  19.696  0.00  0.00    +0.000 A 
ATOM     27  C   UNL     1       2.046   7.270  19.998  0.00  0.00    +0.000 A 
BRANCH  27  28
ATOM     28  O   UNL     1       1.399   7.447  21.194  0.00  0.00    +0.000 OA
ATOM     29  H   UNL     1       1.001   6.599  21.451  0.00  0.00    +0.000 HD
ENDBRANCH  27  28
ENDBRANCH  20  22
ENDBRANCH   1  19
TORSDOF 4
ENDMDL
MODEL 8
REMARK VINA RESULT:      -7.8      1.710      7.299
REMARK  Name = 
REMARK  4 active torsions:
REMARK  status: ('A' for Active; 'I' for Inactive)
REMARK    1  A    between atoms: C_2  and  C_11
REMARK    2  A    between atoms: N_3  and  C_4
REMARK    3  A    between atoms: C_9  and  O_10
REMARK    4  A    between atoms: N_13  and  C_14
REMARK                            x       y       z     vdW  Elec       q    Type
REMARK                         _______ _______ _______ _____ _____    ______ ____
ROOT
ATOM      1  C   UNL     1       3.762   5.798  17.530  0.00  0.00    +0.000 A 
ATOM      2  N   UNL     1       3.083   6.865  17.834  0.00  0.00    +0.000 NA
ATOM      3  N   UNL     1       2.399   6.911  19.039  0.00  0.00    +0.000 N 
ATOM      4  C   UNL     1       2.369   5.847  19.953  0.00  0.00    +0.000 A 
ATOM      5  O   UNL     1       1.793   5.829  21.040  0.00  0.00    +0.000 OA
ATOM      6  C   UNL     1       3.061   4.612  19.548  0.00  0.00    +0.000 A 
ATOM      7  C   UNL     1       3.000   3.479  20.380  0.00  0.00    +0.000 A 
ATOM      8  C   UNL     1       3.648   2.302  20.015  0.00  0.00    +0.000 A 
ATOM      9  C   UNL     1       4.359   2.254  18.822  0.00  0.00    +0.000 A 
ATOM     10  C   UNL     1       4.410   3.376  17.988  0.00  0.00    +0.000 A 
ATOM     11  C   UNL     1       3.763   4.568  18.352  0.00  0.00    +0.000 A 
ENDROOT
BRANCH   3  12
ATOM     12  C   UNL     1       1.822   8.194  19.328  0.00  0.00    +0.000 A 
ATOM     13  C   UNL     1       1.376   8.539  20.614  0.00  0.00    +0.000 A 
ATOM     14  C   UNL     1       0.844   9.802  20.885  0.00  0.00    +0.000 A 
ATOM     15  C   UNL     1       0.733  10.744  19.869  0.00  0.00    +0.000 A 
ATOM     16  C   UNL     1       1.161  10.425  18.584  0.00  0.00    +0.000 A 
ATOM     17  C   UNL     1       1.711   9.165  18.320  0.00  0.00    +0.000 A 
ENDBRANCH   3  12
BRANCH   1  19
ATOM     18  O   UNL     1       5.032   6.970  15.915  0.00  0.00    +0.000 OA
ATOM     19  C   UNL     1       4.633   5.872  16.272  0.00  0.00    +0.000 C 
ATOM     20  N   UNL     1       4.836   4.670  15.623  0.00  0.00    +0.000 N 
ATOM     21  H   UNL     1       4.213   3.902  15.852  0.00  0.00    +0.000 HD
BRANCH  20  22
ATOM     22  C   UNL     1       5.685   4.485  14.505  0.00  0.00    +0.000 A 
ATOM     23  C   UNL     1       5.274   3.810  13.350  0.00  0.00    +0.000 A 
ATOM     24  C   UNL     1       6.146   3.643  12.269  0.00  0.00    +0.000 A 
ATOM     25  C   UNL     1       7.442   4.146  12.332  0.00  0.00    +0.000 A 
ATOM     26  C   UNL     1       7.864   4.835  13.470  0.00  0.00    +0.000 A 
ATOM     27  C   UNL     1       6.982   5.012  14.541  0.00  0.00    +0.000 A 
BRANCH  27  28
ATOM     28  O   UNL     1       7.390   5.692  15.661  0.00  0.00    +0.000 OA
ATOM     29  H   UNL     1       6.728   5.550  16.358  0.00  0.00    +0.000 HD
ENDBRANCH  27  28
ENDBRANCH  20  22
ENDBRANCH   1  19
TORSDOF 4
ENDMDL
MODEL 9
REMARK VINA RESULT:      -7.8      4.572     10.074
REMARK  Name = 
REMARK  4 active torsions:
REMARK  status: ('A' for Active; 'I' for Inactive)
REMARK    1  A    between atoms: C_2  and  C_11
REMARK    2  A    between atoms: N_3  and  C_4
REMARK    3  A    between atoms: C_9  and  O_10
REMARK    4  A    between atoms: N_13  and  C_14
REMARK                            x       y       z     vdW  Elec       q    Type
REMARK                         _______ _______ _______ _____ _____    ______ ____
ROOT
ATOM      1  C   UNL     1      -0.794  12.834  20.045  0.00  0.00    +0.000 A 
ATOM      2  N   UNL     1      -0.385  13.808  19.286  0.00  0.00    +0.000 NA
ATOM      3  N   UNL     1      -0.522  15.115  19.728  0.00  0.00    +0.000 N 
ATOM      4  C   UNL     1      -1.113  15.459  20.953  0.00  0.00    +0.000 A 
ATOM      5  O   UNL     1      -1.253  16.593  21.408  0.00  0.00    +0.000 OA
ATOM      6  C   UNL     1      -1.659  14.350  21.755  0.00  0.00    +0.000 A 
ATOM      7  C   UNL     1      -2.338  14.632  22.954  0.00  0.00    +0.000 A 
ATOM      8  C   UNL     1      -2.860  13.598  23.727  0.00  0.00    +0.000 A 
ATOM      9  C   UNL     1      -2.704  12.283  23.306  0.00  0.00    +0.000 A 
ATOM     10  C   UNL     1      -2.040  12.003  22.107  0.00  0.00    +0.000 A 
ATOM     11  C   UNL     1      -1.506  13.039  21.326  0.00  0.00    +0.000 A 
ENDROOT
BRANCH   3  12
ATOM     12  C   UNL     1       0.107  16.083  18.875  0.00  0.00    +0.000 A 
ATOM     13  C   UNL     1       1.501  16.147  18.719  0.00  0.00    +0.000 A 
ATOM     14  C   UNL     1       2.095  17.077  17.861  0.00  0.00    +0.000 A 
ATOM     15  C   UNL     1       1.306  17.974  17.152  0.00  0.00    +0.000 A 
ATOM     16  C   UNL     1      -0.078  17.936  17.294  0.00  0.00    +0.000 A 
ATOM     17  C   UNL     1      -0.671  16.992  18.139  0.00  0.00    +0.000 A 
ENDBRANCH   3  12
BRANCH   1  19
ATOM     18  O   UNL     1      -1.322  10.790  18.978  0.00  0.00    +0.000 OA
ATOM     19  C   UNL     1      -0.461  11.413  19.581  0.00  0.00    +0.000 C 
ATOM     20  N   UNL     1       0.786  10.948  19.949  0.00  0.00    +0.000 N 
ATOM     21  H   UNL     1       1.272  11.445  20.689  0.00  0.00    +0.000 HD
BRANCH  20  22
ATOM     22  C   UNL     1       1.342   9.710  19.546  0.00  0.00    +0.000 A 
ATOM     23  C   UNL     1       1.321   8.573  20.362  0.00  0.00    +0.000 A 
ATOM     24  C   UNL     1       1.887   7.369  19.930  0.00  0.00    +0.000 A 
ATOM     25  C   UNL     1       2.485   7.289  18.675  0.00  0.00    +0.000 A 
ATOM     26  C   UNL     1       2.501   8.408  17.842  0.00  0.00    +0.000 A 
ATOM     27  C   UNL     1       1.919   9.605  18.275  0.00  0.00    +0.000 A 
BRANCH  27  28
ATOM     28  O   UNL     1       1.929  10.707  17.459  0.00  0.00    +0.000 OA
ATOM     29  H   UNL     1       2.333  11.442  17.949  0.00  0.00    +0.000 HD
ENDBRANCH  27  28
ENDBRANCH  20  22
ENDBRANCH   1  19
TORSDOF 4
ENDMDL
