MODEL 1
REMARK VINA RESULT:      -9.5      0.000      0.000
REMARK  Name = 
REMARK  4 active torsions:
REMARK  status: ('A' for Active; 'I' for Inactive)
REMARK    1  A    between atoms: C_2  and  C_14
REMARK    2  A    between atoms: N_3  and  C_4
REMARK    3  A    between atoms: C_17  and  C_18
REMARK    4  A    between atoms: C_18  and  N_19
REMARK                            x       y       z     vdW  Elec       q    Type
REMARK                         _______ _______ _______ _____ _____    ______ ____
ROOT
ATOM      1  C   UNL     1       1.992   8.353  18.808  0.00  0.00    +0.000 A 
ATOM      2  C   UNL     1       2.685   7.750  17.762  0.00  0.00    +0.000 A 
ATOM      3  C   UNL     1       3.290   6.496  17.943  0.00  0.00    +0.000 A 
ATOM      4  C   UNL     1       3.214   5.828  19.179  0.00  0.00    +0.000 A 
ATOM      5  C   UNL     1       2.475   6.424  20.210  0.00  0.00    +0.000 A 
ATOM      6  C   UNL     1       1.871   7.682  20.028  0.00  0.00    +0.000 A 
ENDROOT
BRANCH   1   8
ATOM      7  O   UNL     1       1.973  10.628  18.173  0.00  0.00    +0.000 OA
ATOM      8  C   UNL     1       1.339   9.695  18.638  0.00  0.00    +0.000 C 
ATOM      9  N   UNL     1       0.010   9.789  19.025  0.00  0.00    +0.000 N 
ATOM     10  H   UNL     1      -0.492   8.977  19.343  0.00  0.00    +0.000 HD
BRANCH   9  11
ATOM     11  C   UNL     1      -0.720  11.050  18.961  0.00  0.00    +0.000 C 
ATOM     12  C   UNL     1      -1.085  11.531  20.366  0.00  0.00    +0.000 C 
ATOM     13  C   UNL     1      -1.967  12.759  20.220  0.00  0.00    +0.000 C 
ATOM     14  O   UNL     1      -3.223  12.429  19.623  0.00  0.00    +0.000 OA
ATOM     15  C   UNL     1      -3.130  11.660  18.491  0.00  0.00    +0.000 A 
ATOM     16  C   UNL     1      -4.289  11.595  17.713  0.00  0.00    +0.000 A 
ATOM     17  C   UNL     1      -4.297  10.855  16.532  0.00  0.00    +0.000 A 
ATOM     18  C   UNL     1      -3.148  10.182  16.129  0.00  0.00    +0.000 A 
ATOM     19  C   UNL     1      -1.992  10.236  16.912  0.00  0.00    +0.000 A 
ATOM     20  C   UNL     1      -1.977  10.956  18.118  0.00  0.00    +0.000 A 
ENDBRANCH   9  11
ENDBRANCH   1   8
BRANCH   4  21
ATOM     21  C   UNL     1       3.843   4.473  19.378  0.00  0.00    +0.000 C 
BRANCH  21  22
ATOM     22  N   UNL     1       5.240   4.366  18.948  0.00  0.00    +0.000 N 
ATOM     23  N   UNL     1       6.152   5.036  19.701  0.00  0.00    +0.000 NA
ATOM     24  N   UNL     1       6.914   5.734  18.872  0.00  0.00    +0.000 NA
ATOM     25  C   UNL     1       6.611   5.347  17.594  0.00  0.00    +0.000 A 
ATOM     26  C   UNL     1       7.097   5.814  16.361  0.00  0.00    +0.000 A 
ATOM     27  C   UNL     1       6.682   5.167  15.195  0.00  0.00    +0.000 A 
ATOM     28  C   UNL     1       5.815   4.073  15.254  0.00  0.00    +0.000 A 
ATOM     29  C   UNL     1       5.253   3.649  16.472  0.00  0.00    +0.000 A 
ATOM     30  C   UNL     1       5.658   4.337  17.626  0.00  0.00    +0.000 A 
ENDBRANCH  21  22
ENDBRANCH   4  21
TORSDOF 4
ENDMDL
MODEL 2
REMARK VINA RESULT:      -9.4      1.766      3.458
REMARK  Name = 
REMARK  4 active torsions:
REMARK  status: ('A' for Active; 'I' for Inactive)
REMARK    1  A    between atoms: C_2  and  C_14
REMARK    2  A    between atoms: N_3  and  C_4
REMARK    3  A    between atoms: C_17  and  C_18
REMARK    4  A    between atoms: C_18  and  N_19
REMARK                            x       y       z     vdW  Elec       q    Type
REMARK                         _______ _______ _______ _____ _____    ______ ____
ROOT
ATOM      1  C   UNL     1       2.545   8.332  18.209  0.00  0.00    +0.000 A 
ATOM      2  C   UNL     1       2.330   7.447  19.262  0.00  0.00    +0.000 A 
ATOM      3  C   UNL     1       3.046   6.242  19.332  0.00  0.00    +0.000 A 
ATOM      4  C   UNL     1       3.986   5.900  18.342  0.00  0.00    +0.000 A 
ATOM      5  C   UNL     1       4.226   6.819  17.311  0.00  0.00    +0.000 A 
ATOM      6  C   UNL     1       3.506   8.027  17.242  0.00  0.00    +0.000 A 
ENDROOT
BRANCH   1   8
ATOM      7  O   UNL     1       2.200  10.521  17.391  0.00  0.00    +0.000 OA
ATOM      8  C   UNL     1       1.789   9.627  18.112  0.00  0.00    +0.000 C 
ATOM      9  N   UNL     1       0.630   9.723  18.868  0.00  0.00    +0.000 N 
ATOM     10  H   UNL     1       0.294   8.937  19.398  0.00  0.00    +0.000 HD
BRANCH   9  11
ATOM     11  C   UNL     1      -0.163  10.946  18.903  0.00  0.00    +0.000 C 
ATOM     12  C   UNL     1      -0.349  11.425  20.343  0.00  0.00    +0.000 C 
ATOM     13  C   UNL     1      -1.302  12.607  20.318  0.00  0.00    +0.000 C 
ATOM     14  O   UNL     1      -2.612  12.210  19.908  0.00  0.00    +0.000 OA
ATOM     15  C   UNL     1      -2.643  11.433  18.777  0.00  0.00    +0.000 A 
ATOM     16  C   UNL     1      -3.896  11.304  18.173  0.00  0.00    +0.000 A 
ATOM     17  C   UNL     1      -4.035  10.550  17.008  0.00  0.00    +0.000 A 
ATOM     18  C   UNL     1      -2.923   9.929  16.449  0.00  0.00    +0.000 A 
ATOM     19  C   UNL     1      -1.671  10.049  17.059  0.00  0.00    +0.000 A 
ATOM     20  C   UNL     1      -1.521  10.782  18.248  0.00  0.00    +0.000 A 
ENDBRANCH   9  11
ENDBRANCH   1   8
BRANCH   4  21
ATOM     21  C   UNL     1       4.773   4.617  18.417  0.00  0.00    +0.000 C 
BRANCH  21  22
ATOM     22  N   UNL     1       3.968   3.394  18.448  0.00  0.00    +0.000 N 
ATOM     23  N   UNL     1       3.396   3.023  17.272  0.00  0.00    +0.000 NA
ATOM     24  N   UNL     1       2.118   2.769  17.516  0.00  0.00    +0.000 NA
ATOM     25  C   UNL     1       1.936   2.786  18.872  0.00  0.00    +0.000 A 
ATOM     26  C   UNL     1       0.769   2.627  19.637  0.00  0.00    +0.000 A 
ATOM     27  C   UNL     1       0.885   2.592  21.029  0.00  0.00    +0.000 A 
ATOM     28  C   UNL     1       2.134   2.700  21.645  0.00  0.00    +0.000 A 
ATOM     29  C   UNL     1       3.300   2.946  20.898  0.00  0.00    +0.000 A 
ATOM     30  C   UNL     1       3.153   3.012  19.504  0.00  0.00    +0.000 A 
ENDBRANCH  21  22
ENDBRANCH   4  21
TORSDOF 4
ENDMDL
MODEL 3
REMARK VINA RESULT:      -9.0      1.988      3.448
REMARK  Name = 
REMARK  4 active torsions:
REMARK  status: ('A' for Active; 'I' for Inactive)
REMARK    1  A    between atoms: C_2  and  C_14
REMARK    2  A    between atoms: N_3  and  C_4
REMARK    3  A    between atoms: C_17  and  C_18
REMARK    4  A    between atoms: C_18  and  N_19
REMARK                            x       y       z     vdW  Elec       q    Type
REMARK                         _______ _______ _______ _____ _____    ______ ____
ROOT
ATOM      1  C   UNL     1       1.641   9.023  18.976  0.00  0.00    +0.000 A 
ATOM      2  C   UNL     1       2.178   8.861  17.702  0.00  0.00    +0.000 A 
ATOM      3  C   UNL     1       2.908   7.706  17.381  0.00  0.00    +0.000 A 
ATOM      4  C   UNL     1       3.116   6.694  18.338  0.00  0.00    +0.000 A 
ATOM      5  C   UNL     1       2.533   6.847  19.602  0.00  0.00    +0.000 A 
ATOM      6  C   UNL     1       1.803   8.008  19.923  0.00  0.00    +0.000 A 
ENDROOT
BRANCH   1   8
ATOM      7  O   UNL     1       1.306  11.040  20.159  0.00  0.00    +0.000 OA
ATOM      8  C   UNL     1       0.859  10.253  19.342  0.00  0.00    +0.000 C 
ATOM      9  N   UNL     1      -0.359  10.424  18.699  0.00  0.00    +0.000 N 
ATOM     10  H   UNL     1      -0.658   9.782  17.984  0.00  0.00    +0.000 HD
BRANCH   9  11
ATOM     11  C   UNL     1      -1.236  11.547  19.007  0.00  0.00    +0.000 C 
ATOM     12  C   UNL     1      -1.528  11.606  20.506  0.00  0.00    +0.000 C 
ATOM     13  C   UNL     1      -2.559  12.698  20.734  0.00  0.00    +0.000 C 
ATOM     14  O   UNL     1      -3.815  12.357  20.145  0.00  0.00    +0.000 OA
ATOM     15  C   UNL     1      -3.735  11.916  18.848  0.00  0.00    +0.000 A 
ATOM     16  C   UNL     1      -4.943  11.888  18.148  0.00  0.00    +0.000 A 
ATOM     17  C   UNL     1      -4.969  11.473  16.817  0.00  0.00    +0.000 A 
ATOM     18  C   UNL     1      -3.790  11.087  16.189  0.00  0.00    +0.000 A 
ATOM     19  C   UNL     1      -2.582  11.103  16.892  0.00  0.00    +0.000 A 
ATOM     20  C   UNL     1      -2.544  11.493  18.241  0.00  0.00    +0.000 A 
ENDBRANCH   9  11
ENDBRANCH   1   8
BRANCH   4  21
ATOM     21  C   UNL     1       3.882   5.441  17.999  0.00  0.00    +0.000 C 
BRANCH  21  22
ATOM     22  N   UNL     1       3.109   4.199  18.074  0.00  0.00    +0.000 N 
ATOM     23  N   UNL     1       2.102   4.064  17.170  0.00  0.00    +0.000 NA
ATOM     24  N   UNL     1       1.018   3.695  17.838  0.00  0.00    +0.000 NA
ATOM     25  C   UNL     1       1.393   3.404  19.122  0.00  0.00    +0.000 A 
ATOM     26  C   UNL     1       0.621   3.019  20.231  0.00  0.00    +0.000 A 
ATOM     27  C   UNL     1       1.281   2.687  21.417  0.00  0.00    +0.000 A 
ATOM     28  C   UNL     1       2.675   2.725  21.494  0.00  0.00    +0.000 A 
ATOM     29  C   UNL     1       3.456   3.191  20.421  0.00  0.00    +0.000 A 
ATOM     30  C   UNL     1       2.768   3.552  19.252  0.00  0.00    +0.000 A 
ENDBRANCH  21  22
ENDBRANCH   4  21
TORSDOF 4
ENDMDL
MODEL 4
REMARK VINA RESULT:      -8.7      2.328      2.964
REMARK  Name = 
REMARK  4 active torsions:
REMARK  status: ('A' for Active; 'I' for Inactive)
REMARK    1  A    between atoms: C_2  and  C_14
REMARK    2  A    between atoms: N_3  and  C_4
REMARK    3  A    between atoms: C_17  and  C_18
REMARK    4  A    between atoms: C_18  and  N_19
REMARK                            x       y       z     vdW  Elec       q    Type
REMARK                         _______ _______ _______ _____ _____    ______ ____
ROOT
ATOM      1  C   UNL     1       1.757   7.560  20.130  0.00  0.00    +0.000 A 
ATOM      2  C   UNL     1       2.289   7.592  18.844  0.00  0.00    +0.000 A 
ATOM      3  C   UNL     1       2.662   6.402  18.201  0.00  0.00    +0.000 A 
ATOM      4  C   UNL     1       2.513   5.157  18.842  0.00  0.00    +0.000 A 
ATOM      5  C   UNL     1       1.935   5.134  20.118  0.00  0.00    +0.000 A 
ATOM      6  C   UNL     1       1.562   6.329  20.762  0.00  0.00    +0.000 A 
ENDROOT
BRANCH   1   8
ATOM      7  O   UNL     1       1.422   8.890  22.054  0.00  0.00    +0.000 OA
ATOM      8  C   UNL     1       1.352   8.823  20.837  0.00  0.00    +0.000 C 
ATOM      9  N   UNL     1       0.919   9.869  20.036  0.00  0.00    +0.000 N 
ATOM     10  H   UNL     1       0.939   9.791  19.033  0.00  0.00    +0.000 HD
BRANCH   9  11
ATOM     11  C   UNL     1       0.448  11.126  20.604  0.00  0.00    +0.000 C 
ATOM     12  C   UNL     1      -1.077  11.125  20.720  0.00  0.00    +0.000 C 
ATOM     13  C   UNL     1      -1.506  12.510  21.174  0.00  0.00    +0.000 C 
ATOM     14  O   UNL     1      -1.230  13.494  20.175  0.00  0.00    +0.000 OA
ATOM     15  C   UNL     1       0.039  13.436  19.656  0.00  0.00    +0.000 A 
ATOM     16  C   UNL     1       0.443  14.562  18.933  0.00  0.00    +0.000 A 
ATOM     17  C   UNL     1       1.721  14.613  18.378  0.00  0.00    +0.000 A 
ATOM     18  C   UNL     1       2.593  13.543  18.547  0.00  0.00    +0.000 A 
ATOM     19  C   UNL     1       2.185  12.411  19.260  0.00  0.00    +0.000 A 
ATOM     20  C   UNL     1       0.892  12.333  19.801  0.00  0.00    +0.000 A 
ENDBRANCH   9  11
ENDBRANCH   1   8
BRANCH   4  21
ATOM     21  C   UNL     1       2.893   3.871  18.154  0.00  0.00    +0.000 C 
BRANCH  21  22
ATOM     22  N   UNL     1       4.329   3.586  18.117  0.00  0.00    +0.000 N 
ATOM     23  N   UNL     1       4.963   3.536  19.319  0.00  0.00    +0.000 NA
ATOM     24  N   UNL     1       6.047   4.292  19.227  0.00  0.00    +0.000 NA
ATOM     25  C   UNL     1       6.201   4.651  17.915  0.00  0.00    +0.000 A 
ATOM     26  C   UNL     1       7.156   5.479  17.302  0.00  0.00    +0.000 A 
ATOM     27  C   UNL     1       7.138   5.599  15.910  0.00  0.00    +0.000 A 
ATOM     28  C   UNL     1       6.201   4.902  15.145  0.00  0.00    +0.000 A 
ATOM     29  C   UNL     1       5.185   4.137  15.748  0.00  0.00    +0.000 A 
ATOM     30  C   UNL     1       5.203   4.060  17.149  0.00  0.00    +0.000 A 
ENDBRANCH  21  22
ENDBRANCH   4  21
TORSDOF 4
ENDMDL
MODEL 5
REMARK VINA RESULT:      -8.7      1.629      2.437
REMARK  Name = 
REMARK  4 active torsions:
REMARK  status: ('A' for Active; 'I' for Inactive)
REMARK    1  A    between atoms: C_2  and  C_14
REMARK    2  A    between atoms: N_3  and  C_4
REMARK    3  A    between atoms: C_17  and  C_18
REMARK    4  A    between atoms: C_18  and  N_19
REMARK                            x       y       z     vdW  Elec       q    Type
REMARK                         _______ _______ _______ _____ _____    ______ ____
ROOT
ATOM      1  C   UNL     1       0.909   9.770  19.355  0.00  0.00    +0.000 A 
ATOM      2  C   UNL     1       1.036   8.961  20.480  0.00  0.00    +0.000 A 
ATOM      3  C   UNL     1       1.760   7.760  20.411  0.00  0.00    +0.000 A 
ATOM      4  C   UNL     1       2.364   7.348  19.208  0.00  0.00    +0.000 A 
ATOM      5  C   UNL     1       2.267   8.193  18.095  0.00  0.00    +0.000 A 
ATOM      6  C   UNL     1       1.540   9.396  18.165  0.00  0.00    +0.000 A 
ENDROOT
BRANCH   1   8
ATOM      7  O   UNL     1       0.715  12.123  19.257  0.00  0.00    +0.000 OA
ATOM      8  C   UNL     1       0.137  11.059  19.405  0.00  0.00    +0.000 C 
ATOM      9  N   UNL     1      -1.230  10.952  19.616  0.00  0.00    +0.000 N 
ATOM     10  H   UNL     1      -1.673  10.051  19.668  0.00  0.00    +0.000 HD
BRANCH   9  11
ATOM     11  C   UNL     1      -2.080  12.130  19.739  0.00  0.00    +0.000 C 
ATOM     12  C   UNL     1      -2.350  12.446  21.211  0.00  0.00    +0.000 C 
ATOM     13  C   UNL     1      -3.356  13.583  21.262  0.00  0.00    +0.000 C 
ATOM     14  O   UNL     1      -4.627  13.176  20.751  0.00  0.00    +0.000 OA
ATOM     15  C   UNL     1      -4.573  12.521  19.546  0.00  0.00    +0.000 A 
ATOM     16  C   UNL     1      -5.791  12.403  18.873  0.00  0.00    +0.000 A 
ATOM     17  C   UNL     1      -5.844  11.771  17.631  0.00  0.00    +0.000 A 
ATOM     18  C   UNL     1      -4.681  11.260  17.064  0.00  0.00    +0.000 A 
ATOM     19  C   UNL     1      -3.464  11.367  17.743  0.00  0.00    +0.000 A 
ATOM     20  C   UNL     1      -3.399  11.977  19.006  0.00  0.00    +0.000 A 
ENDBRANCH   9  11
ENDBRANCH   1   8
BRANCH   4  21
ATOM     21  C   UNL     1       3.159   6.070  19.128  0.00  0.00    +0.000 C 
BRANCH  21  22
ATOM     22  N   UNL     1       3.251   5.476  17.792  0.00  0.00    +0.000 N 
ATOM     23  N   UNL     1       2.534   4.339  17.590  0.00  0.00    +0.000 NA
ATOM     24  N   UNL     1       3.346   3.452  17.033  0.00  0.00    +0.000 NA
ATOM     25  C   UNL     1       4.509   4.094  16.703  0.00  0.00    +0.000 A 
ATOM     26  C   UNL     1       5.696   3.597  16.140  0.00  0.00    +0.000 A 
ATOM     27  C   UNL     1       6.708   4.503  15.814  0.00  0.00    +0.000 A 
ATOM     28  C   UNL     1       6.539   5.872  16.031  0.00  0.00    +0.000 A 
ATOM     29  C   UNL     1       5.393   6.376  16.673  0.00  0.00    +0.000 A 
ATOM     30  C   UNL     1       4.405   5.442  17.022  0.00  0.00    +0.000 A 
ENDBRANCH  21  22
ENDBRANCH   4  21
TORSDOF 4
ENDMDL
MODEL 6
REMARK VINA RESULT:      -8.6      2.063      3.123
REMARK  Name = 
REMARK  4 active torsions:
REMARK  status: ('A' for Active; 'I' for Inactive)
REMARK    1  A    between atoms: C_2  and  C_14
REMARK    2  A    between atoms: N_3  and  C_4
REMARK    3  A    between atoms: C_17  and  C_18
REMARK    4  A    between atoms: C_18  and  N_19
REMARK                            x       y       z     vdW  Elec       q    Type
REMARK                         _______ _______ _______ _____ _____    ______ ____
ROOT
ATOM      1  C   UNL     1       1.155   9.847  19.110  0.00  0.00    +0.000 A 
ATOM      2  C   UNL     1       1.330   8.804  20.014  0.00  0.00    +0.000 A 
ATOM      3  C   UNL     1       2.102   7.685  19.666  0.00  0.00    +0.000 A 
ATOM      4  C   UNL     1       2.708   7.591  18.398  0.00  0.00    +0.000 A 
ATOM      5  C   UNL     1       2.562   8.667  17.513  0.00  0.00    +0.000 A 
ATOM      6  C   UNL     1       1.786   9.788  17.864  0.00  0.00    +0.000 A 
ENDROOT
BRANCH   1   8
ATOM      7  O   UNL     1       0.878  12.079  19.835  0.00  0.00    +0.000 OA
ATOM      8  C   UNL     1       0.331  11.054  19.461  0.00  0.00    +0.000 C 
ATOM      9  N   UNL     1      -1.043  10.924  19.325  0.00  0.00    +0.000 N 
ATOM     10  H   UNL     1      -1.446  10.081  18.951  0.00  0.00    +0.000 HD
BRANCH   9  11
ATOM     11  C   UNL     1      -1.955  12.003  19.685  0.00  0.00    +0.000 C 
ATOM     12  C   UNL     1      -2.193  12.023  21.195  0.00  0.00    +0.000 C 
ATOM     13  C   UNL     1      -3.260  13.066  21.481  0.00  0.00    +0.000 C 
ATOM     14  O   UNL     1      -4.522  12.684  20.930  0.00  0.00    +0.000 OA
ATOM     15  C   UNL     1      -4.470  12.270  19.623  0.00  0.00    +0.000 A 
ATOM     16  C   UNL     1      -5.701  12.204  18.966  0.00  0.00    +0.000 A 
ATOM     17  C   UNL     1      -5.759  11.812  17.629  0.00  0.00    +0.000 A 
ATOM     18  C   UNL     1      -4.588  11.488  16.951  0.00  0.00    +0.000 A 
ATOM     19  C   UNL     1      -3.357  11.542  17.612  0.00  0.00    +0.000 A 
ATOM     20  C   UNL     1      -3.286  11.909  18.965  0.00  0.00    +0.000 A 
ENDBRANCH   9  11
ENDBRANCH   1   8
BRANCH   4  21
ATOM     21  C   UNL     1       3.554   6.402  18.020  0.00  0.00    +0.000 C 
BRANCH  21  22
ATOM     22  N   UNL     1       3.661   5.362  19.046  0.00  0.00    +0.000 N 
ATOM     23  N   UNL     1       4.921   5.002  19.406  0.00  0.00    +0.000 NA
ATOM     24  N   UNL     1       4.981   3.679  19.369  0.00  0.00    +0.000 NA
ATOM     25  C   UNL     1       3.711   3.204  19.183  0.00  0.00    +0.000 A 
ATOM     26  C   UNL     1       3.243   1.889  19.026  0.00  0.00    +0.000 A 
ATOM     27  C   UNL     1       1.864   1.678  18.948  0.00  0.00    +0.000 A 
ATOM     28  C   UNL     1       0.972   2.748  19.037  0.00  0.00    +0.000 A 
ATOM     29  C   UNL     1       1.426   4.078  19.107  0.00  0.00    +0.000 A 
ATOM     30  C   UNL     1       2.816   4.266  19.149  0.00  0.00    +0.000 A 
ENDBRANCH  21  22
ENDBRANCH   4  21
TORSDOF 4
ENDMDL
MODEL 7
REMARK VINA RESULT:      -8.5      1.100      1.184
REMARK  Name = 
REMARK  4 active torsions:
REMARK  status: ('A' for Active; 'I' for Inactive)
REMARK    1  A    between atoms: C_2  and  C_14
REMARK    2  A    between atoms: N_3  and  C_4
REMARK    3  A    between atoms: C_17  and  C_18
REMARK    4  A    between atoms: C_18  and  N_19
REMARK                            x       y       z     vdW  Elec       q    Type
REMARK                         _______ _______ _______ _____ _____    ______ ____
ROOT
ATOM      1  C   UNL     1       1.809   7.758  19.561  0.00  0.00    +0.000 A 
ATOM      2  C   UNL     1       2.517   7.450  18.403  0.00  0.00    +0.000 A 
ATOM      3  C   UNL     1       3.142   6.201  18.265  0.00  0.00    +0.000 A 
ATOM      4  C   UNL     1       3.071   5.240  19.292  0.00  0.00    +0.000 A 
ATOM      5  C   UNL     1       2.319   5.545  20.434  0.00  0.00    +0.000 A 
ATOM      6  C   UNL     1       1.694   6.799  20.571  0.00  0.00    +0.000 A 
ENDROOT
BRANCH   1   8
ATOM      7  O   UNL     1       0.659   9.400  20.811  0.00  0.00    +0.000 OA
ATOM      8  C   UNL     1       1.134   9.091  19.731  0.00  0.00    +0.000 C 
ATOM      9  N   UNL     1       1.102   9.913  18.615  0.00  0.00    +0.000 N 
ATOM     10  H   UNL     1       1.564   9.643  17.763  0.00  0.00    +0.000 HD
BRANCH   9  11
ATOM     11  C   UNL     1       0.429  11.207  18.635  0.00  0.00    +0.000 C 
ATOM     12  C   UNL     1       0.706  11.935  19.951  0.00  0.00    +0.000 C 
ATOM     13  C   UNL     1      -0.140  13.197  19.967  0.00  0.00    +0.000 C 
ATOM     14  O   UNL     1      -1.534  12.888  20.022  0.00  0.00    +0.000 OA
ATOM     15  C   UNL     1      -1.944  11.943  19.115  0.00  0.00    +0.000 A 
ATOM     16  C   UNL     1      -3.324  11.858  18.920  0.00  0.00    +0.000 A 
ATOM     17  C   UNL     1      -3.845  10.943  18.006  0.00  0.00    +0.000 A 
ATOM     18  C   UNL     1      -2.987  10.116  17.288  0.00  0.00    +0.000 A 
ATOM     19  C   UNL     1      -1.606  10.193  17.491  0.00  0.00    +0.000 A 
ATOM     20  C   UNL     1      -1.068  11.090  18.428  0.00  0.00    +0.000 A 
ENDBRANCH   9  11
ENDBRANCH   1   8
BRANCH   4  21
ATOM     21  C   UNL     1       3.723   3.889  19.147  0.00  0.00    +0.000 C 
BRANCH  21  22
ATOM     22  N   UNL     1       5.153   3.917  18.830  0.00  0.00    +0.000 N 
ATOM     23  N   UNL     1       5.968   4.437  19.786  0.00  0.00    +0.000 NA
ATOM     24  N   UNL     1       6.761   5.319  19.194  0.00  0.00    +0.000 NA
ATOM     25  C   UNL     1       6.581   5.206  17.841  0.00  0.00    +0.000 A 
ATOM     26  C   UNL     1       7.142   5.940  16.783  0.00  0.00    +0.000 A 
ATOM     27  C   UNL     1       6.854   5.546  15.474  0.00  0.00    +0.000 A 
ATOM     28  C   UNL     1       6.039   4.440  15.224  0.00  0.00    +0.000 A 
ATOM     29  C   UNL     1       5.400   3.749  16.269  0.00  0.00    +0.000 A 
ATOM     30  C   UNL     1       5.678   4.185  17.574  0.00  0.00    +0.000 A 
ENDBRANCH  21  22
ENDBRANCH   4  21
TORSDOF 4
ENDMDL
MODEL 8
REMARK VINA RESULT:      -8.5      2.827      4.378
REMARK  Name = 
REMARK  4 active torsions:
REMARK  status: ('A' for Active; 'I' for Inactive)
REMARK    1  A    between atoms: C_2  and  C_14
REMARK    2  A    between atoms: N_3  and  C_4
REMARK    3  A    between atoms: C_17  and  C_18
REMARK    4  A    between atoms: C_18  and  N_19
REMARK                            x       y       z     vdW  Elec       q    Type
REMARK                         _______ _______ _______ _____ _____    ______ ____
ROOT
ATOM      1  C   UNL     1       1.805   8.729  18.529  0.00  0.00    +0.000 A 
ATOM      2  C   UNL     1       2.624   8.507  17.426  0.00  0.00    +0.000 A 
ATOM      3  C   UNL     1       3.506   7.415  17.407  0.00  0.00    +0.000 A 
ATOM      4  C   UNL     1       3.586   6.531  18.499  0.00  0.00    +0.000 A 
ATOM      5  C   UNL     1       2.725   6.740  19.585  0.00  0.00    +0.000 A 
ATOM      6  C   UNL     1       1.842   7.836  19.603  0.00  0.00    +0.000 A 
ENDROOT
BRANCH   1   8
ATOM      7  O   UNL     1      -0.198   9.844  17.956  0.00  0.00    +0.000 OA
ATOM      8  C   UNL     1       0.854   9.893  18.572  0.00  0.00    +0.000 C 
ATOM      9  N   UNL     1       1.243  10.980  19.341  0.00  0.00    +0.000 N 
ATOM     10  H   UNL     1       2.089  10.949  19.884  0.00  0.00    +0.000 HD
BRANCH   9  11
ATOM     11  C   UNL     1       0.434  12.191  19.420  0.00  0.00    +0.000 C 
ATOM     12  C   UNL     1       1.268  13.418  19.051  0.00  0.00    +0.000 C 
ATOM     13  C   UNL     1       0.414  14.649  19.299  0.00  0.00    +0.000 C 
ATOM     14  O   UNL     1       0.137  14.818  20.691  0.00  0.00    +0.000 OA
ATOM     15  C   UNL     1      -0.306  13.684  21.325  0.00  0.00    +0.000 A 
ATOM     16  C   UNL     1      -0.887  13.886  22.579  0.00  0.00    +0.000 A 
ATOM     17  C   UNL     1      -1.386  12.802  23.300  0.00  0.00    +0.000 A 
ATOM     18  C   UNL     1      -1.304  11.520  22.767  0.00  0.00    +0.000 A 
ATOM     19  C   UNL     1      -0.712  11.315  21.518  0.00  0.00    +0.000 A 
ATOM     20  C   UNL     1      -0.181  12.394  20.791  0.00  0.00    +0.000 A 
ENDBRANCH   9  11
ENDBRANCH   1   8
BRANCH   4  21
ATOM     21  C   UNL     1       4.517   5.346  18.481  0.00  0.00    +0.000 C 
BRANCH  21  22
ATOM     22  N   UNL     1       3.861   4.040  18.374  0.00  0.00    +0.000 N 
ATOM     23  N   UNL     1       3.318   3.740  17.164  0.00  0.00    +0.000 NA
ATOM     24  N   UNL     1       2.083   3.312  17.380  0.00  0.00    +0.000 NA
ATOM     25  C   UNL     1       1.921   3.153  18.730  0.00  0.00    +0.000 A 
ATOM     26  C   UNL     1       0.793   2.772  19.474  0.00  0.00    +0.000 A 
ATOM     27  C   UNL     1       0.934   2.593  20.852  0.00  0.00    +0.000 A 
ATOM     28  C   UNL     1       2.171   2.777  21.474  0.00  0.00    +0.000 A 
ATOM     29  C   UNL     1       3.289   3.243  20.757  0.00  0.00    +0.000 A 
ATOM     30  C   UNL     1       3.113   3.448  19.380  0.00  0.00    +0.000 A 
ENDBRANCH  21  22
ENDBRANCH   4  21
TORSDOF 4
ENDMDL
MODEL 9
REMARK VINA RESULT:      -8.5      2.385      3.411
REMARK  Name = 
REMARK  4 active torsions:
REMARK  status: ('A' for Active; 'I' for Inactive)
REMARK    1  A    between atoms: C_2  and  C_14
REMARK    2  A    between atoms: N_3  and  C_4
REMARK    3  A    between atoms: C_17  and  C_18
REMARK    4  A    between atoms: C_18  and  N_19
REMARK                            x       y       z     vdW  Elec       q    Type
REMARK                         _______ _______ _______ _____ _____    ______ ____
ROOT
ATOM      1  C   UNL     1       1.772   8.052  19.817  0.00  0.00    +0.000 A 
ATOM      2  C   UNL     1       1.842   6.791  20.402  0.00  0.00    +0.000 A 
ATOM      3  C   UNL     1       2.255   5.681  19.647  0.00  0.00    +0.000 A 
ATOM      4  C   UNL     1       2.600   5.819  18.289  0.00  0.00    +0.000 A 
ATOM      5  C   UNL     1       2.569   7.100  17.724  0.00  0.00    +0.000 A 
ATOM      6  C   UNL     1       2.153   8.212  18.482  0.00  0.00    +0.000 A 
ENDROOT
BRANCH   1   8
ATOM      7  O   UNL     1       1.333   9.218  21.825  0.00  0.00    +0.000 OA
ATOM      8  C   UNL     1       1.331   9.253  20.605  0.00  0.00    +0.000 C 
ATOM      9  N   UNL     1       0.944  10.365  19.871  0.00  0.00    +0.000 N 
ATOM     10  H   UNL     1       1.020  10.371  18.868  0.00  0.00    +0.000 HD
BRANCH   9  11
ATOM     11  C   UNL     1       0.444  11.573  20.517  0.00  0.00    +0.000 C 
ATOM     12  C   UNL     1      -1.084  11.567  20.558  0.00  0.00    +0.000 C 
ATOM     13  C   UNL     1      -1.538  12.911  21.101  0.00  0.00    +0.000 C 
ATOM     14  O   UNL     1      -1.215  13.972  20.200  0.00  0.00    +0.000 OA
ATOM     15  C   UNL     1       0.078  13.954  19.740  0.00  0.00    +0.000 A 
ATOM     16  C   UNL     1       0.514  15.133  19.131  0.00  0.00    +0.000 A 
ATOM     17  C   UNL     1       1.818  15.227  18.645  0.00  0.00    +0.000 A 
ATOM     18  C   UNL     1       2.682  14.144  18.768  0.00  0.00    +0.000 A 
ATOM     19  C   UNL     1       2.242  12.959  19.366  0.00  0.00    +0.000 A 
ATOM     20  C   UNL     1       0.925  12.841  19.836  0.00  0.00    +0.000 A 
ENDBRANCH   9  11
ENDBRANCH   1   8
BRANCH   4  21
ATOM     21  C   UNL     1       3.062   4.638  17.475  0.00  0.00    +0.000 C 
BRANCH  21  22
ATOM     22  N   UNL     1       4.435   4.200  17.735  0.00  0.00    +0.000 N 
ATOM     23  N   UNL     1       4.602   3.326  18.764  0.00  0.00    +0.000 NA
ATOM     24  N   UNL     1       5.585   3.789  19.522  0.00  0.00    +0.000 NA
ATOM     25  C   UNL     1       6.166   4.839  18.864  0.00  0.00    +0.000 A 
ATOM     26  C   UNL     1       7.208   5.697  19.257  0.00  0.00    +0.000 A 
ATOM     27  C   UNL     1       7.676   6.639  18.338  0.00  0.00    +0.000 A 
ATOM     28  C   UNL     1       7.130   6.718  17.055  0.00  0.00    +0.000 A 
ATOM     29  C   UNL     1       6.030   5.927  16.676  0.00  0.00    +0.000 A 
ATOM     30  C   UNL     1       5.556   5.012  17.628  0.00  0.00    +0.000 A 
ENDBRANCH  21  22
ENDBRANCH   4  21
TORSDOF 4
ENDMDL
