MODEL 1
REMARK VINA RESULT:      -9.1      0.000      0.000
REMARK  Name = 
REMARK  4 active torsions:
REMARK  status: ('A' for Active; 'I' for Inactive)
REMARK    1  A    between atoms: C_2  and  C_22
REMARK    2  A    between atoms: N_3  and  C_4
REMARK    3  A    between atoms: C_8  and  N_9
REMARK    4  A    between atoms: C_10  and  C_12
REMARK                            x       y       z     vdW  Elec       q    Type
REMARK                         _______ _______ _______ _____ _____    ______ ____
ROOT
ATOM      1  C   UNL     1       2.415   5.072  20.613  0.00  0.00    +0.000 A 
ATOM      2  C   UNL     1       2.177   3.951  21.411  0.00  0.00    +0.000 A 
ATOM      3  C   UNL     1       2.820   2.743  21.164  0.00  0.00    +0.000 A 
ATOM      4  C   UNL     1       3.703   2.624  20.097  0.00  0.00    +0.000 A 
ATOM      5  C   UNL     1       3.947   3.708  19.253  0.00  0.00    +0.000 A 
ATOM      6  C   UNL     1       3.296   4.936  19.519  0.00  0.00    +0.000 A 
ENDROOT
BRANCH   1   9
ATOM      7  O   UNL     1       2.533   7.524  19.014  0.00  0.00    +0.000 OA
ATOM      8  C   UNL     1       1.935   7.462  20.083  0.00  0.00    +0.000 C 
ATOM      9  N   UNL     1       1.784   6.325  20.873  0.00  0.00    +0.000 N 
ATOM     10  H   UNL     1       1.082   6.343  21.600  0.00  0.00    +0.000 HD
BRANCH   8  11
ATOM     11  C   UNL     1       1.274   8.716  20.529  0.00  0.00    +0.000 A 
ATOM     12  C   UNL     1       0.950   8.824  21.888  0.00  0.00    +0.000 A 
ATOM     13  C   UNL     1       0.248   9.935  22.311  0.00  0.00    +0.000 A 
ATOM     14  N   UNL     1      -0.149  10.921  21.482  0.00  0.00    +0.000 NA
ATOM     15  C   UNL     1       0.156  10.781  20.172  0.00  0.00    +0.000 A 
ATOM     16  C   UNL     1       0.862   9.710  19.646  0.00  0.00    +0.000 A 
ENDBRANCH   8  11
ENDBRANCH   1   9
BRANCH   5  17
ATOM     17  N   UNL     1       4.842   3.619  18.158  0.00  0.00    +0.000 N 
ATOM     18  C   UNL     1       5.649   4.629  17.643  0.00  0.00    +0.000 C 
ATOM     19  O   UNL     1       5.797   5.760  18.105  0.00  0.00    +0.000 OA
ATOM     20  H   UNL     1       4.880   2.739  17.652  0.00  0.00    +0.000 HD
BRANCH  18  21
ATOM     21  C   UNL     1       6.425   4.221  16.387  0.00  0.00    +0.000 C 
ATOM     22  C   UNL     1       5.533   3.538  15.342  0.00  0.00    +0.000 C 
ATOM     23  C   UNL     1       6.285   3.943  14.127  0.00  0.00    +0.000 A 
ATOM     24  C   UNL     1       6.241   3.453  12.834  0.00  0.00    +0.000 A 
ATOM     25  C   UNL     1       7.039   4.075  11.867  0.00  0.00    +0.000 A 
ATOM     26  C   UNL     1       7.843   5.182  12.202  0.00  0.00    +0.000 A 
ATOM     27  C   UNL     1       7.875   5.666  13.508  0.00  0.00    +0.000 A 
ATOM     28  C   UNL     1       7.101   5.020  14.447  0.00  0.00    +0.000 A 
ATOM     29  O   UNL     1       7.056   5.371  15.769  0.00  0.00    +0.000 OA
ENDBRANCH  18  21
ENDBRANCH   5  17
TORSDOF 4
ENDMDL
MODEL 2
REMARK VINA RESULT:      -9.1      1.573      2.095
REMARK  Name = 
REMARK  4 active torsions:
REMARK  status: ('A' for Active; 'I' for Inactive)
REMARK    1  A    between atoms: C_2  and  C_22
REMARK    2  A    between atoms: N_3  and  C_4
REMARK    3  A    between atoms: C_8  and  N_9
REMARK    4  A    between atoms: C_10  and  C_12
REMARK                            x       y       z     vdW  Elec       q    Type
REMARK                         _______ _______ _______ _____ _____    ______ ____
ROOT
ATOM      1  C   UNL     1       2.226   7.007  19.647  0.00  0.00    +0.000 A 
ATOM      2  C   UNL     1       1.822   6.139  20.665  0.00  0.00    +0.000 A 
ATOM      3  C   UNL     1       2.315   4.840  20.739  0.00  0.00    +0.000 A 
ATOM      4  C   UNL     1       3.210   4.374  19.784  0.00  0.00    +0.000 A 
ATOM      5  C   UNL     1       3.616   5.194  18.731  0.00  0.00    +0.000 A 
ATOM      6  C   UNL     1       3.117   6.517  18.669  0.00  0.00    +0.000 A 
ENDROOT
BRANCH   1   9
ATOM      7  O   UNL     1       2.172   8.785  17.320  0.00  0.00    +0.000 OA
ATOM      8  C   UNL     1       1.809   9.145  18.434  0.00  0.00    +0.000 C 
ATOM      9  N   UNL     1       1.750   8.349  19.575  0.00  0.00    +0.000 N 
ATOM     10  H   UNL     1       1.219   8.691  20.364  0.00  0.00    +0.000 HD
BRANCH   8  11
ATOM     11  C   UNL     1       1.343  10.553  18.539  0.00  0.00    +0.000 A 
ATOM     12  C   UNL     1       2.254  11.560  18.196  0.00  0.00    +0.000 A 
ATOM     13  C   UNL     1       1.881  12.877  18.379  0.00  0.00    +0.000 A 
ATOM     14  N   UNL     1       0.682  13.244  18.875  0.00  0.00    +0.000 NA
ATOM     15  C   UNL     1      -0.170  12.253  19.220  0.00  0.00    +0.000 A 
ATOM     16  C   UNL     1       0.105  10.902  19.071  0.00  0.00    +0.000 A 
ENDBRANCH   8  11
ENDBRANCH   1   9
BRANCH   5  17
ATOM     17  N   UNL     1       4.528   4.749  17.741  0.00  0.00    +0.000 N 
ATOM     18  C   UNL     1       5.888   5.032  17.656  0.00  0.00    +0.000 C 
ATOM     19  O   UNL     1       6.562   5.650  18.479  0.00  0.00    +0.000 OA
ATOM     20  H   UNL     1       4.156   4.195  16.975  0.00  0.00    +0.000 HD
BRANCH  18  21
ATOM     21  C   UNL     1       6.559   4.470  16.400  0.00  0.00    +0.000 C 
ATOM     22  C   UNL     1       5.572   3.729  15.488  0.00  0.00    +0.000 C 
ATOM     23  C   UNL     1       6.253   3.981  14.193  0.00  0.00    +0.000 A 
ATOM     24  C   UNL     1       6.101   3.370  12.961  0.00  0.00    +0.000 A 
ATOM     25  C   UNL     1       6.854   3.859  11.887  0.00  0.00    +0.000 A 
ATOM     26  C   UNL     1       7.721   4.956  12.057  0.00  0.00    +0.000 A 
ATOM     27  C   UNL     1       7.861   5.562  13.304  0.00  0.00    +0.000 A 
ATOM     28  C   UNL     1       7.130   5.046  14.350  0.00  0.00    +0.000 A 
ATOM     29  O   UNL     1       7.189   5.525  15.631  0.00  0.00    +0.000 OA
ENDBRANCH  18  21
ENDBRANCH   5  17
TORSDOF 4
ENDMDL
MODEL 3
REMARK VINA RESULT:      -9.1      4.510      7.716
REMARK  Name = 
REMARK  4 active torsions:
REMARK  status: ('A' for Active; 'I' for Inactive)
REMARK    1  A    between atoms: C_2  and  C_22
REMARK    2  A    between atoms: N_3  and  C_4
REMARK    3  A    between atoms: C_8  and  N_9
REMARK    4  A    between atoms: C_10  and  C_12
REMARK                            x       y       z     vdW  Elec       q    Type
REMARK                         _______ _______ _______ _____ _____    ______ ____
ROOT
ATOM      1  C   UNL     1      -1.144  11.652  19.087  0.00  0.00    +0.000 A 
ATOM      2  C   UNL     1      -0.323  12.742  18.787  0.00  0.00    +0.000 A 
ATOM      3  C   UNL     1       1.052  12.586  18.639  0.00  0.00    +0.000 A 
ATOM      4  C   UNL     1       1.638  11.337  18.807  0.00  0.00    +0.000 A 
ATOM      5  C   UNL     1       0.862  10.227  19.140  0.00  0.00    +0.000 A 
ATOM      6  C   UNL     1      -0.537  10.393  19.279  0.00  0.00    +0.000 A 
ENDROOT
BRANCH   1   9
ATOM      7  O   UNL     1      -3.189  11.348  17.011  0.00  0.00    +0.000 OA
ATOM      8  C   UNL     1      -3.459  11.682  18.159  0.00  0.00    +0.000 C 
ATOM      9  N   UNL     1      -2.558  11.793  19.215  0.00  0.00    +0.000 N 
ATOM     10  H   UNL     1      -2.931  11.845  20.153  0.00  0.00    +0.000 HD
BRANCH   8  11
ATOM     11  C   UNL     1      -4.897  11.934  18.439  0.00  0.00    +0.000 A 
ATOM     12  C   UNL     1      -5.742  12.131  17.340  0.00  0.00    +0.000 A 
ATOM     13  C   UNL     1      -7.062  12.463  17.574  0.00  0.00    +0.000 A 
ATOM     14  N   UNL     1      -7.579  12.614  18.810  0.00  0.00    +0.000 NA
ATOM     15  C   UNL     1      -6.738  12.442  19.853  0.00  0.00    +0.000 A 
ATOM     16  C   UNL     1      -5.399  12.100  19.727  0.00  0.00    +0.000 A 
ENDBRANCH   8  11
ENDBRANCH   1   9
BRANCH   5  17
ATOM     17  N   UNL     1       1.429   8.941  19.319  0.00  0.00    +0.000 N 
ATOM     18  C   UNL     1       2.167   8.207  18.394  0.00  0.00    +0.000 C 
ATOM     19  O   UNL     1       2.535   8.584  17.283  0.00  0.00    +0.000 OA
ATOM     20  H   UNL     1       1.251   8.467  20.200  0.00  0.00    +0.000 HD
BRANCH  18  21
ATOM     21  C   UNL     1       2.548   6.806  18.880  0.00  0.00    +0.000 C 
ATOM     22  C   UNL     1       1.953   6.479  20.256  0.00  0.00    +0.000 C 
ATOM     23  C   UNL     1       1.844   5.007  20.093  0.00  0.00    +0.000 A 
ATOM     24  C   UNL     1       1.665   4.007  21.033  0.00  0.00    +0.000 A 
ATOM     25  C   UNL     1       1.546   2.690  20.576  0.00  0.00    +0.000 A 
ATOM     26  C   UNL     1       1.583   2.399  19.199  0.00  0.00    +0.000 A 
ATOM     27  C   UNL     1       1.761   3.418  18.264  0.00  0.00    +0.000 A 
ATOM     28  C   UNL     1       1.903   4.702  18.740  0.00  0.00    +0.000 A 
ATOM     29  O   UNL     1       2.110   5.793  17.939  0.00  0.00    +0.000 OA
ENDBRANCH  18  21
ENDBRANCH   5  17
TORSDOF 4
ENDMDL
MODEL 4
REMARK VINA RESULT:      -8.9      1.800      9.231
REMARK  Name = 
REMARK  4 active torsions:
REMARK  status: ('A' for Active; 'I' for Inactive)
REMARK    1  A    between atoms: C_2  and  C_22
REMARK    2  A    between atoms: N_3  and  C_4
REMARK    3  A    between atoms: C_8  and  N_9
REMARK    4  A    between atoms: C_10  and  C_12
REMARK                            x       y       z     vdW  Elec       q    Type
REMARK                         _______ _______ _______ _____ _____    ______ ____
ROOT
ATOM      1  C   UNL     1       4.065   4.307  17.646  0.00  0.00    +0.000 A 
ATOM      2  C   UNL     1       4.035   3.158  18.439  0.00  0.00    +0.000 A 
ATOM      3  C   UNL     1       3.470   3.177  19.711  0.00  0.00    +0.000 A 
ATOM      4  C   UNL     1       2.941   4.356  20.224  0.00  0.00    +0.000 A 
ATOM      5  C   UNL     1       2.979   5.535  19.482  0.00  0.00    +0.000 A 
ATOM      6  C   UNL     1       3.546   5.503  18.185  0.00  0.00    +0.000 A 
ENDROOT
BRANCH   1   9
ATOM      7  O   UNL     1       6.889   4.338  16.866  0.00  0.00    +0.000 OA
ATOM      8  C   UNL     1       5.978   4.364  16.046  0.00  0.00    +0.000 C 
ATOM      9  N   UNL     1       4.616   4.294  16.330  0.00  0.00    +0.000 N 
ATOM     10  H   UNL     1       3.983   4.090  15.569  0.00  0.00    +0.000 HD
BRANCH   8  11
ATOM     11  C   UNL     1       6.392   4.421  14.619  0.00  0.00    +0.000 A 
ATOM     12  C   UNL     1       5.774   3.528  13.734  0.00  0.00    +0.000 A 
ATOM     13  C   UNL     1       6.209   3.492  12.424  0.00  0.00    +0.000 A 
ATOM     14  N   UNL     1       7.204   4.270  11.953  0.00  0.00    +0.000 NA
ATOM     15  C   UNL     1       7.799   5.106  12.833  0.00  0.00    +0.000 A 
ATOM     16  C   UNL     1       7.434   5.224  14.165  0.00  0.00    +0.000 A 
ENDBRANCH   8  11
ENDBRANCH   1   9
BRANCH   5  17
ATOM     17  N   UNL     1       2.448   6.752  19.977  0.00  0.00    +0.000 N 
ATOM     18  C   UNL     1       2.049   7.862  19.238  0.00  0.00    +0.000 C 
ATOM     19  O   UNL     1       2.003   7.952  18.012  0.00  0.00    +0.000 OA
ATOM     20  H   UNL     1       2.383   6.861  20.985  0.00  0.00    +0.000 HD
BRANCH  18  21
ATOM     21  C   UNL     1       1.610   9.052  20.098  0.00  0.00    +0.000 C 
ATOM     22  C   UNL     1       0.504   9.881  19.432  0.00  0.00    +0.000 C 
ATOM     23  C   UNL     1      -0.155  10.380  20.666  0.00  0.00    +0.000 A 
ATOM     24  C   UNL     1      -1.048  11.420  20.853  0.00  0.00    +0.000 A 
ATOM     25  C   UNL     1      -1.552  11.631  22.142  0.00  0.00    +0.000 A 
ATOM     26  C   UNL     1      -1.174  10.791  23.208  0.00  0.00    +0.000 A 
ATOM     27  C   UNL     1      -0.276   9.745  23.003  0.00  0.00    +0.000 A 
ATOM     28  C   UNL     1       0.225   9.575  21.732  0.00  0.00    +0.000 A 
ATOM     29  O   UNL     1       1.133   8.608  21.393  0.00  0.00    +0.000 OA
ENDBRANCH  18  21
ENDBRANCH   5  17
TORSDOF 4
ENDMDL
MODEL 5
REMARK VINA RESULT:      -8.9      1.230      1.599
REMARK  Name = 
REMARK  4 active torsions:
REMARK  status: ('A' for Active; 'I' for Inactive)
REMARK    1  A    between atoms: C_2  and  C_22
REMARK    2  A    between atoms: N_3  and  C_4
REMARK    3  A    between atoms: C_8  and  N_9
REMARK    4  A    between atoms: C_10  and  C_12
REMARK                            x       y       z     vdW  Elec       q    Type
REMARK                         _______ _______ _______ _____ _____    ______ ____
ROOT
ATOM      1  C   UNL     1       2.243   6.873  19.572  0.00  0.00    +0.000 A 
ATOM      2  C   UNL     1       1.883   6.002  20.603  0.00  0.00    +0.000 A 
ATOM      3  C   UNL     1       2.420   4.721  20.681  0.00  0.00    +0.000 A 
ATOM      4  C   UNL     1       3.316   4.276  19.715  0.00  0.00    +0.000 A 
ATOM      5  C   UNL     1       3.678   5.100  18.649  0.00  0.00    +0.000 A 
ATOM      6  C   UNL     1       3.135   6.405  18.584  0.00  0.00    +0.000 A 
ENDROOT
BRANCH   1   9
ATOM      7  O   UNL     1       1.238   8.552  21.753  0.00  0.00    +0.000 OA
ATOM      8  C   UNL     1       1.213   8.909  20.580  0.00  0.00    +0.000 C 
ATOM      9  N   UNL     1       1.721   8.199  19.496  0.00  0.00    +0.000 N 
ATOM     10  H   UNL     1       1.852   8.694  18.624  0.00  0.00    +0.000 HD
BRANCH   8  11
ATOM     11  C   UNL     1       0.631  10.253  20.324  0.00  0.00    +0.000 A 
ATOM     12  C   UNL     1       0.252  11.013  21.438  0.00  0.00    +0.000 A 
ATOM     13  C   UNL     1      -0.380  12.222  21.227  0.00  0.00    +0.000 A 
ATOM     14  N   UNL     1      -0.658  12.708  20.000  0.00  0.00    +0.000 NA
ATOM     15  C   UNL     1      -0.303  11.945  18.943  0.00  0.00    +0.000 A 
ATOM     16  C   UNL     1       0.342  10.721  19.046  0.00  0.00    +0.000 A 
ENDBRANCH   8  11
ENDBRANCH   1   9
BRANCH   5  17
ATOM     17  N   UNL     1       4.589   4.676  17.650  0.00  0.00    +0.000 N 
ATOM     18  C   UNL     1       5.960   4.909  17.603  0.00  0.00    +0.000 C 
ATOM     19  O   UNL     1       6.644   5.451  18.470  0.00  0.00    +0.000 OA
ATOM     20  H   UNL     1       4.209   4.182  16.847  0.00  0.00    +0.000 HD
BRANCH  18  21
ATOM     21  C   UNL     1       6.631   4.393  16.326  0.00  0.00    +0.000 C 
ATOM     22  C   UNL     1       5.650   3.658  15.403  0.00  0.00    +0.000 C 
ATOM     23  C   UNL     1       6.315   3.958  14.109  0.00  0.00    +0.000 A 
ATOM     24  C   UNL     1       6.164   3.377  12.863  0.00  0.00    +0.000 A 
ATOM     25  C   UNL     1       6.897   3.908  11.796  0.00  0.00    +0.000 A 
ATOM     26  C   UNL     1       7.745   5.017  11.988  0.00  0.00    +0.000 A 
ATOM     27  C   UNL     1       7.884   5.593  13.249  0.00  0.00    +0.000 A 
ATOM     28  C   UNL     1       7.172   5.035  14.287  0.00  0.00    +0.000 A 
ATOM     29  O   UNL     1       7.234   5.481  15.580  0.00  0.00    +0.000 OA
ENDBRANCH  18  21
ENDBRANCH   5  17
TORSDOF 4
ENDMDL
MODEL 6
REMARK VINA RESULT:      -8.7      4.005      7.417
REMARK  Name = 
REMARK  4 active torsions:
REMARK  status: ('A' for Active; 'I' for Inactive)
REMARK    1  A    between atoms: C_2  and  C_22
REMARK    2  A    between atoms: N_3  and  C_4
REMARK    3  A    between atoms: C_8  and  N_9
REMARK    4  A    between atoms: C_10  and  C_12
REMARK                            x       y       z     vdW  Elec       q    Type
REMARK                         _______ _______ _______ _____ _____    ______ ____
ROOT
ATOM      1  C   UNL     1      -0.951  11.533  18.916  0.00  0.00    +0.000 A 
ATOM      2  C   UNL     1      -0.086  12.602  18.670  0.00  0.00    +0.000 A 
ATOM      3  C   UNL     1       1.277  12.396  18.485  0.00  0.00    +0.000 A 
ATOM      4  C   UNL     1       1.809  11.114  18.562  0.00  0.00    +0.000 A 
ATOM      5  C   UNL     1       0.990  10.020  18.839  0.00  0.00    +0.000 A 
ATOM      6  C   UNL     1      -0.398  10.238  19.016  0.00  0.00    +0.000 A 
ENDROOT
BRANCH   1   9
ATOM      7  O   UNL     1      -3.069  11.207  16.919  0.00  0.00    +0.000 OA
ATOM      8  C   UNL     1      -3.292  11.600  18.059  0.00  0.00    +0.000 C 
ATOM      9  N   UNL     1      -2.354  11.726  19.080  0.00  0.00    +0.000 N 
ATOM     10  H   UNL     1      -2.695  11.832  20.026  0.00  0.00    +0.000 HD
BRANCH   8  11
ATOM     11  C   UNL     1      -4.711  11.912  18.370  0.00  0.00    +0.000 A 
ATOM     12  C   UNL     1      -5.611  11.955  17.298  0.00  0.00    +0.000 A 
ATOM     13  C   UNL     1      -6.914  12.339  17.546  0.00  0.00    +0.000 A 
ATOM     14  N   UNL     1      -7.365  12.680  18.770  0.00  0.00    +0.000 NA
ATOM     15  C   UNL     1      -6.471  12.653  19.784  0.00  0.00    +0.000 A 
ATOM     16  C   UNL     1      -5.144  12.276  19.642  0.00  0.00    +0.000 A 
ENDBRANCH   8  11
ENDBRANCH   1   9
BRANCH   5  17
ATOM     17  N   UNL     1       1.502   8.701  18.924  0.00  0.00    +0.000 N 
ATOM     18  C   UNL     1       1.728   7.956  20.078  0.00  0.00    +0.000 C 
ATOM     19  O   UNL     1       1.439   8.277  21.229  0.00  0.00    +0.000 OA
ATOM     20  H   UNL     1       1.781   8.249  18.059  0.00  0.00    +0.000 HD
BRANCH  18  21
ATOM     21  C   UNL     1       2.383   6.596  19.816  0.00  0.00    +0.000 C 
ATOM     22  C   UNL     1       1.799   5.484  20.697  0.00  0.00    +0.000 C 
ATOM     23  C   UNL     1       2.029   4.343  19.775  0.00  0.00    +0.000 A 
ATOM     24  C   UNL     1       2.025   2.980  20.010  0.00  0.00    +0.000 A 
ATOM     25  C   UNL     1       2.226   2.124  18.920  0.00  0.00    +0.000 A 
ATOM     26  C   UNL     1       2.404   2.642  17.622  0.00  0.00    +0.000 A 
ATOM     27  C   UNL     1       2.402   4.018  17.402  0.00  0.00    +0.000 A 
ATOM     28  C   UNL     1       2.230   4.839  18.494  0.00  0.00    +0.000 A 
ATOM     29  O   UNL     1       2.233   6.206  18.428  0.00  0.00    +0.000 OA
ENDBRANCH  18  21
ENDBRANCH   5  17
TORSDOF 4
ENDMDL
MODEL 7
REMARK VINA RESULT:      -8.7      1.683      8.982
REMARK  Name = 
REMARK  4 active torsions:
REMARK  status: ('A' for Active; 'I' for Inactive)
REMARK    1  A    between atoms: C_2  and  C_22
REMARK    2  A    between atoms: N_3  and  C_4
REMARK    3  A    between atoms: C_8  and  N_9
REMARK    4  A    between atoms: C_10  and  C_12
REMARK                            x       y       z     vdW  Elec       q    Type
REMARK                         _______ _______ _______ _____ _____    ______ ____
ROOT
ATOM      1  C   UNL     1       4.160   3.612  17.935  0.00  0.00    +0.000 A 
ATOM      2  C   UNL     1       3.992   2.471  18.723  0.00  0.00    +0.000 A 
ATOM      3  C   UNL     1       3.349   2.535  19.955  0.00  0.00    +0.000 A 
ATOM      4  C   UNL     1       2.877   3.751  20.436  0.00  0.00    +0.000 A 
ATOM      5  C   UNL     1       3.052   4.923  19.700  0.00  0.00    +0.000 A 
ATOM      6  C   UNL     1       3.698   4.845  18.443  0.00  0.00    +0.000 A 
ENDROOT
BRANCH   1   9
ATOM      7  O   UNL     1       6.200   5.409  16.844  0.00  0.00    +0.000 OA
ATOM      8  C   UNL     1       5.720   4.485  16.197  0.00  0.00    +0.000 C 
ATOM      9  N   UNL     1       4.792   3.555  16.658  0.00  0.00    +0.000 N 
ATOM     10  H   UNL     1       4.653   2.714  16.114  0.00  0.00    +0.000 HD
BRANCH   8  11
ATOM     11  C   UNL     1       6.232   4.332  14.809  0.00  0.00    +0.000 A 
ATOM     12  C   UNL     1       7.330   5.117  14.439  0.00  0.00    +0.000 A 
ATOM     13  C   UNL     1       7.764   5.067  13.128  0.00  0.00    +0.000 A 
ATOM     14  N   UNL     1       7.179   4.304  12.184  0.00  0.00    +0.000 NA
ATOM     15  C   UNL     1       6.106   3.574  12.562  0.00  0.00    +0.000 A 
ATOM     16  C   UNL     1       5.596   3.547  13.851  0.00  0.00    +0.000 A 
ENDBRANCH   8  11
ENDBRANCH   1   9
BRANCH   5  17
ATOM     17  N   UNL     1       2.582   6.177  20.162  0.00  0.00    +0.000 N 
ATOM     18  C   UNL     1       2.204   7.274  19.393  0.00  0.00    +0.000 C 
ATOM     19  O   UNL     1       2.127   7.319  18.166  0.00  0.00    +0.000 OA
ATOM     20  H   UNL     1       2.551   6.326  21.167  0.00  0.00    +0.000 HD
BRANCH  18  21
ATOM     21  C   UNL     1       1.837   8.511  20.218  0.00  0.00    +0.000 C 
ATOM     22  C   UNL     1       0.878   9.450  19.473  0.00  0.00    +0.000 C 
ATOM     23  C   UNL     1       0.190  10.027  20.656  0.00  0.00    +0.000 A 
ATOM     24  C   UNL     1      -0.596  11.160  20.777  0.00  0.00    +0.000 A 
ATOM     25  C   UNL     1      -1.165  11.434  22.026  0.00  0.00    +0.000 A 
ATOM     26  C   UNL     1      -0.959  10.568  23.116  0.00  0.00    +0.000 A 
ATOM     27  C   UNL     1      -0.168   9.429  22.977  0.00  0.00    +0.000 A 
ATOM     28  C   UNL     1       0.403   9.195  21.746  0.00  0.00    +0.000 A 
ATOM     29  O   UNL     1       1.222   8.132  21.475  0.00  0.00    +0.000 OA
ENDBRANCH  18  21
ENDBRANCH   5  17
TORSDOF 4
ENDMDL
MODEL 8
REMARK VINA RESULT:      -8.6      3.838      6.956
REMARK  Name = 
REMARK  4 active torsions:
REMARK  status: ('A' for Active; 'I' for Inactive)
REMARK    1  A    between atoms: C_2  and  C_22
REMARK    2  A    between atoms: N_3  and  C_4
REMARK    3  A    between atoms: C_8  and  N_9
REMARK    4  A    between atoms: C_10  and  C_12
REMARK                            x       y       z     vdW  Elec       q    Type
REMARK                         _______ _______ _______ _____ _____    ______ ____
ROOT
ATOM      1  C   UNL     1       0.269  11.606  21.177  0.00  0.00    +0.000 A 
ATOM      2  C   UNL     1      -0.541  11.619  22.314  0.00  0.00    +0.000 A 
ATOM      3  C   UNL     1      -0.710  10.475  23.088  0.00  0.00    +0.000 A 
ATOM      4  C   UNL     1      -0.086   9.286  22.729  0.00  0.00    +0.000 A 
ATOM      5  C   UNL     1       0.705   9.218  21.582  0.00  0.00    +0.000 A 
ATOM      6  C   UNL     1       0.880  10.389  20.806  0.00  0.00    +0.000 A 
ENDROOT
BRANCH   1   9
ATOM      7  O   UNL     1       2.543  13.452  21.233  0.00  0.00    +0.000 OA
ATOM      8  C   UNL     1       1.564  13.633  20.517  0.00  0.00    +0.000 C 
ATOM      9  N   UNL     1       0.473  12.778  20.389  0.00  0.00    +0.000 N 
ATOM     10  H   UNL     1      -0.150  12.918  19.605  0.00  0.00    +0.000 HD
BRANCH   8  11
ATOM     11  C   UNL     1       1.594  14.859  19.677  0.00  0.00    +0.000 A 
ATOM     12  C   UNL     1       2.835  15.259  19.166  0.00  0.00    +0.000 A 
ATOM     13  C   UNL     1       2.907  16.447  18.465  0.00  0.00    +0.000 A 
ATOM     14  N   UNL     1       1.842  17.246  18.250  0.00  0.00    +0.000 NA
ATOM     15  C   UNL     1       0.661  16.848  18.773  0.00  0.00    +0.000 A 
ATOM     16  C   UNL     1       0.480  15.672  19.486  0.00  0.00    +0.000 A 
ENDBRANCH   8  11
ENDBRANCH   1   9
BRANCH   5  17
ATOM     17  N   UNL     1       1.355   8.022  21.189  0.00  0.00    +0.000 N 
ATOM     18  C   UNL     1       1.866   7.712  19.932  0.00  0.00    +0.000 C 
ATOM     19  O   UNL     1       1.923   8.460  18.957  0.00  0.00    +0.000 OA
ATOM     20  H   UNL     1       1.428   7.278  21.878  0.00  0.00    +0.000 HD
BRANCH  18  21
ATOM     21  C   UNL     1       2.419   6.288  19.823  0.00  0.00    +0.000 C 
ATOM     22  C   UNL     1       1.571   5.268  20.596  0.00  0.00    +0.000 C 
ATOM     23  C   UNL     1       1.855   4.078  19.754  0.00  0.00    +0.000 A 
ATOM     24  C   UNL     1       1.670   2.731  20.007  0.00  0.00    +0.000 A 
ATOM     25  C   UNL     1       1.986   1.822  18.991  0.00  0.00    +0.000 A 
ATOM     26  C   UNL     1       2.455   2.273  17.742  0.00  0.00    +0.000 A 
ATOM     27  C   UNL     1       2.633   3.634  17.502  0.00  0.00    +0.000 A 
ATOM     28  C   UNL     1       2.341   4.506  18.526  0.00  0.00    +0.000 A 
ATOM     29  O   UNL     1       2.494   5.864  18.439  0.00  0.00    +0.000 OA
ENDBRANCH  18  21
ENDBRANCH   5  17
TORSDOF 4
ENDMDL
MODEL 9
REMARK VINA RESULT:      -8.6      5.194      7.378
REMARK  Name = 
REMARK  4 active torsions:
REMARK  status: ('A' for Active; 'I' for Inactive)
REMARK    1  A    between atoms: C_2  and  C_22
REMARK    2  A    between atoms: N_3  and  C_4
REMARK    3  A    between atoms: C_8  and  N_9
REMARK    4  A    between atoms: C_10  and  C_12
REMARK                            x       y       z     vdW  Elec       q    Type
REMARK                         _______ _______ _______ _____ _____    ______ ____
ROOT
ATOM      1  C   UNL     1       5.231   5.159  17.013  0.00  0.00    +0.000 A 
ATOM      2  C   UNL     1       5.801   4.472  15.939  0.00  0.00    +0.000 A 
ATOM      3  C   UNL     1       6.923   4.969  15.282  0.00  0.00    +0.000 A 
ATOM      4  C   UNL     1       7.488   6.177  15.674  0.00  0.00    +0.000 A 
ATOM      5  C   UNL     1       6.932   6.914  16.720  0.00  0.00    +0.000 A 
ATOM      6  C   UNL     1       5.798   6.396  17.389  0.00  0.00    +0.000 A 
ENDROOT
BRANCH   1   9
ATOM      7  O   UNL     1       5.190   3.556  19.465  0.00  0.00    +0.000 OA
ATOM      8  C   UNL     1       4.170   3.846  18.849  0.00  0.00    +0.000 C 
ATOM      9  N   UNL     1       4.098   4.648  17.713  0.00  0.00    +0.000 N 
ATOM     10  H   UNL     1       3.192   5.002  17.438  0.00  0.00    +0.000 HD
BRANCH   8  11
ATOM     11  C   UNL     1       2.899   3.326  19.418  0.00  0.00    +0.000 A 
ATOM     12  C   UNL     1       1.885   2.980  18.517  0.00  0.00    +0.000 A 
ATOM     13  C   UNL     1       0.661   2.587  19.022  0.00  0.00    +0.000 A 
ATOM     14  N   UNL     1       0.389   2.525  20.341  0.00  0.00    +0.000 NA
ATOM     15  C   UNL     1       1.378   2.887  21.189  0.00  0.00    +0.000 A 
ATOM     16  C   UNL     1       2.643   3.288  20.786  0.00  0.00    +0.000 A 
ENDBRANCH   8  11
ENDBRANCH   1   9
BRANCH   5  17
ATOM     17  N   UNL     1       7.484   8.149  17.144  0.00  0.00    +0.000 N 
ATOM     18  C   UNL     1       8.275   8.380  18.266  0.00  0.00    +0.000 C 
ATOM     19  O   UNL     1       8.711   7.533  19.044  0.00  0.00    +0.000 OA
ATOM     20  H   UNL     1       7.252   8.977  16.604  0.00  0.00    +0.000 HD
BRANCH  18  21
ATOM     21  C   UNL     1       8.622   9.855  18.484  0.00  0.00    +0.000 C 
ATOM     22  C   UNL     1       9.240  10.115  19.864  0.00  0.00    +0.000 C 
ATOM     23  C   UNL     1      10.075  11.289  19.503  0.00  0.00    +0.000 A 
ATOM     24  C   UNL     1      10.687  12.239  20.301  0.00  0.00    +0.000 A 
ATOM     25  C   UNL     1      11.468  13.218  19.676  0.00  0.00    +0.000 A 
ATOM     26  C   UNL     1      11.642  13.215  18.278  0.00  0.00    +0.000 A 
ATOM     27  C   UNL     1      11.022  12.249  17.489  0.00  0.00    +0.000 A 
ATOM     28  C   UNL     1      10.237  11.314  18.124  0.00  0.00    +0.000 A 
ATOM     29  O   UNL     1       9.549  10.325  17.473  0.00  0.00    +0.000 OA
ENDBRANCH  18  21
ENDBRANCH   5  17
TORSDOF 4
ENDMDL
