MODEL 1
REMARK VINA RESULT:      -8.9      0.000      0.000
REMARK  Name = 
REMARK  6 active torsions:
REMARK  status: ('A' for Active; 'I' for Inactive)
REMARK    1  A    between atoms: C_1  and  C_2
REMARK    2  A    between atoms: C_8  and  C_9
REMARK    3  A    between atoms: C_12  and  C_13
REMARK    4  A    between atoms: C_21  and  C_22
REMARK    5  A    between atoms: C_22  and  C_23
REMARK    6  A    between atoms: C_22  and  C_24
REMARK                            x       y       z     vdW  Elec       q    Type
REMARK                         _______ _______ _______ _____ _____    ______ ____
ROOT
ATOM      1  C   UNL     1       2.703   7.091  18.479  0.00  0.00    +0.000 A 
ATOM      2  C   UNL     1       2.247   8.272  17.866  0.00  0.00    +0.000 A 
ATOM      3  C   UNL     1       1.598   9.286  18.588  0.00  0.00    +0.000 A 
ATOM      4  C   UNL     1       1.250   9.080  19.922  0.00  0.00    +0.000 A 
ATOM      5  C   UNL     1       1.490   7.826  20.472  0.00  0.00    +0.000 A 
ATOM      6  C   UNL     1       2.298   6.912  19.810  0.00  0.00    +0.000 A 
ATOM      7  F   UNL     1       2.703   5.855  20.532  0.00  0.00    +0.000 F 
ENDROOT
BRANCH   4   8
ATOM      8  C   UNL     1       0.598  10.177  20.703  0.00  0.00    +0.000 C 
ATOM      9  O   UNL     1       0.925  10.260  21.883  0.00  0.00    +0.000 OA
ATOM     10  N   UNL     1      -0.348  11.015  20.085  0.00  0.00    +0.000 N 
ATOM     11  C   UNL     1      -0.903  10.707  18.760  0.00  0.00    +0.000 C 
ATOM     12  C   UNL     1      -2.370  11.038  18.664  0.00  0.00    +0.000 C 
ATOM     13  N   UNL     1      -2.596  12.410  18.995  0.00  0.00    +0.000 N 
ATOM     14  C   UNL     1      -1.905  13.061  19.978  0.00  0.00    +0.000 C 
ATOM     15  O   UNL     1      -2.325  14.178  20.298  0.00  0.00    +0.000 OA
ATOM     16  C   UNL     1      -0.554  12.443  20.513  0.00  0.00    +0.000 C 
ATOM     17  H   UNL     1      -3.469  12.860  18.745  0.00  0.00    +0.000 HD
BRANCH  16  18
ATOM     18  C   UNL     1      -0.323  12.814  22.014  0.00  0.00    +0.000 C 
ATOM     19  C   UNL     1       0.122  14.275  22.215  0.00  0.00    +0.000 C 
ATOM     20  C   UNL     1      -1.536  12.529  22.901  0.00  0.00    +0.000 C 
ENDBRANCH  16  18
ENDBRANCH   4   8
BRANCH   1  28
ATOM     21  C   UNL     1       1.767   4.186  17.868  0.00  0.00    +0.000 C 
ATOM     22  C   UNL     1       3.113   4.746  17.485  0.00  0.00    +0.000 A 
ATOM     23  C   UNL     1       3.979   3.870  16.798  0.00  0.00    +0.000 A 
ATOM     24  C   UNL     1       5.224   4.289  16.378  0.00  0.00    +0.000 A 
ATOM     25  F   UNL     1       6.014   3.444  15.693  0.00  0.00    +0.000 F 
ATOM     26  C   UNL     1       5.665   5.573  16.624  0.00  0.00    +0.000 A 
ATOM     27  C   UNL     1       4.837   6.439  17.338  0.00  0.00    +0.000 A 
ATOM     28  C   UNL     1       3.540   6.070  17.781  0.00  0.00    +0.000 A 
ENDBRANCH   1  28
TORSDOF 3
ENDMDL
MODEL 2
REMARK VINA RESULT:      -8.7      1.057      1.415
REMARK  Name = 
REMARK  6 active torsions:
REMARK  status: ('A' for Active; 'I' for Inactive)
REMARK    1  A    between atoms: C_1  and  C_2
REMARK    2  A    between atoms: C_8  and  C_9
REMARK    3  A    between atoms: C_12  and  C_13
REMARK    4  A    between atoms: C_21  and  C_22
REMARK    5  A    between atoms: C_22  and  C_23
REMARK    6  A    between atoms: C_22  and  C_24
REMARK                            x       y       z     vdW  Elec       q    Type
REMARK                         _______ _______ _______ _____ _____    ______ ____
ROOT
ATOM      1  C   UNL     1       2.544   7.089  18.923  0.00  0.00    +0.000 A 
ATOM      2  C   UNL     1       2.198   6.901  20.274  0.00  0.00    +0.000 A 
ATOM      3  C   UNL     1       1.379   7.805  20.967  0.00  0.00    +0.000 A 
ATOM      4  C   UNL     1       1.002   9.007  20.370  0.00  0.00    +0.000 A 
ATOM      5  C   UNL     1       1.531   9.307  19.120  0.00  0.00    +0.000 A 
ATOM      6  C   UNL     1       2.175   8.327  18.377  0.00  0.00    +0.000 A 
ATOM      7  F   UNL     1       2.398   8.619  17.086  0.00  0.00    +0.000 F 
ENDROOT
BRANCH   4   8
ATOM      8  C   UNL     1       0.093   9.949  21.092  0.00  0.00    +0.000 C 
ATOM      9  O   UNL     1       0.121   9.886  22.318  0.00  0.00    +0.000 OA
ATOM     10  N   UNL     1      -0.748  10.812  20.366  0.00  0.00    +0.000 N 
ATOM     11  C   UNL     1      -0.943  10.661  18.917  0.00  0.00    +0.000 C 
ATOM     12  C   UNL     1      -2.368  10.922  18.503  0.00  0.00    +0.000 C 
ATOM     13  N   UNL     1      -2.782  12.222  18.931  0.00  0.00    +0.000 N 
ATOM     14  C   UNL     1      -2.404  12.767  20.125  0.00  0.00    +0.000 C 
ATOM     15  O   UNL     1      -2.982  13.806  20.464  0.00  0.00    +0.000 OA
ATOM     16  C   UNL     1      -1.171  12.155  20.899  0.00  0.00    +0.000 C 
ATOM     17  H   UNL     1      -3.606  12.655  18.529  0.00  0.00    +0.000 HD
BRANCH  16  18
ATOM     18  C   UNL     1      -1.336  12.327  22.443  0.00  0.00    +0.000 C 
ATOM     19  C   UNL     1      -0.901  13.716  22.948  0.00  0.00    +0.000 C 
ATOM     20  C   UNL     1      -2.754  12.033  22.937  0.00  0.00    +0.000 C 
ENDBRANCH  16  18
ENDBRANCH   4   8
BRANCH   1  28
ATOM     21  C   UNL     1       1.404   4.280  18.216  0.00  0.00    +0.000 C 
ATOM     22  C   UNL     1       2.751   4.791  17.771  0.00  0.00    +0.000 A 
ATOM     23  C   UNL     1       3.517   3.913  16.975  0.00  0.00    +0.000 A 
ATOM     24  C   UNL     1       4.752   4.290  16.492  0.00  0.00    +0.000 A 
ATOM     25  F   UNL     1       5.444   3.448  15.705  0.00  0.00    +0.000 F 
ATOM     26  C   UNL     1       5.282   5.531  16.778  0.00  0.00    +0.000 A 
ATOM     27  C   UNL     1       4.556   6.395  17.598  0.00  0.00    +0.000 A 
ATOM     28  C   UNL     1       3.273   6.070  18.110  0.00  0.00    +0.000 A 
ENDBRANCH   1  28
TORSDOF 3
ENDMDL
MODEL 3
REMARK VINA RESULT:      -8.3      1.620      2.146
REMARK  Name = 
REMARK  6 active torsions:
REMARK  status: ('A' for Active; 'I' for Inactive)
REMARK    1  A    between atoms: C_1  and  C_2
REMARK    2  A    between atoms: C_8  and  C_9
REMARK    3  A    between atoms: C_12  and  C_13
REMARK    4  A    between atoms: C_21  and  C_22
REMARK    5  A    between atoms: C_22  and  C_23
REMARK    6  A    between atoms: C_22  and  C_24
REMARK                            x       y       z     vdW  Elec       q    Type
REMARK                         _______ _______ _______ _____ _____    ______ ____
ROOT
ATOM      1  C   UNL     1       2.238   6.233  19.091  0.00  0.00    +0.000 A 
ATOM      2  C   UNL     1       2.202   7.324  18.204  0.00  0.00    +0.000 A 
ATOM      3  C   UNL     1       1.870   8.620  18.626  0.00  0.00    +0.000 A 
ATOM      4  C   UNL     1       1.415   8.836  19.926  0.00  0.00    +0.000 A 
ATOM      5  C   UNL     1       1.227   7.727  20.743  0.00  0.00    +0.000 A 
ATOM      6  C   UNL     1       1.738   6.490  20.376  0.00  0.00    +0.000 A 
ATOM      7  F   UNL     1       1.760   5.554  21.339  0.00  0.00    +0.000 F 
ENDROOT
BRANCH   4   8
ATOM      8  C   UNL     1       1.104  10.223  20.389  0.00  0.00    +0.000 C 
ATOM      9  O   UNL     1       1.411  10.482  21.549  0.00  0.00    +0.000 OA
ATOM     10  N   UNL     1       0.468  11.130  19.521  0.00  0.00    +0.000 N 
ATOM     11  C   UNL     1      -0.122  10.694  18.247  0.00  0.00    +0.000 C 
ATOM     12  C   UNL     1      -1.420  11.399  17.947  0.00  0.00    +0.000 C 
ATOM     13  N   UNL     1      -1.231  12.816  17.953  0.00  0.00    +0.000 N 
ATOM     14  C   UNL     1      -0.401  13.452  18.833  0.00  0.00    +0.000 C 
ATOM     15  O   UNL     1      -0.474  14.686  18.865  0.00  0.00    +0.000 OA
ATOM     16  C   UNL     1       0.689  12.616  19.611  0.00  0.00    +0.000 C 
ATOM     17  H   UNL     1      -1.923  13.426  17.532  0.00  0.00    +0.000 HD
BRANCH  16  18
ATOM     18  C   UNL     1       0.984  13.243  21.011  0.00  0.00    +0.000 C 
ATOM     19  C   UNL     1       1.917  14.468  20.942  0.00  0.00    +0.000 C 
ATOM     20  C   UNL     1      -0.281  13.617  21.786  0.00  0.00    +0.000 C 
ENDBRANCH  16  18
ENDBRANCH   4   8
BRANCH   1  28
ATOM     21  C   UNL     1       5.218   5.363  19.314  0.00  0.00    +0.000 C 
ATOM     22  C   UNL     1       4.104   4.471  18.827  0.00  0.00    +0.000 A 
ATOM     23  C   UNL     1       4.470   3.158  18.464  0.00  0.00    +0.000 A 
ATOM     24  C   UNL     1       3.525   2.253  18.031  0.00  0.00    +0.000 A 
ATOM     25  F   UNL     1       3.897   0.997  17.726  0.00  0.00    +0.000 F 
ATOM     26  C   UNL     1       2.195   2.604  17.931  0.00  0.00    +0.000 A 
ATOM     27  C   UNL     1       1.822   3.909  18.247  0.00  0.00    +0.000 A 
ATOM     28  C   UNL     1       2.746   4.880  18.714  0.00  0.00    +0.000 A 
ENDBRANCH   1  28
TORSDOF 3
ENDMDL
MODEL 4
REMARK VINA RESULT:      -8.3      1.469      2.109
REMARK  Name = 
REMARK  6 active torsions:
REMARK  status: ('A' for Active; 'I' for Inactive)
REMARK    1  A    between atoms: C_1  and  C_2
REMARK    2  A    between atoms: C_8  and  C_9
REMARK    3  A    between atoms: C_12  and  C_13
REMARK    4  A    between atoms: C_21  and  C_22
REMARK    5  A    between atoms: C_22  and  C_23
REMARK    6  A    between atoms: C_22  and  C_24
REMARK                            x       y       z     vdW  Elec       q    Type
REMARK                         _______ _______ _______ _____ _____    ______ ____
ROOT
ATOM      1  C   UNL     1       2.800   7.175  18.156  0.00  0.00    +0.000 A 
ATOM      2  C   UNL     1       2.389   8.280  17.388  0.00  0.00    +0.000 A 
ATOM      3  C   UNL     1       1.802   9.416  17.968  0.00  0.00    +0.000 A 
ATOM      4  C   UNL     1       1.469   9.416  19.321  0.00  0.00    +0.000 A 
ATOM      5  C   UNL     1       1.660   8.241  20.040  0.00  0.00    +0.000 A 
ATOM      6  C   UNL     1       2.411   7.205  19.503  0.00  0.00    +0.000 A 
ATOM      7  F   UNL     1       2.779   6.240  20.362  0.00  0.00    +0.000 F 
ENDROOT
BRANCH   4   8
ATOM      8  C   UNL     1       0.885  10.642  19.948  0.00  0.00    +0.000 C 
ATOM      9  O   UNL     1       1.221  11.711  19.448  0.00  0.00    +0.000 OA
ATOM     10  N   UNL     1       0.031  10.525  21.061  0.00  0.00    +0.000 N 
ATOM     11  C   UNL     1      -0.123   9.256  21.785  0.00  0.00    +0.000 C 
ATOM     12  C   UNL     1      -0.230   9.458  23.275  0.00  0.00    +0.000 C 
ATOM     13  N   UNL     1      -1.308  10.345  23.583  0.00  0.00    +0.000 N 
ATOM     14  C   UNL     1      -1.620  11.431  22.814  0.00  0.00    +0.000 C 
ATOM     15  O   UNL     1      -2.441  12.224  23.288  0.00  0.00    +0.000 OA
ATOM     16  C   UNL     1      -1.062  11.521  21.340  0.00  0.00    +0.000 C 
ATOM     17  H   UNL     1      -1.677  10.394  24.526  0.00  0.00    +0.000 HD
BRANCH  16  18
ATOM     18  C   UNL     1      -0.845  13.008  20.912  0.00  0.00    +0.000 C 
ATOM     19  C   UNL     1      -2.153  13.723  20.519  0.00  0.00    +0.000 C 
ATOM     20  C   UNL     1      -0.113  13.841  21.965  0.00  0.00    +0.000 C 
ENDBRANCH  16  18
ENDBRANCH   4   8
BRANCH   1  28
ATOM     21  C   UNL     1       1.693   4.277  17.909  0.00  0.00    +0.000 C 
ATOM     22  C   UNL     1       3.070   4.704  17.468  0.00  0.00    +0.000 A 
ATOM     23  C   UNL     1       3.883   3.699  16.904  0.00  0.00    +0.000 A 
ATOM     24  C   UNL     1       5.150   3.987  16.444  0.00  0.00    +0.000 A 
ATOM     25  F   UNL     1       5.889   3.017  15.877  0.00  0.00    +0.000 F 
ATOM     26  C   UNL     1       5.667   5.263  16.529  0.00  0.00    +0.000 A 
ATOM     27  C   UNL     1       4.892   6.260  17.122  0.00  0.00    +0.000 A 
ATOM     28  C   UNL     1       3.575   6.028  17.598  0.00  0.00    +0.000 A 
ENDBRANCH   1  28
TORSDOF 3
ENDMDL
MODEL 5
REMARK VINA RESULT:      -8.2      3.862      8.758
REMARK  Name = 
REMARK  6 active torsions:
REMARK  status: ('A' for Active; 'I' for Inactive)
REMARK    1  A    between atoms: C_1  and  C_2
REMARK    2  A    between atoms: C_8  and  C_9
REMARK    3  A    between atoms: C_12  and  C_13
REMARK    4  A    between atoms: C_21  and  C_22
REMARK    5  A    between atoms: C_22  and  C_23
REMARK    6  A    between atoms: C_22  and  C_24
REMARK                            x       y       z     vdW  Elec       q    Type
REMARK                         _______ _______ _______ _____ _____    ______ ____
ROOT
ATOM      1  C   UNL     1       0.342  10.156  19.425  0.00  0.00    +0.000 A 
ATOM      2  C   UNL     1       1.053  10.186  18.212  0.00  0.00    +0.000 A 
ATOM      3  C   UNL     1       1.927   9.155  17.833  0.00  0.00    +0.000 A 
ATOM      4  C   UNL     1       2.232   8.132  18.730  0.00  0.00    +0.000 A 
ATOM      5  C   UNL     1       1.712   8.218  20.017  0.00  0.00    +0.000 A 
ATOM      6  C   UNL     1       0.708   9.130  20.309  0.00  0.00    +0.000 A 
ATOM      7  F   UNL     1       0.075   8.953  21.480  0.00  0.00    +0.000 F 
ENDROOT
BRANCH   4   8
ATOM      8  C   UNL     1       3.128   7.011  18.311  0.00  0.00    +0.000 C 
ATOM      9  O   UNL     1       3.786   7.204  17.292  0.00  0.00    +0.000 OA
ATOM     10  N   UNL     1       3.156   5.816  19.054  0.00  0.00    +0.000 N 
ATOM     11  C   UNL     1       2.159   5.532  20.095  0.00  0.00    +0.000 C 
ATOM     12  C   UNL     1       1.739   4.084  20.105  0.00  0.00    +0.000 C 
ATOM     13  N   UNL     1       2.879   3.235  20.257  0.00  0.00    +0.000 N 
ATOM     14  C   UNL     1       4.086   3.498  19.672  0.00  0.00    +0.000 C 
ATOM     15  O   UNL     1       4.928   2.595  19.717  0.00  0.00    +0.000 OA
ATOM     16  C   UNL     1       4.386   4.953  19.138  0.00  0.00    +0.000 C 
ATOM     17  H   UNL     1       2.763   2.266  20.531  0.00  0.00    +0.000 HD
BRANCH  16  18
ATOM     18  C   UNL     1       5.355   4.913  17.913  0.00  0.00    +0.000 C 
ATOM     19  C   UNL     1       6.831   4.723  18.315  0.00  0.00    +0.000 C 
ATOM     20  C   UNL     1       4.976   3.857  16.875  0.00  0.00    +0.000 C 
ENDBRANCH  16  18
ENDBRANCH   4   8
BRANCH   1  28
ATOM     21  C   UNL     1      -2.404  10.377  17.977  0.00  0.00    +0.000 C 
ATOM     22  C   UNL     1      -1.979  11.243  19.136  0.00  0.00    +0.000 A 
ATOM     23  C   UNL     1      -2.917  12.203  19.573  0.00  0.00    +0.000 A 
ATOM     24  C   UNL     1      -2.640  13.028  20.642  0.00  0.00    +0.000 A 
ATOM     25  F   UNL     1      -3.566  13.908  21.060  0.00  0.00    +0.000 F 
ATOM     26  C   UNL     1      -1.437  12.949  21.312  0.00  0.00    +0.000 A 
ATOM     27  C   UNL     1      -0.483  12.034  20.867  0.00  0.00    +0.000 A 
ATOM     28  C   UNL     1      -0.717  11.147  19.783  0.00  0.00    +0.000 A 
ENDBRANCH   1  28
TORSDOF 3
ENDMDL
MODEL 6
REMARK VINA RESULT:      -8.1      1.680      2.355
REMARK  Name = 
REMARK  6 active torsions:
REMARK  status: ('A' for Active; 'I' for Inactive)
REMARK    1  A    between atoms: C_1  and  C_2
REMARK    2  A    between atoms: C_8  and  C_9
REMARK    3  A    between atoms: C_12  and  C_13
REMARK    4  A    between atoms: C_21  and  C_22
REMARK    5  A    between atoms: C_22  and  C_23
REMARK    6  A    between atoms: C_22  and  C_24
REMARK                            x       y       z     vdW  Elec       q    Type
REMARK                         _______ _______ _______ _____ _____    ______ ____
ROOT
ATOM      1  C   UNL     1       2.216   6.267  19.502  0.00  0.00    +0.000 A 
ATOM      2  C   UNL     1       1.641   6.471  20.769  0.00  0.00    +0.000 A 
ATOM      3  C   UNL     1       1.137   7.718  21.168  0.00  0.00    +0.000 A 
ATOM      4  C   UNL     1       1.330   8.840  20.363  0.00  0.00    +0.000 A 
ATOM      5  C   UNL     1       2.100   8.694  19.215  0.00  0.00    +0.000 A 
ATOM      6  C   UNL     1       2.423   7.429  18.744  0.00  0.00    +0.000 A 
ATOM      7  F   UNL     1       2.917   7.375  17.496  0.00  0.00    +0.000 F 
ENDROOT
BRANCH   4   8
ATOM      8  C   UNL     1       0.753  10.159  20.768  0.00  0.00    +0.000 C 
ATOM      9  O   UNL     1       0.761  10.401  21.971  0.00  0.00    +0.000 OA
ATOM     10  N   UNL     1       0.219  11.023  19.793  0.00  0.00    +0.000 N 
ATOM     11  C   UNL     1      -0.014  10.577  18.412  0.00  0.00    +0.000 C 
ATOM     12  C   UNL     1      -1.290  11.138  17.839  0.00  0.00    +0.000 C 
ATOM     13  N   UNL     1      -1.285  12.566  17.911  0.00  0.00    +0.000 N 
ATOM     14  C   UNL     1      -0.757  13.255  18.966  0.00  0.00    +0.000 C 
ATOM     15  O   UNL     1      -0.988  14.469  19.002  0.00  0.00    +0.000 OA
ATOM     16  C   UNL     1       0.228  12.519  19.956  0.00  0.00    +0.000 C 
ATOM     17  H   UNL     1      -1.936  13.109  17.355  0.00  0.00    +0.000 HD
BRANCH  16  18
ATOM     18  C   UNL     1       0.124  13.114  21.397  0.00  0.00    +0.000 C 
ATOM     19  C   UNL     1       0.895  14.437  21.564  0.00  0.00    +0.000 C 
ATOM     20  C   UNL     1      -1.318  13.309  21.869  0.00  0.00    +0.000 C 
ENDBRANCH  16  18
ENDBRANCH   4   8
BRANCH   1  28
ATOM     21  C   UNL     1       5.161   5.303  19.209  0.00  0.00    +0.000 C 
ATOM     22  C   UNL     1       3.953   4.471  18.861  0.00  0.00    +0.000 A 
ATOM     23  C   UNL     1       4.211   3.170  18.379  0.00  0.00    +0.000 A 
ATOM     24  C   UNL     1       3.178   2.316  18.056  0.00  0.00    +0.000 A 
ATOM     25  F   UNL     1       3.452   1.069  17.635  0.00  0.00    +0.000 F 
ATOM     26  C   UNL     1       1.861   2.709  18.184  0.00  0.00    +0.000 A 
ATOM     27  C   UNL     1       1.590   4.005  18.619  0.00  0.00    +0.000 A 
ATOM     28  C   UNL     1       2.610   4.923  18.983  0.00  0.00    +0.000 A 
ENDBRANCH   1  28
TORSDOF 3
ENDMDL
MODEL 7
REMARK VINA RESULT:      -8.1      1.592      1.940
REMARK  Name = 
REMARK  6 active torsions:
REMARK  status: ('A' for Active; 'I' for Inactive)
REMARK    1  A    between atoms: C_1  and  C_2
REMARK    2  A    between atoms: C_8  and  C_9
REMARK    3  A    between atoms: C_12  and  C_13
REMARK    4  A    between atoms: C_21  and  C_22
REMARK    5  A    between atoms: C_22  and  C_23
REMARK    6  A    between atoms: C_22  and  C_24
REMARK                            x       y       z     vdW  Elec       q    Type
REMARK                         _______ _______ _______ _____ _____    ______ ____
ROOT
ATOM      1  C   UNL     1       2.629   7.435  18.277  0.00  0.00    +0.000 A 
ATOM      2  C   UNL     1       2.060   8.438  17.471  0.00  0.00    +0.000 A 
ATOM      3  C   UNL     1       1.312   9.496  18.011  0.00  0.00    +0.000 A 
ATOM      4  C   UNL     1       0.982   9.498  19.366  0.00  0.00    +0.000 A 
ATOM      5  C   UNL     1       1.343   8.391  20.126  0.00  0.00    +0.000 A 
ATOM      6  C   UNL     1       2.239   7.458  19.625  0.00  0.00    +0.000 A 
ATOM      7  F   UNL     1       2.745   6.590  20.516  0.00  0.00    +0.000 F 
ENDROOT
BRANCH   4   8
ATOM      8  C   UNL     1       0.223  10.647  19.950  0.00  0.00    +0.000 C 
ATOM      9  O   UNL     1      -0.879  10.377  20.418  0.00  0.00    +0.000 OA
ATOM     10  N   UNL     1       0.769  11.943  19.911  0.00  0.00    +0.000 N 
ATOM     11  C   UNL     1       1.957  12.257  19.105  0.00  0.00    +0.000 C 
ATOM     12  C   UNL     1       1.858  13.610  18.446  0.00  0.00    +0.000 C 
ATOM     13  N   UNL     1       1.635  14.627  19.425  0.00  0.00    +0.000 N 
ATOM     14  C   UNL     1       0.838  14.442  20.521  0.00  0.00    +0.000 C 
ATOM     15  O   UNL     1       0.571  15.451  21.183  0.00  0.00    +0.000 OA
ATOM     16  C   UNL     1       0.458  12.975  20.962  0.00  0.00    +0.000 C 
ATOM     17  H   UNL     1       1.792  15.602  19.196  0.00  0.00    +0.000 HD
BRANCH  16  18
ATOM     18  C   UNL     1      -0.945  12.942  21.650  0.00  0.00    +0.000 C 
ATOM     19  C   UNL     1      -0.929  13.498  23.087  0.00  0.00    +0.000 C 
ATOM     20  C   UNL     1      -2.031  13.657  20.845  0.00  0.00    +0.000 C 
ENDBRANCH  16  18
ENDBRANCH   4   8
BRANCH   1  28
ATOM     21  C   UNL     1       1.883   4.433  17.933  0.00  0.00    +0.000 C 
ATOM     22  C   UNL     1       3.226   5.024  17.584  0.00  0.00    +0.000 A 
ATOM     23  C   UNL     1       4.183   4.128  17.062  0.00  0.00    +0.000 A 
ATOM     24  C   UNL     1       5.434   4.568  16.687  0.00  0.00    +0.000 A 
ATOM     25  F   UNL     1       6.314   3.700  16.158  0.00  0.00    +0.000 F 
ATOM     26  C   UNL     1       5.793   5.894  16.817  0.00  0.00    +0.000 A 
ATOM     27  C   UNL     1       4.873   6.784  17.369  0.00  0.00    +0.000 A 
ATOM     28  C   UNL     1       3.565   6.394  17.758  0.00  0.00    +0.000 A 
ENDBRANCH   1  28
TORSDOF 3
ENDMDL
MODEL 8
REMARK VINA RESULT:      -8.0      0.391      1.386
REMARK  Name = 
REMARK  6 active torsions:
REMARK  status: ('A' for Active; 'I' for Inactive)
REMARK    1  A    between atoms: C_1  and  C_2
REMARK    2  A    between atoms: C_8  and  C_9
REMARK    3  A    between atoms: C_12  and  C_13
REMARK    4  A    between atoms: C_21  and  C_22
REMARK    5  A    between atoms: C_22  and  C_23
REMARK    6  A    between atoms: C_22  and  C_24
REMARK                            x       y       z     vdW  Elec       q    Type
REMARK                         _______ _______ _______ _____ _____    ______ ____
ROOT
ATOM      1  C   UNL     1       2.843   6.965  18.377  0.00  0.00    +0.000 A 
ATOM      2  C   UNL     1       2.407   8.157  17.773  0.00  0.00    +0.000 A 
ATOM      3  C   UNL     1       1.758   9.168  18.498  0.00  0.00    +0.000 A 
ATOM      4  C   UNL     1       1.390   8.951  19.824  0.00  0.00    +0.000 A 
ATOM      5  C   UNL     1       1.611   7.688  20.363  0.00  0.00    +0.000 A 
ATOM      6  C   UNL     1       2.419   6.775  19.701  0.00  0.00    +0.000 A 
ATOM      7  F   UNL     1       2.805   5.705  20.416  0.00  0.00    +0.000 F 
ENDROOT
BRANCH   4   8
ATOM      8  C   UNL     1       0.738  10.044  20.610  0.00  0.00    +0.000 C 
ATOM      9  O   UNL     1       1.079  10.134  21.786  0.00  0.00    +0.000 OA
ATOM     10  N   UNL     1      -0.223  10.872  20.001  0.00  0.00    +0.000 N 
ATOM     11  C   UNL     1      -0.791  10.554  18.683  0.00  0.00    +0.000 C 
ATOM     12  C   UNL     1      -2.263  10.871  18.604  0.00  0.00    +0.000 C 
ATOM     13  N   UNL     1      -2.496  12.243  18.933  0.00  0.00    +0.000 N 
ATOM     14  C   UNL     1      -1.799  12.903  19.906  0.00  0.00    +0.000 C 
ATOM     15  O   UNL     1      -2.225  14.018  20.227  0.00  0.00    +0.000 OA
ATOM     16  C   UNL     1      -0.437  12.299  20.426  0.00  0.00    +0.000 C 
ATOM     17  H   UNL     1      -3.377  12.684  18.692  0.00  0.00    +0.000 HD
BRANCH  16  18
ATOM     18  C   UNL     1      -0.191  12.677  21.923  0.00  0.00    +0.000 C 
ATOM     19  C   UNL     1       0.206  14.154  22.117  0.00  0.00    +0.000 C 
ATOM     20  C   UNL     1      -1.375  12.350  22.833  0.00  0.00    +0.000 C 
ENDBRANCH  16  18
ENDBRANCH   4   8
BRANCH   1  28
ATOM     21  C   UNL     1       5.753   7.471  17.394  0.00  0.00    +0.000 C 
ATOM     22  C   UNL     1       5.016   6.164  17.240  0.00  0.00    +0.000 A 
ATOM     23  C   UNL     1       5.725   5.120  16.610  0.00  0.00    +0.000 A 
ATOM     24  C   UNL     1       5.154   3.877  16.441  0.00  0.00    +0.000 A 
ATOM     25  F   UNL     1       5.866   2.889  15.871  0.00  0.00    +0.000 F 
ATOM     26  C   UNL     1       3.870   3.617  16.875  0.00  0.00    +0.000 A 
ATOM     27  C   UNL     1       3.141   4.650  17.463  0.00  0.00    +0.000 A 
ATOM     28  C   UNL     1       3.681   5.945  17.678  0.00  0.00    +0.000 A 
ENDBRANCH   1  28
TORSDOF 3
ENDMDL
MODEL 9
REMARK VINA RESULT:      -8.0      3.840      8.793
REMARK  Name = 
REMARK  6 active torsions:
REMARK  status: ('A' for Active; 'I' for Inactive)
REMARK    1  A    between atoms: C_1  and  C_2
REMARK    2  A    between atoms: C_8  and  C_9
REMARK    3  A    between atoms: C_12  and  C_13
REMARK    4  A    between atoms: C_21  and  C_22
REMARK    5  A    between atoms: C_22  and  C_23
REMARK    6  A    between atoms: C_22  and  C_24
REMARK                            x       y       z     vdW  Elec       q    Type
REMARK                         _______ _______ _______ _____ _____    ______ ____
ROOT
ATOM      1  C   UNL     1       0.103  10.101  19.276  0.00  0.00    +0.000 A 
ATOM      2  C   UNL     1       0.846  10.161  18.084  0.00  0.00    +0.000 A 
ATOM      3  C   UNL     1       1.806   9.192  17.752  0.00  0.00    +0.000 A 
ATOM      4  C   UNL     1       2.158   8.211  18.678  0.00  0.00    +0.000 A 
ATOM      5  C   UNL     1       1.595   8.282  19.948  0.00  0.00    +0.000 A 
ATOM      6  C   UNL     1       0.517   9.121  20.191  0.00  0.00    +0.000 A 
ATOM      7  F   UNL     1      -0.136   8.919  21.347  0.00  0.00    +0.000 F 
ENDROOT
BRANCH   4   8
ATOM      8  C   UNL     1       3.147   7.153  18.308  0.00  0.00    +0.000 C 
ATOM      9  O   UNL     1       3.880   7.413  17.358  0.00  0.00    +0.000 OA
ATOM     10  N   UNL     1       3.176   5.937  19.016  0.00  0.00    +0.000 N 
ATOM     11  C   UNL     1       2.109   5.567  19.957  0.00  0.00    +0.000 C 
ATOM     12  C   UNL     1       1.771   4.100  19.888  0.00  0.00    +0.000 C 
ATOM     13  N   UNL     1       2.938   3.306  20.116  0.00  0.00    +0.000 N 
ATOM     14  C   UNL     1       4.175   3.651  19.647  0.00  0.00    +0.000 C 
ATOM     15  O   UNL     1       5.058   2.792  19.742  0.00  0.00    +0.000 OA
ATOM     16  C   UNL     1       4.440   5.137  19.184  0.00  0.00    +0.000 C 
ATOM     17  H   UNL     1       2.851   2.324  20.351  0.00  0.00    +0.000 HD
BRANCH  16  18
ATOM     18  C   UNL     1       5.513   5.188  18.050  0.00  0.00    +0.000 C 
ATOM     19  C   UNL     1       6.957   5.074  18.576  0.00  0.00    +0.000 C 
ATOM     20  C   UNL     1       5.290   4.141  16.958  0.00  0.00    +0.000 C 
ENDBRANCH  16  18
ENDBRANCH   4   8
BRANCH   1  28
ATOM     21  C   UNL     1       0.135  12.226  21.550  0.00  0.00    +0.000 C 
ATOM     22  C   UNL     1      -1.023  11.999  20.611  0.00  0.00    +0.000 A 
ATOM     23  C   UNL     1      -2.149  12.828  20.799  0.00  0.00    +0.000 A 
ATOM     24  C   UNL     1      -3.252  12.722  19.979  0.00  0.00    +0.000 A 
ATOM     25  F   UNL     1      -4.296  13.550  20.158  0.00  0.00    +0.000 F 
ATOM     26  C   UNL     1      -3.294  11.797  18.956  0.00  0.00    +0.000 A 
ATOM     27  C   UNL     1      -2.206  10.943  18.783  0.00  0.00    +0.000 A 
ATOM     28  C   UNL     1      -1.037  11.015  19.584  0.00  0.00    +0.000 A 
ENDBRANCH   1  28
TORSDOF 3
ENDMDL
