MODEL 1
REMARK VINA RESULT:      -8.3      0.000      0.000
REMARK  Name = 
REMARK  3 active torsions:
REMARK  status: ('A' for Active; 'I' for Inactive)
REMARK    1  A    between atoms: C_4  and  C_5
REMARK    2  A    between atoms: C_8  and  C_9
REMARK    3  A    between atoms: C_12  and  C_13
REMARK                            x       y       z     vdW  Elec       q    Type
REMARK                         _______ _______ _______ _____ _____    ______ ____
ROOT
ATOM      1  C   UNL     1       0.399   9.844  20.364  0.00  0.00    +0.000 A 
ATOM      2  C   UNL     1       0.705  10.034  19.019  0.00  0.00    +0.000 A 
ATOM      3  C   UNL     1       1.521   9.110  18.367  0.00  0.00    +0.000 A 
ATOM      4  C   UNL     1       2.028   8.010  19.063  0.00  0.00    +0.000 A 
ATOM      5  C   UNL     1       1.697   7.907  20.405  0.00  0.00    +0.000 A 
ATOM      6  N   UNL     1       0.905   8.793  21.062  0.00  0.00    +0.000 NA
ENDROOT
BRANCH   1  10
ATOM      7  C   UNL     1      -2.266  12.409  22.566  0.00  0.00    +0.000 A 
ATOM      8  C   UNL     1      -2.111  12.586  21.196  0.00  0.00    +0.000 A 
ATOM      9  C   UNL     1      -1.239  11.761  20.478  0.00  0.00    +0.000 A 
ATOM     10  C   UNL     1      -0.503  10.742  21.114  0.00  0.00    +0.000 A 
ATOM     11  C   UNL     1      -0.679  10.590  22.502  0.00  0.00    +0.000 A 
ATOM     12  C   UNL     1      -1.551  11.411  23.221  0.00  0.00    +0.000 A 
ENDBRANCH   1  10
BRANCH   4  13
ATOM     13  C   UNL     1       2.860   7.031  18.391  0.00  0.00    +0.000 A 
ATOM     14  N   UNL     1       2.832   5.707  18.606  0.00  0.00    +0.000 NA
ATOM     15  O   UNL     1       3.804   5.208  17.732  0.00  0.00    +0.000 OA
ATOM     16  C   UNL     1       4.320   6.286  17.079  0.00  0.00    +0.000 A 
ATOM     17  N   UNL     1       3.771   7.421  17.438  0.00  0.00    +0.000 NA
BRANCH  16  18
ATOM     18  C   UNL     1       5.399   6.053  16.097  0.00  0.00    +0.000 C 
ATOM     19  C   UNL     1       5.691   4.556  15.881  0.00  0.00    +0.000 C 
ATOM     20  C   UNL     1       7.161   4.460  16.283  0.00  0.00    +0.000 C 
ATOM     21  C   UNL     1       7.336   4.643  17.791  0.00  0.00    +0.000 C 
ATOM     22  C   UNL     1       7.178   6.155  17.951  0.00  0.00    +0.000 C 
ATOM     23  C   UNL     1       6.774   6.579  16.539  0.00  0.00    +0.000 C 
ATOM     24  O   UNL     1       7.659   5.718  15.770  0.00  0.00    +0.000 OA
ENDBRANCH  16  18
ENDBRANCH   4  13
TORSDOF 3
ENDMDL
MODEL 2
REMARK VINA RESULT:      -8.3      0.594      1.021
REMARK  Name = 
REMARK  3 active torsions:
REMARK  status: ('A' for Active; 'I' for Inactive)
REMARK    1  A    between atoms: C_4  and  C_5
REMARK    2  A    between atoms: C_8  and  C_9
REMARK    3  A    between atoms: C_12  and  C_13
REMARK                            x       y       z     vdW  Elec       q    Type
REMARK                         _______ _______ _______ _____ _____    ______ ____
ROOT
ATOM      1  C   UNL     1       0.327   9.663  20.623  0.00  0.00    +0.000 A 
ATOM      2  C   UNL     1       0.705   8.512  21.312  0.00  0.00    +0.000 A 
ATOM      3  C   UNL     1       1.553   7.595  20.693  0.00  0.00    +0.000 A 
ATOM      4  C   UNL     1       2.011   7.829  19.395  0.00  0.00    +0.000 A 
ATOM      5  C   UNL     1       1.569   8.984  18.770  0.00  0.00    +0.000 A 
ATOM      6  N   UNL     1       0.743   9.893  19.350  0.00  0.00    +0.000 NA
ENDROOT
BRANCH   1  10
ATOM      7  C   UNL     1      -2.186  12.676  22.395  0.00  0.00    +0.000 A 
ATOM      8  C   UNL     1      -1.961  12.683  21.022  0.00  0.00    +0.000 A 
ATOM      9  C   UNL     1      -1.137  11.711  20.444  0.00  0.00    +0.000 A 
ATOM     10  C   UNL     1      -0.521  10.713  21.224  0.00  0.00    +0.000 A 
ATOM     11  C   UNL     1      -0.766  10.735  22.610  0.00  0.00    +0.000 A 
ATOM     12  C   UNL     1      -1.589  11.703  23.190  0.00  0.00    +0.000 A 
ENDBRANCH   1  10
BRANCH   4  13
ATOM     13  C   UNL     1       2.911   6.893  18.750  0.00  0.00    +0.000 A 
ATOM     14  N   UNL     1       3.114   5.622  19.129  0.00  0.00    +0.000 NA
ATOM     15  O   UNL     1       4.055   5.147  18.208  0.00  0.00    +0.000 OA
ATOM     16  C   UNL     1       4.322   6.184  17.366  0.00  0.00    +0.000 A 
ATOM     17  N   UNL     1       3.643   7.269  17.648  0.00  0.00    +0.000 NA
BRANCH  16  18
ATOM     18  C   UNL     1       5.313   5.969  16.292  0.00  0.00    +0.000 C 
ATOM     19  C   UNL     1       5.669   4.482  16.101  0.00  0.00    +0.000 C 
ATOM     20  C   UNL     1       7.172   4.481  16.360  0.00  0.00    +0.000 C 
ATOM     21  C   UNL     1       7.481   4.733  17.836  0.00  0.00    +0.000 C 
ATOM     22  C   UNL     1       7.254   6.240  17.959  0.00  0.00    +0.000 C 
ATOM     23  C   UNL     1       6.693   6.585  16.579  0.00  0.00    +0.000 C 
ATOM     24  O   UNL     1       7.547   5.742  15.757  0.00  0.00    +0.000 OA
ENDBRANCH  16  18
ENDBRANCH   4  13
TORSDOF 3
ENDMDL
MODEL 3
REMARK VINA RESULT:      -8.2      5.509      7.687
REMARK  Name = 
REMARK  3 active torsions:
REMARK  status: ('A' for Active; 'I' for Inactive)
REMARK    1  A    between atoms: C_4  and  C_5
REMARK    2  A    between atoms: C_8  and  C_9
REMARK    3  A    between atoms: C_12  and  C_13
REMARK                            x       y       z     vdW  Elec       q    Type
REMARK                         _______ _______ _______ _____ _____    ______ ____
ROOT
ATOM      1  C   UNL     1       8.333   8.759  18.399  0.00  0.00    +0.000 A 
ATOM      2  C   UNL     1       8.540   7.538  19.036  0.00  0.00    +0.000 A 
ATOM      3  C   UNL     1       7.787   6.430  18.649  0.00  0.00    +0.000 A 
ATOM      4  C   UNL     1       6.832   6.550  17.638  0.00  0.00    +0.000 A 
ATOM      5  C   UNL     1       6.669   7.805  17.072  0.00  0.00    +0.000 A 
ATOM      6  N   UNL     1       7.389   8.899  17.431  0.00  0.00    +0.000 NA
ENDROOT
BRANCH   1  10
ATOM      7  C   UNL     1      10.696  12.251  19.265  0.00  0.00    +0.000 A 
ATOM      8  C   UNL     1      10.149  11.510  20.308  0.00  0.00    +0.000 A 
ATOM      9  C   UNL     1       9.373  10.380  20.030  0.00  0.00    +0.000 A 
ATOM     10  C   UNL     1       9.125   9.967  18.706  0.00  0.00    +0.000 A 
ATOM     11  C   UNL     1       9.690  10.739  17.674  0.00  0.00    +0.000 A 
ATOM     12  C   UNL     1      10.467  11.867  17.948  0.00  0.00    +0.000 A 
ENDBRANCH   1  10
BRANCH   4  13
ATOM     13  C   UNL     1       6.058   5.400  17.213  0.00  0.00    +0.000 A 
ATOM     14  N   UNL     1       6.501   4.413  16.419  0.00  0.00    +0.000 NA
ATOM     15  O   UNL     1       5.400   3.559  16.304  0.00  0.00    +0.000 OA
ATOM     16  C   UNL     1       4.402   4.120  17.043  0.00  0.00    +0.000 A 
ATOM     17  N   UNL     1       4.756   5.240  17.625  0.00  0.00    +0.000 NA
BRANCH  16  18
ATOM     18  C   UNL     1       3.096   3.432  17.084  0.00  0.00    +0.000 C 
ATOM     19  C   UNL     1       1.998   4.283  17.751  0.00  0.00    +0.000 C 
ATOM     20  C   UNL     1       1.573   3.395  18.916  0.00  0.00    +0.000 C 
ATOM     21  C   UNL     1       2.665   3.323  19.985  0.00  0.00    +0.000 C 
ATOM     22  C   UNL     1       3.671   2.362  19.351  0.00  0.00    +0.000 C 
ATOM     23  C   UNL     1       3.080   2.165  17.955  0.00  0.00    +0.000 C 
ATOM     24  O   UNL     1       1.670   2.087  18.303  0.00  0.00    +0.000 OA
ENDBRANCH  16  18
ENDBRANCH   4  13
TORSDOF 3
ENDMDL
MODEL 4
REMARK VINA RESULT:      -8.0      5.415      7.603
REMARK  Name = 
REMARK  3 active torsions:
REMARK  status: ('A' for Active; 'I' for Inactive)
REMARK    1  A    between atoms: C_4  and  C_5
REMARK    2  A    between atoms: C_8  and  C_9
REMARK    3  A    between atoms: C_12  and  C_13
REMARK                            x       y       z     vdW  Elec       q    Type
REMARK                         _______ _______ _______ _____ _____    ______ ____
ROOT
ATOM      1  C   UNL     1       8.355   8.881  18.374  0.00  0.00    +0.000 A 
ATOM      2  C   UNL     1       7.364   8.989  17.401  0.00  0.00    +0.000 A 
ATOM      3  C   UNL     1       6.629   7.858  17.047  0.00  0.00    +0.000 A 
ATOM      4  C   UNL     1       6.891   6.632  17.661  0.00  0.00    +0.000 A 
ATOM      5  C   UNL     1       7.910   6.603  18.601  0.00  0.00    +0.000 A 
ATOM      6  N   UNL     1       8.640   7.689  18.962  0.00  0.00    +0.000 NA
ENDROOT
BRANCH   1  10
ATOM      7  C   UNL     1      10.698  12.226  19.735  0.00  0.00    +0.000 A 
ATOM      8  C   UNL     1       9.975  11.469  20.651  0.00  0.00    +0.000 A 
ATOM      9  C   UNL     1       9.205  10.387  20.212  0.00  0.00    +0.000 A 
ATOM     10  C   UNL     1       9.140  10.039  18.848  0.00  0.00    +0.000 A 
ATOM     11  C   UNL     1       9.880  10.826  17.946  0.00  0.00    +0.000 A 
ATOM     12  C   UNL     1      10.651  11.906  18.382  0.00  0.00    +0.000 A 
ENDBRANCH   1  10
BRANCH   4  13
ATOM     13  C   UNL     1       6.119   5.454  17.316  0.00  0.00    +0.000 A 
ATOM     14  N   UNL     1       6.596   4.365  16.694  0.00  0.00    +0.000 NA
ATOM     15  O   UNL     1       5.481   3.526  16.590  0.00  0.00    +0.000 OA
ATOM     16  C   UNL     1       4.443   4.198  17.163  0.00  0.00    +0.000 A 
ATOM     17  N   UNL     1       4.783   5.375  17.630  0.00  0.00    +0.000 NA
BRANCH  16  18
ATOM     18  C   UNL     1       3.117   3.549  17.174  0.00  0.00    +0.000 C 
ATOM     19  C   UNL     1       2.031   4.429  17.822  0.00  0.00    +0.000 C 
ATOM     20  C   UNL     1       1.557   3.549  18.975  0.00  0.00    +0.000 C 
ATOM     21  C   UNL     1       2.625   3.440  20.065  0.00  0.00    +0.000 C 
ATOM     22  C   UNL     1       3.615   2.453  19.447  0.00  0.00    +0.000 C 
ATOM     23  C   UNL     1       3.046   2.279  18.038  0.00  0.00    +0.000 C 
ATOM     24  O   UNL     1       1.627   2.241  18.357  0.00  0.00    +0.000 OA
ENDBRANCH  16  18
ENDBRANCH   4  13
TORSDOF 3
ENDMDL
MODEL 5
REMARK VINA RESULT:      -8.0      0.744      1.438
REMARK  Name = 
REMARK  3 active torsions:
REMARK  status: ('A' for Active; 'I' for Inactive)
REMARK    1  A    between atoms: C_4  and  C_5
REMARK    2  A    between atoms: C_8  and  C_9
REMARK    3  A    between atoms: C_12  and  C_13
REMARK                            x       y       z     vdW  Elec       q    Type
REMARK                         _______ _______ _______ _____ _____    ______ ____
ROOT
ATOM      1  C   UNL     1       0.430   9.818  20.182  0.00  0.00    +0.000 A 
ATOM      2  C   UNL     1       0.856   8.742  20.958  0.00  0.00    +0.000 A 
ATOM      3  C   UNL     1       1.684   7.775  20.389  0.00  0.00    +0.000 A 
ATOM      4  C   UNL     1       2.076   7.887  19.054  0.00  0.00    +0.000 A 
ATOM      5  C   UNL     1       1.590   8.972  18.343  0.00  0.00    +0.000 A 
ATOM      6  N   UNL     1       0.782   9.927  18.873  0.00  0.00    +0.000 NA
ENDROOT
BRANCH   1  10
ATOM      7  C   UNL     1      -1.961  13.055  21.709  0.00  0.00    +0.000 A 
ATOM      8  C   UNL     1      -1.062  12.404  22.547  0.00  0.00    +0.000 A 
ATOM      9  C   UNL     1      -0.290  11.345  22.057  0.00  0.00    +0.000 A 
ATOM     10  C   UNL     1      -0.400  10.914  20.721  0.00  0.00    +0.000 A 
ATOM     11  C   UNL     1      -1.320  11.591  19.898  0.00  0.00    +0.000 A 
ATOM     12  C   UNL     1      -2.091  12.650  20.384  0.00  0.00    +0.000 A 
ENDBRANCH   1  10
BRANCH   4  13
ATOM     13  C   UNL     1       2.954   6.899  18.458  0.00  0.00    +0.000 A 
ATOM     14  N   UNL     1       3.081   5.625  18.861  0.00  0.00    +0.000 NA
ATOM     15  O   UNL     1       4.034   5.092  17.985  0.00  0.00    +0.000 OA
ATOM     16  C   UNL     1       4.385   6.103  17.142  0.00  0.00    +0.000 A 
ATOM     17  N   UNL     1       3.748   7.223  17.383  0.00  0.00    +0.000 NA
BRANCH  16  18
ATOM     18  C   UNL     1       5.407   5.826  16.112  0.00  0.00    +0.000 C 
ATOM     19  C   UNL     1       5.788   4.335  16.041  0.00  0.00    +0.000 C 
ATOM     20  C   UNL     1       7.284   4.376  16.337  0.00  0.00    +0.000 C 
ATOM     21  C   UNL     1       7.550   4.742  17.799  0.00  0.00    +0.000 C 
ATOM     22  C   UNL     1       7.298   6.250  17.803  0.00  0.00    +0.000 C 
ATOM     23  C   UNL     1       6.769   6.483  16.388  0.00  0.00    +0.000 C 
ATOM     24  O   UNL     1       7.657   5.596  15.653  0.00  0.00    +0.000 OA
ENDBRANCH  16  18
ENDBRANCH   4  13
TORSDOF 3
ENDMDL
MODEL 6
REMARK VINA RESULT:      -7.9      5.213      7.741
REMARK  Name = 
REMARK  3 active torsions:
REMARK  status: ('A' for Active; 'I' for Inactive)
REMARK    1  A    between atoms: C_4  and  C_5
REMARK    2  A    between atoms: C_8  and  C_9
REMARK    3  A    between atoms: C_12  and  C_13
REMARK                            x       y       z     vdW  Elec       q    Type
REMARK                         _______ _______ _______ _____ _____    ______ ____
ROOT
ATOM      1  C   UNL     1       8.406   8.837  18.419  0.00  0.00    +0.000 A 
ATOM      2  C   UNL     1       7.374   8.863  17.483  0.00  0.00    +0.000 A 
ATOM      3  C   UNL     1       6.617   7.713  17.268  0.00  0.00    +0.000 A 
ATOM      4  C   UNL     1       6.898   6.546  17.982  0.00  0.00    +0.000 A 
ATOM      5  C   UNL     1       7.956   6.594  18.875  0.00  0.00    +0.000 A 
ATOM      6  N   UNL     1       8.709   7.701  19.103  0.00  0.00    +0.000 NA
ENDROOT
BRANCH   1  10
ATOM      7  C   UNL     1      10.826  12.271  19.355  0.00  0.00    +0.000 A 
ATOM      8  C   UNL     1      10.223  11.550  20.380  0.00  0.00    +0.000 A 
ATOM      9  C   UNL     1       9.428  10.439  20.079  0.00  0.00    +0.000 A 
ATOM     10  C   UNL     1       9.218  10.025  18.749  0.00  0.00    +0.000 A 
ATOM     11  C   UNL     1       9.839  10.777  17.734  0.00  0.00    +0.000 A 
ATOM     12  C   UNL     1      10.635  11.886  18.031  0.00  0.00    +0.000 A 
ENDBRANCH   1  10
BRANCH   4  13
ATOM     13  C   UNL     1       6.104   5.349  17.782  0.00  0.00    +0.000 A 
ATOM     14  N   UNL     1       5.924   4.721  16.610  0.00  0.00    +0.000 NA
ATOM     15  O   UNL     1       5.094   3.643  16.935  0.00  0.00    +0.000 OA
ATOM     16  C   UNL     1       4.858   3.732  18.274  0.00  0.00    +0.000 A 
ATOM     17  N   UNL     1       5.460   4.751  18.839  0.00  0.00    +0.000 NA
BRANCH  16  18
ATOM     18  C   UNL     1       3.980   2.720  18.894  0.00  0.00    +0.000 C 
ATOM     19  C   UNL     1       3.098   1.989  17.864  0.00  0.00    +0.000 C 
ATOM     20  C   UNL     1       1.693   2.315  18.362  0.00  0.00    +0.000 C 
ATOM     21  C   UNL     1       1.354   3.789  18.138  0.00  0.00    +0.000 C 
ATOM     22  C   UNL     1       2.133   4.472  19.261  0.00  0.00    +0.000 C 
ATOM     23  C   UNL     1       2.925   3.304  19.848  0.00  0.00    +0.000 C 
ATOM     24  O   UNL     1       1.902   2.271  19.794  0.00  0.00    +0.000 OA
ENDBRANCH  16  18
ENDBRANCH   4  13
TORSDOF 3
ENDMDL
MODEL 7
REMARK VINA RESULT:      -7.8      2.391      3.175
REMARK  Name = 
REMARK  3 active torsions:
REMARK  status: ('A' for Active; 'I' for Inactive)
REMARK    1  A    between atoms: C_4  and  C_5
REMARK    2  A    between atoms: C_8  and  C_9
REMARK    3  A    between atoms: C_12  and  C_13
REMARK                            x       y       z     vdW  Elec       q    Type
REMARK                         _______ _______ _______ _____ _____    ______ ____
ROOT
ATOM      1  C   UNL     1       0.617  10.134  20.809  0.00  0.00    +0.000 A 
ATOM      2  C   UNL     1       0.950   8.934  21.433  0.00  0.00    +0.000 A 
ATOM      3  C   UNL     1       1.580   7.933  20.696  0.00  0.00    +0.000 A 
ATOM      4  C   UNL     1       1.869   8.134  19.345  0.00  0.00    +0.000 A 
ATOM      5  C   UNL     1       1.483   9.344  18.792  0.00  0.00    +0.000 A 
ATOM      6  N   UNL     1       0.867  10.335  19.487  0.00  0.00    +0.000 NA
ENDROOT
BRANCH   1  10
ATOM      7  C   UNL     1      -1.121  13.451  22.930  0.00  0.00    +0.000 A 
ATOM      8  C   UNL     1      -1.527  12.154  23.224  0.00  0.00    +0.000 A 
ATOM      9  C   UNL     1      -0.971  11.074  22.530  0.00  0.00    +0.000 A 
ATOM     10  C   UNL     1       0.000  11.267  21.528  0.00  0.00    +0.000 A 
ATOM     11  C   UNL     1       0.388  12.591  21.253  0.00  0.00    +0.000 A 
ATOM     12  C   UNL     1      -0.164  13.672  21.945  0.00  0.00    +0.000 A 
ENDBRANCH   1  10
BRANCH   4  13
ATOM     13  C   UNL     1       2.543   7.108  18.573  0.00  0.00    +0.000 A 
ATOM     14  N   UNL     1       3.594   7.308  17.763  0.00  0.00    +0.000 NA
ATOM     15  O   UNL     1       3.871   6.033  17.257  0.00  0.00    +0.000 OA
ATOM     16  C   UNL     1       2.956   5.193  17.816  0.00  0.00    +0.000 A 
ATOM     17  N   UNL     1       2.129   5.798  18.634  0.00  0.00    +0.000 NA
BRANCH  16  18
ATOM     18  C   UNL     1       2.999   3.766  17.437  0.00  0.00    +0.000 C 
ATOM     19  C   UNL     1       1.813   2.965  18.007  0.00  0.00    +0.000 C 
ATOM     20  C   UNL     1       2.521   1.911  18.853  0.00  0.00    +0.000 C 
ATOM     21  C   UNL     1       3.160   2.535  20.096  0.00  0.00    +0.000 C 
ATOM     22  C   UNL     1       4.406   3.203  19.516  0.00  0.00    +0.000 C 
ATOM     23  C   UNL     1       4.200   2.999  18.014  0.00  0.00    +0.000 C 
ATOM     24  O   UNL     1       3.679   1.641  18.028  0.00  0.00    +0.000 OA
ENDBRANCH  16  18
ENDBRANCH   4  13
TORSDOF 3
ENDMDL
MODEL 8
REMARK VINA RESULT:      -7.8      0.982      1.807
REMARK  Name = 
REMARK  3 active torsions:
REMARK  status: ('A' for Active; 'I' for Inactive)
REMARK    1  A    between atoms: C_4  and  C_5
REMARK    2  A    between atoms: C_8  and  C_9
REMARK    3  A    between atoms: C_12  and  C_13
REMARK                            x       y       z     vdW  Elec       q    Type
REMARK                         _______ _______ _______ _____ _____    ______ ____
ROOT
ATOM      1  C   UNL     1       0.480   9.647  20.399  0.00  0.00    +0.000 A 
ATOM      2  C   UNL     1       1.006   9.755  19.113  0.00  0.00    +0.000 A 
ATOM      3  C   UNL     1       1.771   8.710  18.599  0.00  0.00    +0.000 A 
ATOM      4  C   UNL     1       2.010   7.571  19.370  0.00  0.00    +0.000 A 
ATOM      5  C   UNL     1       1.474   7.551  20.648  0.00  0.00    +0.000 A 
ATOM      6  N   UNL     1       0.726   8.556  21.173  0.00  0.00    +0.000 NA
ENDROOT
BRANCH   1  10
ATOM      7  C   UNL     1      -2.010  12.707  22.121  0.00  0.00    +0.000 A 
ATOM      8  C   UNL     1      -1.332  11.819  22.950  0.00  0.00    +0.000 A 
ATOM      9  C   UNL     1      -0.530  10.817  22.394  0.00  0.00    +0.000 A 
ATOM     10  C   UNL     1      -0.387  10.681  20.999  0.00  0.00    +0.000 A 
ATOM     11  C   UNL     1      -1.088  11.592  20.187  0.00  0.00    +0.000 A 
ATOM     12  C   UNL     1      -1.889  12.595  20.739  0.00  0.00    +0.000 A 
ENDBRANCH   1  10
BRANCH   4  13
ATOM     13  C   UNL     1       2.787   6.468  18.837  0.00  0.00    +0.000 A 
ATOM     14  N   UNL     1       2.320   5.510  18.021  0.00  0.00    +0.000 NA
ATOM     15  O   UNL     1       3.434   4.694  17.796  0.00  0.00    +0.000 OA
ATOM     16  C   UNL     1       4.461   5.245  18.502  0.00  0.00    +0.000 A 
ATOM     17  N   UNL     1       4.119   6.335  19.147  0.00  0.00    +0.000 NA
BRANCH  16  18
ATOM     18  C   UNL     1       5.773   4.568  18.466  0.00  0.00    +0.000 C 
ATOM     19  C   UNL     1       6.800   5.214  19.415  0.00  0.00    +0.000 C 
ATOM     20  C   UNL     1       7.909   5.622  18.450  0.00  0.00    +0.000 C 
ATOM     21  C   UNL     1       7.468   6.785  17.559  0.00  0.00    +0.000 C 
ATOM     22  C   UNL     1       6.561   6.087  16.546  0.00  0.00    +0.000 C 
ATOM     23  C   UNL     1       6.493   4.668  17.112  0.00  0.00    +0.000 C 
ATOM     24  O   UNL     1       7.879   4.510  17.524  0.00  0.00    +0.000 OA
ENDBRANCH  16  18
ENDBRANCH   4  13
TORSDOF 3
ENDMDL
MODEL 9
REMARK VINA RESULT:      -7.7      2.227      2.991
REMARK  Name = 
REMARK  3 active torsions:
REMARK  status: ('A' for Active; 'I' for Inactive)
REMARK    1  A    between atoms: C_4  and  C_5
REMARK    2  A    between atoms: C_8  and  C_9
REMARK    3  A    between atoms: C_12  and  C_13
REMARK                            x       y       z     vdW  Elec       q    Type
REMARK                         _______ _______ _______ _____ _____    ______ ____
ROOT
ATOM      1  C   UNL     1       0.497  10.163  20.210  0.00  0.00    +0.000 A 
ATOM      2  C   UNL     1       0.762  10.261  18.845  0.00  0.00    +0.000 A 
ATOM      3  C   UNL     1       1.480   9.247  18.215  0.00  0.00    +0.000 A 
ATOM      4  C   UNL     1       1.932   8.148  18.948  0.00  0.00    +0.000 A 
ATOM      5  C   UNL     1       1.649   8.137  20.304  0.00  0.00    +0.000 A 
ATOM      6  N   UNL     1       0.953   9.112  20.943  0.00  0.00    +0.000 NA
ENDROOT
BRANCH   1  10
ATOM      7  C   UNL     1      -1.795  13.122  22.335  0.00  0.00    +0.000 A 
ATOM      8  C   UNL     1      -1.294  12.016  23.014  0.00  0.00    +0.000 A 
ATOM      9  C   UNL     1      -0.556  11.048  22.325  0.00  0.00    +0.000 A 
ATOM     10  C   UNL     1      -0.305  11.162  20.944  0.00  0.00    +0.000 A 
ATOM     11  C   UNL     1      -0.828  12.290  20.285  0.00  0.00    +0.000 A 
ATOM     12  C   UNL     1      -1.563  13.260  20.970  0.00  0.00    +0.000 A 
ENDBRANCH   1  10
BRANCH   4  13
ATOM     13  C   UNL     1       2.662   7.077  18.298  0.00  0.00    +0.000 A 
ATOM     14  N   UNL     1       3.802   7.220  17.604  0.00  0.00    +0.000 NA
ATOM     15  O   UNL     1       4.100   5.920  17.183  0.00  0.00    +0.000 OA
ATOM     16  C   UNL     1       3.107   5.123  17.668  0.00  0.00    +0.000 A 
ATOM     17  N   UNL     1       2.210   5.780  18.363  0.00  0.00    +0.000 NA
BRANCH  16  18
ATOM     18  C   UNL     1       3.155   3.682  17.352  0.00  0.00    +0.000 C 
ATOM     19  C   UNL     1       1.914   2.922  17.858  0.00  0.00    +0.000 C 
ATOM     20  C   UNL     1       2.534   1.895  18.800  0.00  0.00    +0.000 C 
ATOM     21  C   UNL     1       3.082   2.561  20.063  0.00  0.00    +0.000 C 
ATOM     22  C   UNL     1       4.382   3.187  19.557  0.00  0.00    +0.000 C 
ATOM     23  C   UNL     1       4.293   2.923  18.054  0.00  0.00    +0.000 C 
ATOM     24  O   UNL     1       3.749   1.574  18.081  0.00  0.00    +0.000 OA
ENDBRANCH  16  18
ENDBRANCH   4  13
TORSDOF 3
ENDMDL
