MODEL 1
REMARK VINA RESULT:      -8.6      0.000      0.000
REMARK  Name = 
REMARK  6 active torsions:
REMARK  status: ('A' for Active; 'I' for Inactive)
REMARK    1  A    between atoms: C_1  and  C_2
REMARK    2  A    between atoms: C_5  and  C_6
REMARK    3  A    between atoms: N_8  and  C_9
REMARK    4  A    between atoms: C_9  and  C_10
REMARK    5  A    between atoms: C_20  and  S_21
REMARK    6  A    between atoms: S_21  and  N_24
REMARK                            x       y       z     vdW  Elec       q    Type
REMARK                         _______ _______ _______ _____ _____    ______ ____
ROOT
ATOM      1  C   UNL     1       2.470   2.853  21.228  0.00  0.00    +0.000 C 
ATOM      2  C   UNL     1       2.470   4.204  20.571  0.00  0.00    +0.000 A 
ATOM      3  C   UNL     1       1.578   5.170  21.109  0.00  0.00    +0.000 A 
ATOM      4  C   UNL     1       1.461   6.448  20.561  0.00  0.00    +0.000 A 
ATOM      5  C   UNL     1       2.226   6.794  19.448  0.00  0.00    +0.000 A 
ATOM      6  C   UNL     1       3.131   5.867  18.922  0.00  0.00    +0.000 A 
ATOM      7  C   UNL     1       3.273   4.584  19.480  0.00  0.00    +0.000 A 
ENDROOT
BRANCH   5   8
ATOM      8  C   UNL     1       2.087   8.156  18.862  0.00  0.00    +0.000 C 
ATOM      9  O   UNL     1       2.768   8.484  17.895  0.00  0.00    +0.000 OA
ATOM     10  N   UNL     1       1.174   8.984  19.473  0.00  0.00    +0.000 N 
ATOM     11  H   UNL     1       0.875   8.775  20.418  0.00  0.00    +0.000 HD
BRANCH  10  12
ATOM     12  C   UNL     1       0.960  10.336  19.011  0.00  0.00    +0.000 C 
BRANCH  12  13
ATOM     13  C   UNL     1      -0.499  10.633  18.751  0.00  0.00    +0.000 A 
ATOM     14  C   UNL     1      -1.182  10.094  17.632  0.00  0.00    +0.000 A 
ATOM     15  C   UNL     1      -2.518  10.417  17.374  0.00  0.00    +0.000 A 
ATOM     16  C   UNL     1      -3.142  11.295  18.230  0.00  0.00    +0.000 A 
ATOM     17  C   UNL     1      -2.487  11.840  19.308  0.00  0.00    +0.000 A 
ATOM     18  C   UNL     1      -1.172  11.533  19.594  0.00  0.00    +0.000 A 
ATOM     19  O   UNL     1      -3.272  12.695  20.015  0.00  0.00    +0.000 OA
ATOM     20  C   UNL     1      -4.495  12.632  19.253  0.00  0.00    +0.000 C 
ATOM     21  O   UNL     1      -4.424  11.736  18.124  0.00  0.00    +0.000 OA
ENDBRANCH  12  13
ENDBRANCH  10  12
ENDBRANCH   5   8
BRANCH   7  22
ATOM     22  S   UNL     1       4.386   3.479  18.576  0.00  0.00    +0.000 S 
ATOM     23  O   UNL     1       5.401   2.996  19.486  0.00  0.00    +0.000 OA
ATOM     24  O   UNL     1       3.531   2.543  17.867  0.00  0.00    +0.000 OA
BRANCH  22  25
ATOM     25  N   UNL     1       5.146   4.461  17.387  0.00  0.00    +0.000 NA
ATOM     26  C   UNL     1       6.430   5.083  17.778  0.00  0.00    +0.000 C 
ATOM     27  C   UNL     1       7.144   5.833  16.661  0.00  0.00    +0.000 C 
ATOM     28  C   UNL     1       7.137   5.056  15.358  0.00  0.00    +0.000 C 
ATOM     29  C   UNL     1       5.698   4.812  14.949  0.00  0.00    +0.000 C 
ATOM     30  C   UNL     1       4.942   4.010  15.995  0.00  0.00    +0.000 C 
ENDBRANCH  22  25
ENDBRANCH   7  22
TORSDOF 5
ENDMDL
MODEL 2
REMARK VINA RESULT:      -8.5      0.559      1.233
REMARK  Name = 
REMARK  6 active torsions:
REMARK  status: ('A' for Active; 'I' for Inactive)
REMARK    1  A    between atoms: C_1  and  C_2
REMARK    2  A    between atoms: C_5  and  C_6
REMARK    3  A    between atoms: N_8  and  C_9
REMARK    4  A    between atoms: C_9  and  C_10
REMARK    5  A    between atoms: C_20  and  S_21
REMARK    6  A    between atoms: S_21  and  N_24
REMARK                            x       y       z     vdW  Elec       q    Type
REMARK                         _______ _______ _______ _____ _____    ______ ____
ROOT
ATOM      1  C   UNL     1       2.328   3.123  21.391  0.00  0.00    +0.000 C 
ATOM      2  C   UNL     1       2.405   4.418  20.635  0.00  0.00    +0.000 A 
ATOM      3  C   UNL     1       1.562   5.468  21.089  0.00  0.00    +0.000 A 
ATOM      4  C   UNL     1       1.517   6.706  20.445  0.00  0.00    +0.000 A 
ATOM      5  C   UNL     1       2.307   6.926  19.318  0.00  0.00    +0.000 A 
ATOM      6  C   UNL     1       3.164   5.915  18.873  0.00  0.00    +0.000 A 
ATOM      7  C   UNL     1       3.234   4.672  19.527  0.00  0.00    +0.000 A 
ENDROOT
BRANCH   5   8
ATOM      8  C   UNL     1       2.245   8.245  18.629  0.00  0.00    +0.000 C 
ATOM      9  O   UNL     1       3.040   8.511  17.733  0.00  0.00    +0.000 OA
ATOM     10  N   UNL     1       1.266   9.107  19.067  0.00  0.00    +0.000 N 
ATOM     11  H   UNL     1       0.853   8.960  19.981  0.00  0.00    +0.000 HD
BRANCH  10  12
ATOM     12  C   UNL     1       1.114  10.424  18.493  0.00  0.00    +0.000 C 
BRANCH  12  13
ATOM     13  C   UNL     1      -0.213  11.056  18.844  0.00  0.00    +0.000 A 
ATOM     14  C   UNL     1      -0.359  11.914  19.962  0.00  0.00    +0.000 A 
ATOM     15  C   UNL     1      -1.604  12.452  20.306  0.00  0.00    +0.000 A 
ATOM     16  C   UNL     1      -2.688  12.102  19.535  0.00  0.00    +0.000 A 
ATOM     17  C   UNL     1      -2.565  11.256  18.459  0.00  0.00    +0.000 A 
ATOM     18  C   UNL     1      -1.350  10.718  18.089  0.00  0.00    +0.000 A 
ATOM     19  O   UNL     1      -3.754  11.023  17.843  0.00  0.00    +0.000 OA
ATOM     20  C   UNL     1      -4.642  11.814  18.661  0.00  0.00    +0.000 C 
ATOM     21  O   UNL     1      -3.970  12.510  19.730  0.00  0.00    +0.000 OA
ENDBRANCH  12  13
ENDBRANCH  10  12
ENDBRANCH   5   8
BRANCH   7  22
ATOM     22  S   UNL     1       4.293   3.445  18.721  0.00  0.00    +0.000 S 
ATOM     23  O   UNL     1       5.251   2.953  19.686  0.00  0.00    +0.000 OA
ATOM     24  O   UNL     1       3.394   2.525  18.044  0.00  0.00    +0.000 OA
BRANCH  22  25
ATOM     25  N   UNL     1       5.145   4.302  17.499  0.00  0.00    +0.000 NA
ATOM     26  C   UNL     1       6.544   4.667  17.812  0.00  0.00    +0.000 C 
ATOM     27  C   UNL     1       7.312   5.303  16.661  0.00  0.00    +0.000 C 
ATOM     28  C   UNL     1       7.079   4.576  15.351  0.00  0.00    +0.000 C 
ATOM     29  C   UNL     1       5.598   4.611  15.035  0.00  0.00    +0.000 C 
ATOM     30  C   UNL     1       4.774   3.934  16.116  0.00  0.00    +0.000 C 
ENDBRANCH  22  25
ENDBRANCH   7  22
TORSDOF 5
ENDMDL
MODEL 3
REMARK VINA RESULT:      -8.5      0.888      1.710
REMARK  Name = 
REMARK  6 active torsions:
REMARK  status: ('A' for Active; 'I' for Inactive)
REMARK    1  A    between atoms: C_1  and  C_2
REMARK    2  A    between atoms: C_5  and  C_6
REMARK    3  A    between atoms: N_8  and  C_9
REMARK    4  A    between atoms: C_9  and  C_10
REMARK    5  A    between atoms: C_20  and  S_21
REMARK    6  A    between atoms: S_21  and  N_24
REMARK                            x       y       z     vdW  Elec       q    Type
REMARK                         _______ _______ _______ _____ _____    ______ ____
ROOT
ATOM      1  C   UNL     1       2.321   2.906  20.948  0.00  0.00    +0.000 C 
ATOM      2  C   UNL     1       2.351   4.225  20.229  0.00  0.00    +0.000 A 
ATOM      3  C   UNL     1       1.826   5.342  20.933  0.00  0.00    +0.000 A 
ATOM      4  C   UNL     1       1.765   6.612  20.356  0.00  0.00    +0.000 A 
ATOM      5  C   UNL     1       2.218   6.800  19.052  0.00  0.00    +0.000 A 
ATOM      6  C   UNL     1       2.766   5.718  18.353  0.00  0.00    +0.000 A 
ATOM      7  C   UNL     1       2.852   4.440  18.932  0.00  0.00    +0.000 A 
ENDROOT
BRANCH   5   8
ATOM      8  C   UNL     1       2.140   8.155  18.440  0.00  0.00    +0.000 C 
ATOM      9  O   UNL     1       2.676   8.375  17.358  0.00  0.00    +0.000 OA
ATOM     10  N   UNL     1       1.449   9.101  19.160  0.00  0.00    +0.000 N 
ATOM     11  H   UNL     1       1.295   8.951  20.150  0.00  0.00    +0.000 HD
BRANCH  10  12
ATOM     12  C   UNL     1       1.317  10.459  18.683  0.00  0.00    +0.000 C 
BRANCH  12  13
ATOM     13  C   UNL     1      -0.119  10.931  18.676  0.00  0.00    +0.000 A 
ATOM     14  C   UNL     1      -0.536  12.062  19.420  0.00  0.00    +0.000 A 
ATOM     15  C   UNL     1      -1.878  12.458  19.446  0.00  0.00    +0.000 A 
ATOM     16  C   UNL     1      -2.784  11.699  18.743  0.00  0.00    +0.000 A 
ATOM     17  C   UNL     1      -2.396  10.588  18.031  0.00  0.00    +0.000 A 
ATOM     18  C   UNL     1      -1.080  10.178  17.979  0.00  0.00    +0.000 A 
ATOM     19  O   UNL     1      -3.443   9.969  17.424  0.00  0.00    +0.000 OA
ATOM     20  C   UNL     1      -4.536  10.813  17.842  0.00  0.00    +0.000 C 
ATOM     21  O   UNL     1      -4.124  11.920  18.670  0.00  0.00    +0.000 OA
ENDBRANCH  12  13
ENDBRANCH  10  12
ENDBRANCH   5   8
BRANCH   7  22
ATOM     22  S   UNL     1       3.456   3.142  17.825  0.00  0.00    +0.000 S 
ATOM     23  O   UNL     1       3.661   1.934  18.594  0.00  0.00    +0.000 OA
ATOM     24  O   UNL     1       2.558   3.141  16.683  0.00  0.00    +0.000 OA
BRANCH  22  25
ATOM     25  N   UNL     1       4.984   3.690  17.260  0.00  0.00    +0.000 NA
ATOM     26  C   UNL     1       5.014   4.241  15.887  0.00  0.00    +0.000 C 
ATOM     27  C   UNL     1       6.348   4.842  15.468  0.00  0.00    +0.000 C 
ATOM     28  C   UNL     1       6.950   5.708  16.558  0.00  0.00    +0.000 C 
ATOM     29  C   UNL     1       7.159   4.855  17.793  0.00  0.00    +0.000 C 
ATOM     30  C   UNL     1       5.852   4.274  18.304  0.00  0.00    +0.000 C 
ENDBRANCH  22  25
ENDBRANCH   7  22
TORSDOF 5
ENDMDL
MODEL 4
REMARK VINA RESULT:      -8.3      1.726      3.926
REMARK  Name = 
REMARK  6 active torsions:
REMARK  status: ('A' for Active; 'I' for Inactive)
REMARK    1  A    between atoms: C_1  and  C_2
REMARK    2  A    between atoms: C_5  and  C_6
REMARK    3  A    between atoms: N_8  and  C_9
REMARK    4  A    between atoms: C_9  and  C_10
REMARK    5  A    between atoms: C_20  and  S_21
REMARK    6  A    between atoms: S_21  and  N_24
REMARK                            x       y       z     vdW  Elec       q    Type
REMARK                         _______ _______ _______ _____ _____    ______ ____
ROOT
ATOM      1  C   UNL     1       5.814   5.363  15.863  0.00  0.00    +0.000 C 
ATOM      2  C   UNL     1       4.805   5.927  16.823  0.00  0.00    +0.000 A 
ATOM      3  C   UNL     1       4.442   7.288  16.632  0.00  0.00    +0.000 A 
ATOM      4  C   UNL     1       3.543   7.935  17.482  0.00  0.00    +0.000 A 
ATOM      5  C   UNL     1       2.990   7.242  18.557  0.00  0.00    +0.000 A 
ATOM      6  C   UNL     1       3.313   5.894  18.745  0.00  0.00    +0.000 A 
ATOM      7  C   UNL     1       4.200   5.226  17.882  0.00  0.00    +0.000 A 
ENDROOT
BRANCH   5   8
ATOM      8  C   UNL     1       2.041   7.943  19.466  0.00  0.00    +0.000 C 
ATOM      9  O   UNL     1       1.773   7.466  20.565  0.00  0.00    +0.000 OA
ATOM     10  N   UNL     1       1.507   9.117  18.989  0.00  0.00    +0.000 N 
ATOM     11  H   UNL     1       1.526   9.298  17.992  0.00  0.00    +0.000 HD
BRANCH  10  12
ATOM     12  C   UNL     1       0.559   9.882  19.767  0.00  0.00    +0.000 C 
BRANCH  12  13
ATOM     13  C   UNL     1      -0.565  10.437  18.924  0.00  0.00    +0.000 A 
ATOM     14  C   UNL     1      -1.338  11.546  19.348  0.00  0.00    +0.000 A 
ATOM     15  C   UNL     1      -2.410  12.019  18.582  0.00  0.00    +0.000 A 
ATOM     16  C   UNL     1      -2.703  11.355  17.413  0.00  0.00    +0.000 A 
ATOM     17  C   UNL     1      -1.974  10.266  16.999  0.00  0.00    +0.000 A 
ATOM     18  C   UNL     1      -0.907   9.783  17.728  0.00  0.00    +0.000 A 
ATOM     19  O   UNL     1      -2.437   9.746  15.831  0.00  0.00    +0.000 OA
ATOM     20  C   UNL     1      -3.546  10.627  15.563  0.00  0.00    +0.000 C 
ATOM     21  O   UNL     1      -3.715  11.659  16.557  0.00  0.00    +0.000 OA
ENDBRANCH  12  13
ENDBRANCH  10  12
ENDBRANCH   5   8
BRANCH   7  22
ATOM     22  S   UNL     1       4.604   3.530  18.369  0.00  0.00    +0.000 S 
ATOM     23  O   UNL     1       4.774   2.732  17.174  0.00  0.00    +0.000 OA
ATOM     24  O   UNL     1       5.681   3.639  19.338  0.00  0.00    +0.000 OA
BRANCH  22  25
ATOM     25  N   UNL     1       3.225   2.952  19.215  0.00  0.00    +0.000 NA
ATOM     26  C   UNL     1       3.168   3.261  20.661  0.00  0.00    +0.000 C 
ATOM     27  C   UNL     1       1.874   2.855  21.352  0.00  0.00    +0.000 C 
ATOM     28  C   UNL     1       0.651   3.223  20.533  0.00  0.00    +0.000 C 
ATOM     29  C   UNL     1       0.738   2.520  19.193  0.00  0.00    +0.000 C 
ATOM     30  C   UNL     1       1.979   2.930  18.420  0.00  0.00    +0.000 C 
ENDBRANCH  22  25
ENDBRANCH   7  22
TORSDOF 5
ENDMDL
MODEL 5
REMARK VINA RESULT:      -8.3      1.367      1.889
REMARK  Name = 
REMARK  6 active torsions:
REMARK  status: ('A' for Active; 'I' for Inactive)
REMARK    1  A    between atoms: C_1  and  C_2
REMARK    2  A    between atoms: C_5  and  C_6
REMARK    3  A    between atoms: N_8  and  C_9
REMARK    4  A    between atoms: C_9  and  C_10
REMARK    5  A    between atoms: C_20  and  S_21
REMARK    6  A    between atoms: S_21  and  N_24
REMARK                            x       y       z     vdW  Elec       q    Type
REMARK                         _______ _______ _______ _____ _____    ______ ____
ROOT
ATOM      1  C   UNL     1       2.321   2.898  21.238  0.00  0.00    +0.000 C 
ATOM      2  C   UNL     1       2.389   4.242  20.572  0.00  0.00    +0.000 A 
ATOM      3  C   UNL     1       1.521   5.246  21.079  0.00  0.00    +0.000 A 
ATOM      4  C   UNL     1       1.466   6.523  20.518  0.00  0.00    +0.000 A 
ATOM      5  C   UNL     1       2.272   6.830  19.423  0.00  0.00    +0.000 A 
ATOM      6  C   UNL     1       3.154   5.865  18.928  0.00  0.00    +0.000 A 
ATOM      7  C   UNL     1       3.233   4.583  19.498  0.00  0.00    +0.000 A 
ENDROOT
BRANCH   5   8
ATOM      8  C   UNL     1       2.199   8.191  18.823  0.00  0.00    +0.000 C 
ATOM      9  O   UNL     1       2.949   8.500  17.901  0.00  0.00    +0.000 OA
ATOM     10  N   UNL     1       1.265   9.041  19.369  0.00  0.00    +0.000 N 
ATOM     11  H   UNL     1       0.900   8.843  20.293  0.00  0.00    +0.000 HD
BRANCH  10  12
ATOM     12  C   UNL     1       1.109  10.394  18.888  0.00  0.00    +0.000 C 
BRANCH  12  13
ATOM     13  C   UNL     1       0.072  11.168  19.669  0.00  0.00    +0.000 A 
ATOM     14  C   UNL     1      -1.073  11.722  19.043  0.00  0.00    +0.000 A 
ATOM     15  C   UNL     1      -1.999  12.480  19.767  0.00  0.00    +0.000 A 
ATOM     16  C   UNL     1      -1.750  12.690  21.103  0.00  0.00    +0.000 A 
ATOM     17  C   UNL     1      -0.635  12.175  21.720  0.00  0.00    +0.000 A 
ATOM     18  C   UNL     1       0.291  11.416  21.034  0.00  0.00    +0.000 A 
ATOM     19  O   UNL     1      -0.566  12.512  23.035  0.00  0.00    +0.000 OA
ATOM     20  C   UNL     1      -1.763  13.305  23.174  0.00  0.00    +0.000 C 
ATOM     21  O   UNL     1      -2.526  13.414  21.955  0.00  0.00    +0.000 OA
ENDBRANCH  12  13
ENDBRANCH  10  12
ENDBRANCH   5   8
BRANCH   7  22
ATOM     22  S   UNL     1       4.326   3.429  18.632  0.00  0.00    +0.000 S 
ATOM     23  O   UNL     1       5.306   2.924  19.570  0.00  0.00    +0.000 OA
ATOM     24  O   UNL     1       3.455   2.513  17.917  0.00  0.00    +0.000 OA
BRANCH  22  25
ATOM     25  N   UNL     1       5.144   4.369  17.448  0.00  0.00    +0.000 NA
ATOM     26  C   UNL     1       6.524   4.786  17.783  0.00  0.00    +0.000 C 
ATOM     27  C   UNL     1       7.267   5.498  16.662  0.00  0.00    +0.000 C 
ATOM     28  C   UNL     1       7.074   4.810  15.324  0.00  0.00    +0.000 C 
ATOM     29  C   UNL     1       5.594   4.790  15.000  0.00  0.00    +0.000 C 
ATOM     30  C   UNL     1       4.797   4.036  16.051  0.00  0.00    +0.000 C 
ENDBRANCH  22  25
ENDBRANCH   7  22
TORSDOF 5
ENDMDL
MODEL 6
REMARK VINA RESULT:      -8.2      0.746      1.310
REMARK  Name = 
REMARK  6 active torsions:
REMARK  status: ('A' for Active; 'I' for Inactive)
REMARK    1  A    between atoms: C_1  and  C_2
REMARK    2  A    between atoms: C_5  and  C_6
REMARK    3  A    between atoms: N_8  and  C_9
REMARK    4  A    between atoms: C_9  and  C_10
REMARK    5  A    between atoms: C_20  and  S_21
REMARK    6  A    between atoms: S_21  and  N_24
REMARK                            x       y       z     vdW  Elec       q    Type
REMARK                         _______ _______ _______ _____ _____    ______ ____
ROOT
ATOM      1  C   UNL     1       2.547   3.258  21.213  0.00  0.00    +0.000 C 
ATOM      2  C   UNL     1       2.476   4.568  20.482  0.00  0.00    +0.000 A 
ATOM      3  C   UNL     1       1.691   5.588  21.085  0.00  0.00    +0.000 A 
ATOM      4  C   UNL     1       1.518   6.835  20.482  0.00  0.00    +0.000 A 
ATOM      5  C   UNL     1       2.117   7.095  19.251  0.00  0.00    +0.000 A 
ATOM      6  C   UNL     1       2.917   6.114  18.655  0.00  0.00    +0.000 A 
ATOM      7  C   UNL     1       3.115   4.862  19.264  0.00  0.00    +0.000 A 
ENDROOT
BRANCH   5   8
ATOM      8  C   UNL     1       1.919   8.424  18.609  0.00  0.00    +0.000 C 
ATOM      9  O   UNL     1       2.597   8.749  17.639  0.00  0.00    +0.000 OA
ATOM     10  N   UNL     1       0.956   9.228  19.174  0.00  0.00    +0.000 N 
ATOM     11  H   UNL     1       0.653   9.041  20.123  0.00  0.00    +0.000 HD
BRANCH  10  12
ATOM     12  C   UNL     1       0.681  10.548  18.656  0.00  0.00    +0.000 C 
BRANCH  12  13
ATOM     13  C   UNL     1      -0.800  10.829  18.548  0.00  0.00    +0.000 A 
ATOM     14  C   UNL     1      -1.578  10.328  17.475  0.00  0.00    +0.000 A 
ATOM     15  C   UNL     1      -2.938  10.638  17.358  0.00  0.00    +0.000 A 
ATOM     16  C   UNL     1      -3.490  11.464  18.309  0.00  0.00    +0.000 A 
ATOM     17  C   UNL     1      -2.744  11.972  19.346  0.00  0.00    +0.000 A 
ATOM     18  C   UNL     1      -1.404  11.677  19.492  0.00  0.00    +0.000 A 
ATOM     19  O   UNL     1      -3.471  12.779  20.162  0.00  0.00    +0.000 OA
ATOM     20  C   UNL     1      -4.760  12.727  19.516  0.00  0.00    +0.000 C 
ATOM     21  O   UNL     1      -4.782  11.886  18.345  0.00  0.00    +0.000 OA
ENDBRANCH  12  13
ENDBRANCH  10  12
ENDBRANCH   5   8
BRANCH   7  22
ATOM     22  S   UNL     1       4.061   3.677  18.276  0.00  0.00    +0.000 S 
ATOM     23  O   UNL     1       4.281   2.485  19.065  0.00  0.00    +0.000 OA
ATOM     24  O   UNL     1       3.382   3.593  16.994  0.00  0.00    +0.000 OA
BRANCH  22  25
ATOM     25  N   UNL     1       5.582   4.425  17.989  0.00  0.00    +0.000 NA
ATOM     26  C   UNL     1       5.784   4.998  16.640  0.00  0.00    +0.000 C 
ATOM     27  C   UNL     1       7.084   5.771  16.462  0.00  0.00    +0.000 C 
ATOM     28  C   UNL     1       7.367   6.687  17.636  0.00  0.00    +0.000 C 
ATOM     29  C   UNL     1       7.461   5.847  18.893  0.00  0.00    +0.000 C 
ATOM     30  C   UNL     1       6.170   5.095  19.167  0.00  0.00    +0.000 C 
ENDBRANCH  22  25
ENDBRANCH   7  22
TORSDOF 5
ENDMDL
MODEL 7
REMARK VINA RESULT:      -8.2      1.640      2.152
REMARK  Name = 
REMARK  6 active torsions:
REMARK  status: ('A' for Active; 'I' for Inactive)
REMARK    1  A    between atoms: C_1  and  C_2
REMARK    2  A    between atoms: C_5  and  C_6
REMARK    3  A    between atoms: N_8  and  C_9
REMARK    4  A    between atoms: C_9  and  C_10
REMARK    5  A    between atoms: C_20  and  S_21
REMARK    6  A    between atoms: S_21  and  N_24
REMARK                            x       y       z     vdW  Elec       q    Type
REMARK                         _______ _______ _______ _____ _____    ______ ____
ROOT
ATOM      1  C   UNL     1       2.209   1.978  19.321  0.00  0.00    +0.000 C 
ATOM      2  C   UNL     1       2.177   3.454  19.594  0.00  0.00    +0.000 A 
ATOM      3  C   UNL     1       0.980   3.966  20.164  0.00  0.00    +0.000 A 
ATOM      4  C   UNL     1       0.816   5.327  20.428  0.00  0.00    +0.000 A 
ATOM      5  C   UNL     1       1.841   6.219  20.118  0.00  0.00    +0.000 A 
ATOM      6  C   UNL     1       3.037   5.730  19.584  0.00  0.00    +0.000 A 
ATOM      7  C   UNL     1       3.222   4.359  19.334  0.00  0.00    +0.000 A 
ENDROOT
BRANCH   5   8
ATOM      8  C   UNL     1       1.654   7.671  20.393  0.00  0.00    +0.000 C 
ATOM      9  O   UNL     1       1.430   8.059  21.536  0.00  0.00    +0.000 OA
ATOM     10  N   UNL     1       1.743   8.506  19.303  0.00  0.00    +0.000 N 
ATOM     11  H   UNL     1       1.629   8.117  18.374  0.00  0.00    +0.000 HD
BRANCH  10  12
ATOM     12  C   UNL     1       1.561   9.933  19.434  0.00  0.00    +0.000 C 
BRANCH  12  13
ATOM     13  C   UNL     1       0.184  10.381  19.001  0.00  0.00    +0.000 A 
ATOM     14  C   UNL     1      -0.574  11.304  19.764  0.00  0.00    +0.000 A 
ATOM     15  C   UNL     1      -1.868  11.672  19.380  0.00  0.00    +0.000 A 
ATOM     16  C   UNL     1      -2.390  11.089  18.248  0.00  0.00    +0.000 A 
ATOM     17  C   UNL     1      -1.673  10.179  17.509  0.00  0.00    +0.000 A 
ATOM     18  C   UNL     1      -0.392   9.804  17.857  0.00  0.00    +0.000 A 
ATOM     19  O   UNL     1      -2.374   9.710  16.442  0.00  0.00    +0.000 OA
ATOM     20  C   UNL     1      -3.617  10.424  16.600  0.00  0.00    +0.000 C 
ATOM     21  O   UNL     1      -3.631  11.310  17.738  0.00  0.00    +0.000 OA
ENDBRANCH  12  13
ENDBRANCH  10  12
ENDBRANCH   5   8
BRANCH   7  22
ATOM     22  S   UNL     1       4.778   3.938  18.509  0.00  0.00    +0.000 S 
ATOM     23  O   UNL     1       5.508   3.007  19.342  0.00  0.00    +0.000 OA
ATOM     24  O   UNL     1       4.423   3.581  17.146  0.00  0.00    +0.000 OA
BRANCH  22  25
ATOM     25  N   UNL     1       5.668   5.405  18.426  0.00  0.00    +0.000 NA
ATOM     26  C   UNL     1       7.055   5.358  18.941  0.00  0.00    +0.000 C 
ATOM     27  C   UNL     1       7.859   6.633  18.729  0.00  0.00    +0.000 C 
ATOM     28  C   UNL     1       7.675   7.198  17.334  0.00  0.00    +0.000 C 
ATOM     29  C   UNL     1       6.205   7.502  17.127  0.00  0.00    +0.000 C 
ATOM     30  C   UNL     1       5.347   6.256  17.261  0.00  0.00    +0.000 C 
ENDBRANCH  22  25
ENDBRANCH   7  22
TORSDOF 5
ENDMDL
MODEL 8
REMARK VINA RESULT:      -8.1      1.242      1.900
REMARK  Name = 
REMARK  6 active torsions:
REMARK  status: ('A' for Active; 'I' for Inactive)
REMARK    1  A    between atoms: C_1  and  C_2
REMARK    2  A    between atoms: C_5  and  C_6
REMARK    3  A    between atoms: N_8  and  C_9
REMARK    4  A    between atoms: C_9  and  C_10
REMARK    5  A    between atoms: C_20  and  S_21
REMARK    6  A    between atoms: S_21  and  N_24
REMARK                            x       y       z     vdW  Elec       q    Type
REMARK                         _______ _______ _______ _____ _____    ______ ____
ROOT
ATOM      1  C   UNL     1       2.370   3.018  21.458  0.00  0.00    +0.000 C 
ATOM      2  C   UNL     1       2.491   4.283  20.657  0.00  0.00    +0.000 A 
ATOM      3  C   UNL     1       1.576   5.323  20.974  0.00  0.00    +0.000 A 
ATOM      4  C   UNL     1       1.565   6.531  20.274  0.00  0.00    +0.000 A 
ATOM      5  C   UNL     1       2.463   6.730  19.227  0.00  0.00    +0.000 A 
ATOM      6  C   UNL     1       3.391   5.729  18.919  0.00  0.00    +0.000 A 
ATOM      7  C   UNL     1       3.425   4.518  19.631  0.00  0.00    +0.000 A 
ENDROOT
BRANCH   5   8
ATOM      8  C   UNL     1       2.438   8.017  18.478  0.00  0.00    +0.000 C 
ATOM      9  O   UNL     1       3.178   8.184  17.513  0.00  0.00    +0.000 OA
ATOM     10  N   UNL     1       1.556   8.965  18.941  0.00  0.00    +0.000 N 
ATOM     11  H   UNL     1       1.205   8.890  19.889  0.00  0.00    +0.000 HD
BRANCH  10  12
ATOM     12  C   UNL     1       1.450  10.262  18.313  0.00  0.00    +0.000 C 
BRANCH  12  13
ATOM     13  C   UNL     1       0.293  11.072  18.852  0.00  0.00    +0.000 A 
ATOM     14  C   UNL     1      -1.052  10.667  18.664  0.00  0.00    +0.000 A 
ATOM     15  C   UNL     1      -2.116  11.452  19.123  0.00  0.00    +0.000 A 
ATOM     16  C   UNL     1      -1.813  12.642  19.744  0.00  0.00    +0.000 A 
ATOM     17  C   UNL     1      -0.514  13.055  19.916  0.00  0.00    +0.000 A 
ATOM     18  C   UNL     1       0.556  12.299  19.483  0.00  0.00    +0.000 A 
ATOM     19  O   UNL     1      -0.432  14.264  20.534  0.00  0.00    +0.000 OA
ATOM     20  C   UNL     1      -1.829  14.567  20.722  0.00  0.00    +0.000 C 
ATOM     21  O   UNL     1      -2.712  13.537  20.233  0.00  0.00    +0.000 OA
ENDBRANCH  12  13
ENDBRANCH  10  12
ENDBRANCH   5   8
BRANCH   7  22
ATOM     22  S   UNL     1       4.596   3.293  18.995  0.00  0.00    +0.000 S 
ATOM     23  O   UNL     1       5.054   2.473  20.096  0.00  0.00    +0.000 OA
ATOM     24  O   UNL     1       3.951   2.683  17.845  0.00  0.00    +0.000 OA
BRANCH  22  25
ATOM     25  N   UNL     1       5.931   4.196  18.400  0.00  0.00    +0.000 NA
ATOM     26  C   UNL     1       5.912   4.518  16.956  0.00  0.00    +0.000 C 
ATOM     27  C   UNL     1       7.035   5.432  16.489  0.00  0.00    +0.000 C 
ATOM     28  C   UNL     1       7.256   6.595  17.438  0.00  0.00    +0.000 C 
ATOM     29  C   UNL     1       7.604   6.043  18.805  0.00  0.00    +0.000 C 
ATOM     30  C   UNL     1       6.494   5.168  19.361  0.00  0.00    +0.000 C 
ENDBRANCH  22  25
ENDBRANCH   7  22
TORSDOF 5
ENDMDL
MODEL 9
REMARK VINA RESULT:      -8.0      1.356      1.468
REMARK  Name = 
REMARK  6 active torsions:
REMARK  status: ('A' for Active; 'I' for Inactive)
REMARK    1  A    between atoms: C_1  and  C_2
REMARK    2  A    between atoms: C_5  and  C_6
REMARK    3  A    between atoms: N_8  and  C_9
REMARK    4  A    between atoms: C_9  and  C_10
REMARK    5  A    between atoms: C_20  and  S_21
REMARK    6  A    between atoms: S_21  and  N_24
REMARK                            x       y       z     vdW  Elec       q    Type
REMARK                         _______ _______ _______ _____ _____    ______ ____
ROOT
ATOM      1  C   UNL     1       1.962   2.030  19.715  0.00  0.00    +0.000 C 
ATOM      2  C   UNL     1       1.995   3.523  19.882  0.00  0.00    +0.000 A 
ATOM      3  C   UNL     1       0.836   4.123  20.443  0.00  0.00    +0.000 A 
ATOM      4  C   UNL     1       0.732   5.505  20.612  0.00  0.00    +0.000 A 
ATOM      5  C   UNL     1       1.782   6.329  20.213  0.00  0.00    +0.000 A 
ATOM      6  C   UNL     1       2.943   5.755  19.685  0.00  0.00    +0.000 A 
ATOM      7  C   UNL     1       3.067   4.363  19.530  0.00  0.00    +0.000 A 
ENDROOT
BRANCH   5   8
ATOM      8  C   UNL     1       1.659   7.803  20.386  0.00  0.00    +0.000 C 
ATOM      9  O   UNL     1       1.550   8.286  21.510  0.00  0.00    +0.000 OA
ATOM     10  N   UNL     1       1.673   8.548  19.230  0.00  0.00    +0.000 N 
ATOM     11  H   UNL     1       1.465   8.093  18.349  0.00  0.00    +0.000 HD
BRANCH  10  12
ATOM     12  C   UNL     1       1.542   9.987  19.262  0.00  0.00    +0.000 C 
BRANCH  12  13
ATOM     13  C   UNL     1       0.111  10.440  19.093  0.00  0.00    +0.000 A 
ATOM     14  C   UNL     1      -0.645  10.109  17.941  0.00  0.00    +0.000 A 
ATOM     15  C   UNL     1      -1.952  10.578  17.772  0.00  0.00    +0.000 A 
ATOM     16  C   UNL     1      -2.473  11.391  18.752  0.00  0.00    +0.000 A 
ATOM     17  C   UNL     1      -1.746  11.735  19.866  0.00  0.00    +0.000 A 
ATOM     18  C   UNL     1      -0.458  11.281  20.065  0.00  0.00    +0.000 A 
ATOM     19  O   UNL     1      -2.433  12.557  20.702  0.00  0.00    +0.000 OA
ATOM     20  C   UNL     1      -3.675  12.698  19.981  0.00  0.00    +0.000 C 
ATOM     21  O   UNL     1      -3.712  11.951  18.748  0.00  0.00    +0.000 OA
ENDBRANCH  12  13
ENDBRANCH  10  12
ENDBRANCH   5   8
BRANCH   7  22
ATOM     22  S   UNL     1       4.581   3.821  18.699  0.00  0.00    +0.000 S 
ATOM     23  O   UNL     1       5.355   3.019  19.621  0.00  0.00    +0.000 OA
ATOM     24  O   UNL     1       4.160   3.270  17.422  0.00  0.00    +0.000 OA
BRANCH  22  25
ATOM     25  N   UNL     1       5.461   5.257  18.359  0.00  0.00    +0.000 NA
ATOM     26  C   UNL     1       6.813   5.351  18.952  0.00  0.00    +0.000 C 
ATOM     27  C   UNL     1       7.617   6.570  18.522  0.00  0.00    +0.000 C 
ATOM     28  C   UNL     1       7.513   6.824  17.030  0.00  0.00    +0.000 C 
ATOM     29  C   UNL     1       6.056   7.044  16.678  0.00  0.00    +0.000 C 
ATOM     30  C   UNL     1       5.203   5.836  17.024  0.00  0.00    +0.000 C 
ENDBRANCH  22  25
ENDBRANCH   7  22
TORSDOF 5
ENDMDL
