MODEL 1
REMARK VINA RESULT:      -8.6      0.000      0.000
REMARK  Name = 
REMARK  4 active torsions:
REMARK  status: ('A' for Active; 'I' for Inactive)
REMARK    1  A    between atoms: C_2  and  C_3
REMARK    2  A    between atoms: C_3  and  N_4
REMARK    3  A    between atoms: C_5  and  C_7
REMARK    4  A    between atoms: N_20  and  C_21
REMARK                            x       y       z     vdW  Elec       q    Type
REMARK                         _______ _______ _______ _____ _____    ______ ____
ROOT
ATOM      1  O   UNL     1       1.271   9.539  23.013  0.00  0.00    +0.000 OA
ATOM      2  C   UNL     1       0.756   9.959  21.971  0.00  0.00    +0.000 C 
ATOM      3  N   UNL     1      -0.184  10.947  22.082  0.00  0.00    +0.000 N 
ATOM      4  C   UNL     1      -1.023  11.421  21.106  0.00  0.00    +0.000 A 
ATOM      5  C   UNL     1      -1.731  12.636  21.173  0.00  0.00    +0.000 A 
ATOM      6  C   UNL     1      -2.376  12.735  19.962  0.00  0.00    +0.000 A 
ATOM      7  N   UNL     1      -2.121  11.565  19.279  0.00  0.00    +0.000 N 
ATOM      8  N   UNL     1      -1.284  10.767  19.979  0.00  0.00    +0.000 NA
ATOM      9  H   UNL     1      -0.258  11.349  23.006  0.00  0.00    +0.000 HD
ENDROOT
BRANCH   7  10
ATOM     10  C   UNL     1      -2.640  11.199  18.006  0.00  0.00    +0.000 A 
ATOM     11  N   UNL     1      -3.858  11.703  17.644  0.00  0.00    +0.000 NA
ATOM     12  C   UNL     1      -4.346  11.332  16.440  0.00  0.00    +0.000 A 
ATOM     13  C   UNL     1      -3.689  10.466  15.576  0.00  0.00    +0.000 A 
ATOM     14  C   UNL     1      -2.454   9.960  15.961  0.00  0.00    +0.000 A 
ATOM     15  C   UNL     1      -1.917  10.332  17.188  0.00  0.00    +0.000 A 
ATOM     16  F   UNL     1      -0.732   9.809  17.534  0.00  0.00    +0.000 F 
ENDBRANCH   7  10
BRANCH   2  17
ATOM     17  C   UNL     1       1.170   9.427  20.591  0.00  0.00    +0.000 C 
BRANCH  17  18
ATOM     18  N   UNL     1       1.414   7.996  20.572  0.00  0.00    +0.000 N 
ATOM     19  C   UNL     1       2.089   7.414  19.527  0.00  0.00    +0.000 C 
ATOM     20  O   UNL     1       2.507   8.040  18.558  0.00  0.00    +0.000 OA
ATOM     21  H   UNL     1       1.192   7.488  21.422  0.00  0.00    +0.000 HD
BRANCH  19  22
ATOM     22  C   UNL     1       2.311   5.947  19.588  0.00  0.00    +0.000 A 
ATOM     23  C   UNL     1       1.922   5.176  20.704  0.00  0.00    +0.000 A 
ATOM     24  C   UNL     1       2.082   3.785  20.696  0.00  0.00    +0.000 A 
ATOM     25  C   UNL     1       2.627   3.208  19.568  0.00  0.00    +0.000 A 
ATOM     26  C   UNL     1       3.002   3.957  18.478  0.00  0.00    +0.000 A 
ATOM     27  C   UNL     1       2.852   5.326  18.452  0.00  0.00    +0.000 A 
ATOM     28  O   UNL     1       3.505   3.195  17.470  0.00  0.00    +0.000 OA
ATOM     29  C   UNL     1       3.440   1.884  18.065  0.00  0.00    +0.000 C 
ATOM     30  O   UNL     1       2.847   1.879  19.381  0.00  0.00    +0.000 OA
ENDBRANCH  19  22
ENDBRANCH  17  18
ENDBRANCH   2  17
TORSDOF 4
ENDMDL
MODEL 2
REMARK VINA RESULT:      -8.5      8.063     10.609
REMARK  Name = 
REMARK  4 active torsions:
REMARK  status: ('A' for Active; 'I' for Inactive)
REMARK    1  A    between atoms: C_2  and  C_3
REMARK    2  A    between atoms: C_3  and  N_4
REMARK    3  A    between atoms: C_5  and  C_7
REMARK    4  A    between atoms: N_20  and  C_21
REMARK                            x       y       z     vdW  Elec       q    Type
REMARK                         _______ _______ _______ _____ _____    ______ ____
ROOT
ATOM      1  O   UNL     1       7.815   5.503  20.719  0.00  0.00    +0.000 OA
ATOM      2  C   UNL     1       7.430   5.513  19.544  0.00  0.00    +0.000 C 
ATOM      3  N   UNL     1       6.321   4.775  19.234  0.00  0.00    +0.000 N 
ATOM      4  C   UNL     1       5.835   4.474  17.987  0.00  0.00    +0.000 A 
ATOM      5  C   UNL     1       4.537   3.998  17.723  0.00  0.00    +0.000 A 
ATOM      6  C   UNL     1       4.467   3.906  16.352  0.00  0.00    +0.000 A 
ATOM      7  N   UNL     1       5.721   4.220  15.869  0.00  0.00    +0.000 N 
ATOM      8  N   UNL     1       6.552   4.577  16.873  0.00  0.00    +0.000 NA
ATOM      9  H   UNL     1       5.828   4.408  20.036  0.00  0.00    +0.000 HD
ENDROOT
BRANCH   7  10
ATOM     10  C   UNL     1       6.134   4.193  14.507  0.00  0.00    +0.000 A 
ATOM     11  N   UNL     1       5.472   3.353  13.657  0.00  0.00    +0.000 NA
ATOM     12  C   UNL     1       5.887   3.324  12.371  0.00  0.00    +0.000 A 
ATOM     13  C   UNL     1       6.944   4.083  11.886  0.00  0.00    +0.000 A 
ATOM     14  C   UNL     1       7.609   4.928  12.766  0.00  0.00    +0.000 A 
ATOM     15  C   UNL     1       7.198   4.991  14.092  0.00  0.00    +0.000 A 
ATOM     16  F   UNL     1       7.875   5.804  14.916  0.00  0.00    +0.000 F 
ENDBRANCH   7  10
BRANCH   2  17
ATOM     17  C   UNL     1       8.139   6.347  18.467  0.00  0.00    +0.000 C 
BRANCH  17  18
ATOM     18  N   UNL     1       8.583   7.647  18.940  0.00  0.00    +0.000 N 
ATOM     19  C   UNL     1       8.345   8.780  18.202  0.00  0.00    +0.000 C 
ATOM     20  O   UNL     1       7.773   8.773  17.117  0.00  0.00    +0.000 OA
ATOM     21  H   UNL     1       8.938   7.684  19.890  0.00  0.00    +0.000 HD
BRANCH  19  22
ATOM     22  C   UNL     1       8.818  10.072  18.760  0.00  0.00    +0.000 A 
ATOM     23  C   UNL     1       9.309  10.183  20.079  0.00  0.00    +0.000 A 
ATOM     24  C   UNL     1       9.813  11.403  20.546  0.00  0.00    +0.000 A 
ATOM     25  C   UNL     1       9.811  12.475  19.678  0.00  0.00    +0.000 A 
ATOM     26  C   UNL     1       9.337  12.366  18.392  0.00  0.00    +0.000 A 
ATOM     27  C   UNL     1       8.841  11.179  17.899  0.00  0.00    +0.000 A 
ATOM     28  O   UNL     1       9.435  13.533  17.701  0.00  0.00    +0.000 OA
ATOM     29  C   UNL     1       9.988  14.400  18.711  0.00  0.00    +0.000 C 
ATOM     30  O   UNL     1      10.267  13.726  19.957  0.00  0.00    +0.000 OA
ENDBRANCH  19  22
ENDBRANCH  17  18
ENDBRANCH   2  17
TORSDOF 4
ENDMDL
MODEL 3
REMARK VINA RESULT:      -8.5      3.745      8.903
REMARK  Name = 
REMARK  4 active torsions:
REMARK  status: ('A' for Active; 'I' for Inactive)
REMARK    1  A    between atoms: C_2  and  C_3
REMARK    2  A    between atoms: C_3  and  N_4
REMARK    3  A    between atoms: C_5  and  C_7
REMARK    4  A    between atoms: N_20  and  C_21
REMARK                            x       y       z     vdW  Elec       q    Type
REMARK                         _______ _______ _______ _____ _____    ______ ____
ROOT
ATOM      1  O   UNL     1       1.041  11.138  18.132  0.00  0.00    +0.000 OA
ATOM      2  C   UNL     1       1.386  10.055  18.616  0.00  0.00    +0.000 C 
ATOM      3  N   UNL     1       2.247   9.281  17.887  0.00  0.00    +0.000 N 
ATOM      4  C   UNL     1       2.605   7.977  18.119  0.00  0.00    +0.000 A 
ATOM      5  C   UNL     1       3.720   7.334  17.547  0.00  0.00    +0.000 A 
ATOM      6  C   UNL     1       3.730   6.079  18.111  0.00  0.00    +0.000 A 
ATOM      7  N   UNL     1       2.598   5.986  18.893  0.00  0.00    +0.000 N 
ATOM      8  N   UNL     1       1.917   7.153  18.903  0.00  0.00    +0.000 NA
ATOM      9  H   UNL     1       2.641   9.744  17.080  0.00  0.00    +0.000 HD
ENDROOT
BRANCH   7  10
ATOM     10  C   UNL     1       2.162   4.840  19.617  0.00  0.00    +0.000 A 
ATOM     11  N   UNL     1       2.539   4.731  20.925  0.00  0.00    +0.000 NA
ATOM     12  C   UNL     1       2.133   3.629  21.594  0.00  0.00    +0.000 A 
ATOM     13  C   UNL     1       1.378   2.615  21.021  0.00  0.00    +0.000 A 
ATOM     14  C   UNL     1       1.007   2.740  19.688  0.00  0.00    +0.000 A 
ATOM     15  C   UNL     1       1.397   3.868  18.975  0.00  0.00    +0.000 A 
ATOM     16  F   UNL     1       1.036   3.946  17.686  0.00  0.00    +0.000 F 
ENDBRANCH   7  10
BRANCH   2  17
ATOM     17  C   UNL     1       0.905   9.595  20.001  0.00  0.00    +0.000 C 
BRANCH  17  18
ATOM     18  N   UNL     1      -0.274  10.304  20.467  0.00  0.00    +0.000 N 
ATOM     19  C   UNL     1      -0.154  11.438  21.232  0.00  0.00    +0.000 C 
ATOM     20  O   UNL     1       0.925  11.909  21.578  0.00  0.00    +0.000 OA
ATOM     21  H   UNL     1      -1.163  10.003  20.082  0.00  0.00    +0.000 HD
BRANCH  19  22
ATOM     22  C   UNL     1      -1.406  12.111  21.659  0.00  0.00    +0.000 A 
ATOM     23  C   UNL     1      -2.035  13.094  20.866  0.00  0.00    +0.000 A 
ATOM     24  C   UNL     1      -3.253  13.657  21.268  0.00  0.00    +0.000 A 
ATOM     25  C   UNL     1      -3.803  13.217  22.454  0.00  0.00    +0.000 A 
ATOM     26  C   UNL     1      -3.193  12.256  23.225  0.00  0.00    +0.000 A 
ATOM     27  C   UNL     1      -1.999  11.678  22.854  0.00  0.00    +0.000 A 
ATOM     28  O   UNL     1      -3.905  11.958  24.345  0.00  0.00    +0.000 OA
ATOM     29  C   UNL     1      -5.013  12.869  24.211  0.00  0.00    +0.000 C 
ATOM     30  O   UNL     1      -4.977  13.643  22.993  0.00  0.00    +0.000 OA
ENDBRANCH  19  22
ENDBRANCH  17  18
ENDBRANCH   2  17
TORSDOF 4
ENDMDL
MODEL 4
REMARK VINA RESULT:      -8.5      2.243      2.843
REMARK  Name = 
REMARK  4 active torsions:
REMARK  status: ('A' for Active; 'I' for Inactive)
REMARK    1  A    between atoms: C_2  and  C_3
REMARK    2  A    between atoms: C_3  and  N_4
REMARK    3  A    between atoms: C_5  and  C_7
REMARK    4  A    between atoms: N_20  and  C_21
REMARK                            x       y       z     vdW  Elec       q    Type
REMARK                         _______ _______ _______ _____ _____    ______ ____
ROOT
ATOM      1  O   UNL     1       1.654   9.231  22.682  0.00  0.00    +0.000 OA
ATOM      2  C   UNL     1       1.125   9.526  21.604  0.00  0.00    +0.000 C 
ATOM      3  N   UNL     1       0.895  10.852  21.353  0.00  0.00    +0.000 N 
ATOM      4  C   UNL     1       0.152  11.396  20.337  0.00  0.00    +0.000 A 
ATOM      5  C   UNL     1       0.209  12.743  19.931  0.00  0.00    +0.000 A 
ATOM      6  C   UNL     1      -0.638  12.821  18.850  0.00  0.00    +0.000 A 
ATOM      7  N   UNL     1      -1.231  11.583  18.719  0.00  0.00    +0.000 N 
ATOM      8  N   UNL     1      -0.737  10.711  19.626  0.00  0.00    +0.000 NA
ATOM      9  H   UNL     1       1.324  11.481  22.017  0.00  0.00    +0.000 HD
ENDROOT
BRANCH   7  10
ATOM     10  C   UNL     1      -2.230  11.219  17.773  0.00  0.00    +0.000 A 
ATOM     11  N   UNL     1      -1.829  10.555  16.648  0.00  0.00    +0.000 NA
ATOM     12  C   UNL     1      -2.786  10.232  15.749  0.00  0.00    +0.000 A 
ATOM     13  C   UNL     1      -4.129  10.550  15.906  0.00  0.00    +0.000 A 
ATOM     14  C   UNL     1      -4.517  11.228  17.054  0.00  0.00    +0.000 A 
ATOM     15  C   UNL     1      -3.560  11.564  18.004  0.00  0.00    +0.000 A 
ATOM     16  F   UNL     1      -3.969  12.235  19.090  0.00  0.00    +0.000 F 
ENDBRANCH   7  10
BRANCH   2  17
ATOM     17  C   UNL     1       0.764   8.460  20.559  0.00  0.00    +0.000 C 
BRANCH  17  18
ATOM     18  N   UNL     1       1.886   8.065  19.726  0.00  0.00    +0.000 N 
ATOM     19  C   UNL     1       2.357   6.775  19.751  0.00  0.00    +0.000 C 
ATOM     20  O   UNL     1       1.889   5.897  20.468  0.00  0.00    +0.000 OA
ATOM     21  H   UNL     1       2.197   8.741  19.037  0.00  0.00    +0.000 HD
BRANCH  19  22
ATOM     22  C   UNL     1       3.500   6.446  18.861  0.00  0.00    +0.000 A 
ATOM     23  C   UNL     1       3.636   7.015  17.577  0.00  0.00    +0.000 A 
ATOM     24  C   UNL     1       4.763   6.736  16.794  0.00  0.00    +0.000 A 
ATOM     25  C   UNL     1       5.720   5.895  17.323  0.00  0.00    +0.000 A 
ATOM     26  C   UNL     1       5.590   5.344  18.575  0.00  0.00    +0.000 A 
ATOM     27  C   UNL     1       4.498   5.604  19.373  0.00  0.00    +0.000 A 
ATOM     28  O   UNL     1       6.647   4.556  18.909  0.00  0.00    +0.000 OA
ATOM     29  C   UNL     1       7.438   4.642  17.708  0.00  0.00    +0.000 C 
ATOM     30  O   UNL     1       6.877   5.522  16.712  0.00  0.00    +0.000 OA
ENDBRANCH  19  22
ENDBRANCH  17  18
ENDBRANCH   2  17
TORSDOF 4
ENDMDL
MODEL 5
REMARK VINA RESULT:      -8.3      3.089      7.947
REMARK  Name = 
REMARK  4 active torsions:
REMARK  status: ('A' for Active; 'I' for Inactive)
REMARK    1  A    between atoms: C_2  and  C_3
REMARK    2  A    between atoms: C_3  and  N_4
REMARK    3  A    between atoms: C_5  and  C_7
REMARK    4  A    between atoms: N_20  and  C_21
REMARK                            x       y       z     vdW  Elec       q    Type
REMARK                         _______ _______ _______ _____ _____    ______ ____
ROOT
ATOM      1  O   UNL     1       1.070   8.874  22.348  0.00  0.00    +0.000 OA
ATOM      2  C   UNL     1       1.386   8.278  21.312  0.00  0.00    +0.000 C 
ATOM      3  N   UNL     1       1.412   6.910  21.351  0.00  0.00    +0.000 N 
ATOM      4  C   UNL     1       1.918   6.053  20.407  0.00  0.00    +0.000 A 
ATOM      5  C   UNL     1       1.636   4.676  20.337  0.00  0.00    +0.000 A 
ATOM      6  C   UNL     1       2.290   4.239  19.208  0.00  0.00    +0.000 A 
ATOM      7  N   UNL     1       3.000   5.316  18.719  0.00  0.00    +0.000 N 
ATOM      8  N   UNL     1       2.762   6.427  19.451  0.00  0.00    +0.000 NA
ATOM      9  H   UNL     1       1.019   6.510  22.192  0.00  0.00    +0.000 HD
ENDROOT
BRANCH   7  10
ATOM     10  C   UNL     1       3.876   5.312  17.597  0.00  0.00    +0.000 A 
ATOM     11  N   UNL     1       4.305   4.103  17.127  0.00  0.00    +0.000 NA
ATOM     12  C   UNL     1       5.151   4.116  16.073  0.00  0.00    +0.000 A 
ATOM     13  C   UNL     1       5.608   5.278  15.467  0.00  0.00    +0.000 A 
ATOM     14  C   UNL     1       5.165   6.498  15.961  0.00  0.00    +0.000 A 
ATOM     15  C   UNL     1       4.284   6.520  17.035  0.00  0.00    +0.000 A 
ATOM     16  F   UNL     1       3.893   7.717  17.497  0.00  0.00    +0.000 F 
ENDBRANCH   7  10
BRANCH   2  17
ATOM     17  C   UNL     1       1.706   9.028  20.011  0.00  0.00    +0.000 C 
BRANCH  17  18
ATOM     18  N   UNL     1       0.536   9.286  19.190  0.00  0.00    +0.000 N 
ATOM     19  C   UNL     1      -0.221  10.415  19.386  0.00  0.00    +0.000 C 
ATOM     20  O   UNL     1       0.019  11.250  20.252  0.00  0.00    +0.000 OA
ATOM     21  H   UNL     1       0.401   8.676  18.391  0.00  0.00    +0.000 HD
BRANCH  19  22
ATOM     22  C   UNL     1      -1.395  10.614  18.498  0.00  0.00    +0.000 A 
ATOM     23  C   UNL     1      -2.453  11.483  18.841  0.00  0.00    +0.000 A 
ATOM     24  C   UNL     1      -3.509  11.700  17.947  0.00  0.00    +0.000 A 
ATOM     25  C   UNL     1      -3.472  11.040  16.736  0.00  0.00    +0.000 A 
ATOM     26  C   UNL     1      -2.439  10.197  16.400  0.00  0.00    +0.000 A 
ATOM     27  C   UNL     1      -1.383   9.967  17.253  0.00  0.00    +0.000 A 
ATOM     28  O   UNL     1      -2.590   9.658  15.161  0.00  0.00    +0.000 OA
ATOM     29  C   UNL     1      -3.855  10.227  14.770  0.00  0.00    +0.000 C 
ATOM     30  O   UNL     1      -4.402  11.137  15.748  0.00  0.00    +0.000 OA
ENDBRANCH  19  22
ENDBRANCH  17  18
ENDBRANCH   2  17
TORSDOF 4
ENDMDL
MODEL 6
REMARK VINA RESULT:      -8.3      3.311      7.982
REMARK  Name = 
REMARK  4 active torsions:
REMARK  status: ('A' for Active; 'I' for Inactive)
REMARK    1  A    between atoms: C_2  and  C_3
REMARK    2  A    between atoms: C_3  and  N_4
REMARK    3  A    between atoms: C_5  and  C_7
REMARK    4  A    between atoms: N_20  and  C_21
REMARK                            x       y       z     vdW  Elec       q    Type
REMARK                         _______ _______ _______ _____ _____    ______ ____
ROOT
ATOM      1  O   UNL     1       1.037   8.935  22.353  0.00  0.00    +0.000 OA
ATOM      2  C   UNL     1       1.360   8.343  21.317  0.00  0.00    +0.000 C 
ATOM      3  N   UNL     1       1.394   6.976  21.353  0.00  0.00    +0.000 N 
ATOM      4  C   UNL     1       1.908   6.124  20.408  0.00  0.00    +0.000 A 
ATOM      5  C   UNL     1       1.635   4.745  20.334  0.00  0.00    +0.000 A 
ATOM      6  C   UNL     1       2.295   4.315  19.206  0.00  0.00    +0.000 A 
ATOM      7  N   UNL     1       3.001   5.397  18.723  0.00  0.00    +0.000 N 
ATOM      8  N   UNL     1       2.754   6.505  19.457  0.00  0.00    +0.000 NA
ATOM      9  H   UNL     1       1.000   6.572  22.191  0.00  0.00    +0.000 HD
ENDROOT
BRANCH   7  10
ATOM     10  C   UNL     1       3.881   5.401  17.605  0.00  0.00    +0.000 A 
ATOM     11  N   UNL     1       4.303   6.611  17.130  0.00  0.00    +0.000 NA
ATOM     12  C   UNL     1       5.124   6.600  16.055  0.00  0.00    +0.000 A 
ATOM     13  C   UNL     1       5.539   5.440  15.415  0.00  0.00    +0.000 A 
ATOM     14  C   UNL     1       5.097   4.219  15.909  0.00  0.00    +0.000 A 
ATOM     15  C   UNL     1       4.263   4.194  17.021  0.00  0.00    +0.000 A 
ATOM     16  F   UNL     1       3.842   2.999  17.458  0.00  0.00    +0.000 F 
ENDBRANCH   7  10
BRANCH   2  17
ATOM     17  C   UNL     1       1.681   9.098  20.018  0.00  0.00    +0.000 C 
BRANCH  17  18
ATOM     18  N   UNL     1       0.515   9.337  19.186  0.00  0.00    +0.000 N 
ATOM     19  C   UNL     1      -0.276  10.441  19.388  0.00  0.00    +0.000 C 
ATOM     20  O   UNL     1      -0.070  11.270  20.269  0.00  0.00    +0.000 OA
ATOM     21  H   UNL     1       0.407   8.735  18.376  0.00  0.00    +0.000 HD
BRANCH  19  22
ATOM     22  C   UNL     1      -1.443  10.622  18.487  0.00  0.00    +0.000 A 
ATOM     23  C   UNL     1      -2.520  11.471  18.819  0.00  0.00    +0.000 A 
ATOM     24  C   UNL     1      -3.569  11.672  17.914  0.00  0.00    +0.000 A 
ATOM     25  C   UNL     1      -3.507  11.014  16.702  0.00  0.00    +0.000 A 
ATOM     26  C   UNL     1      -2.456  10.190  16.377  0.00  0.00    +0.000 A 
ATOM     27  C   UNL     1      -1.405   9.977  17.242  0.00  0.00    +0.000 A 
ATOM     28  O   UNL     1      -2.583   9.650  15.135  0.00  0.00    +0.000 OA
ATOM     29  C   UNL     1      -3.854  10.197  14.731  0.00  0.00    +0.000 C 
ATOM     30  O   UNL     1      -4.427  11.096  15.704  0.00  0.00    +0.000 OA
ENDBRANCH  19  22
ENDBRANCH  17  18
ENDBRANCH   2  17
TORSDOF 4
ENDMDL
MODEL 7
REMARK VINA RESULT:      -8.3      3.514      8.441
REMARK  Name = 
REMARK  4 active torsions:
REMARK  status: ('A' for Active; 'I' for Inactive)
REMARK    1  A    between atoms: C_2  and  C_3
REMARK    2  A    between atoms: C_3  and  N_4
REMARK    3  A    between atoms: C_5  and  C_7
REMARK    4  A    between atoms: N_20  and  C_21
REMARK                            x       y       z     vdW  Elec       q    Type
REMARK                         _______ _______ _______ _____ _____    ______ ____
ROOT
ATOM      1  O   UNL     1       1.108   8.984  22.010  0.00  0.00    +0.000 OA
ATOM      2  C   UNL     1       1.441   8.334  21.012  0.00  0.00    +0.000 C 
ATOM      3  N   UNL     1       1.604   6.984  21.161  0.00  0.00    +0.000 N 
ATOM      4  C   UNL     1       2.155   6.102  20.267  0.00  0.00    +0.000 A 
ATOM      5  C   UNL     1       2.009   4.703  20.323  0.00  0.00    +0.000 A 
ATOM      6  C   UNL     1       2.658   4.236  19.203  0.00  0.00    +0.000 A 
ATOM      7  N   UNL     1       3.239   5.330  18.595  0.00  0.00    +0.000 N 
ATOM      8  N   UNL     1       2.920   6.471  19.245  0.00  0.00    +0.000 NA
ATOM      9  H   UNL     1       1.285   6.622  22.049  0.00  0.00    +0.000 HD
ENDROOT
BRANCH   7  10
ATOM     10  C   UNL     1       4.066   5.314  17.438  0.00  0.00    +0.000 A 
ATOM     11  N   UNL     1       4.472   6.515  16.928  0.00  0.00    +0.000 NA
ATOM     12  C   UNL     1       5.242   6.485  15.817  0.00  0.00    +0.000 A 
ATOM     13  C   UNL     1       5.621   5.314  15.174  0.00  0.00    +0.000 A 
ATOM     14  C   UNL     1       5.196   4.102  15.704  0.00  0.00    +0.000 A 
ATOM     15  C   UNL     1       4.413   4.097  16.853  0.00  0.00    +0.000 A 
ATOM     16  F   UNL     1       4.007   2.910  17.325  0.00  0.00    +0.000 F 
ENDBRANCH   7  10
BRANCH   2  17
ATOM     17  C   UNL     1       1.633   8.997  19.640  0.00  0.00    +0.000 C 
BRANCH  17  18
ATOM     18  N   UNL     1       0.384   9.283  18.956  0.00  0.00    +0.000 N 
ATOM     19  C   UNL     1      -0.232  10.502  19.103  0.00  0.00    +0.000 C 
ATOM     20  O   UNL     1       0.206  11.401  19.814  0.00  0.00    +0.000 OA
ATOM     21  H   UNL     1       0.080   8.603  18.268  0.00  0.00    +0.000 HD
BRANCH  19  22
ATOM     22  C   UNL     1      -1.499  10.722  18.361  0.00  0.00    +0.000 A 
ATOM     23  C   UNL     1      -1.751  10.114  17.113  0.00  0.00    +0.000 A 
ATOM     24  C   UNL     1      -2.985  10.288  16.476  0.00  0.00    +0.000 A 
ATOM     25  C   UNL     1      -3.932  11.067  17.110  0.00  0.00    +0.000 A 
ATOM     26  C   UNL     1      -3.689  11.655  18.329  0.00  0.00    +0.000 A 
ATOM     27  C   UNL     1      -2.488  11.498  18.985  0.00  0.00    +0.000 A 
ATOM     28  O   UNL     1      -4.754  12.368  18.783  0.00  0.00    +0.000 OA
ATOM     29  C   UNL     1      -5.681  12.194  17.694  0.00  0.00    +0.000 C 
ATOM     30  O   UNL     1      -5.181  11.336  16.646  0.00  0.00    +0.000 OA
ENDBRANCH  19  22
ENDBRANCH  17  18
ENDBRANCH   2  17
TORSDOF 4
ENDMDL
MODEL 8
REMARK VINA RESULT:      -8.3      1.167      1.442
REMARK  Name = 
REMARK  4 active torsions:
REMARK  status: ('A' for Active; 'I' for Inactive)
REMARK    1  A    between atoms: C_2  and  C_3
REMARK    2  A    between atoms: C_3  and  N_4
REMARK    3  A    between atoms: C_5  and  C_7
REMARK    4  A    between atoms: N_20  and  C_21
REMARK                            x       y       z     vdW  Elec       q    Type
REMARK                         _______ _______ _______ _____ _____    ______ ____
ROOT
ATOM      1  O   UNL     1       1.641   9.250  22.209  0.00  0.00    +0.000 OA
ATOM      2  C   UNL     1       0.998   9.767  21.289  0.00  0.00    +0.000 C 
ATOM      3  N   UNL     1      -0.058  10.569  21.628  0.00  0.00    +0.000 N 
ATOM      4  C   UNL     1      -1.024  11.078  20.798  0.00  0.00    +0.000 A 
ATOM      5  C   UNL     1      -1.887  12.142  21.125  0.00  0.00    +0.000 A 
ATOM      6  C   UNL     1      -2.627  12.358  19.986  0.00  0.00    +0.000 A 
ATOM      7  N   UNL     1      -2.264  11.379  19.084  0.00  0.00    +0.000 N 
ATOM      8  N   UNL     1      -1.276  10.604  19.583  0.00  0.00    +0.000 NA
ATOM      9  H   UNL     1      -0.118  10.784  22.613  0.00  0.00    +0.000 HD
ENDROOT
BRANCH   7  10
ATOM     10  C   UNL     1      -2.820  11.172  17.791  0.00  0.00    +0.000 A 
ATOM     11  N   UNL     1      -4.045  11.718  17.529  0.00  0.00    +0.000 NA
ATOM     12  C   UNL     1      -4.569  11.497  16.302  0.00  0.00    +0.000 A 
ATOM     13  C   UNL     1      -3.940  10.744  15.320  0.00  0.00    +0.000 A 
ATOM     14  C   UNL     1      -2.697  10.193  15.606  0.00  0.00    +0.000 A 
ATOM     15  C   UNL     1      -2.124  10.412  16.853  0.00  0.00    +0.000 A 
ATOM     16  F   UNL     1      -0.932   9.850  17.099  0.00  0.00    +0.000 F 
ENDBRANCH   7  10
BRANCH   2  17
ATOM     17  C   UNL     1       1.378   9.558  19.816  0.00  0.00    +0.000 C 
BRANCH  17  18
ATOM     18  N   UNL     1       1.859   8.218  19.529  0.00  0.00    +0.000 N 
ATOM     19  C   UNL     1       2.347   7.900  18.285  0.00  0.00    +0.000 C 
ATOM     20  O   UNL     1       2.394   8.697  17.353  0.00  0.00    +0.000 OA
ATOM     21  H   UNL     1       1.947   7.590  20.320  0.00  0.00    +0.000 HD
BRANCH  19  22
ATOM     22  C   UNL     1       2.831   6.513  18.073  0.00  0.00    +0.000 A 
ATOM     23  C   UNL     1       4.202   6.211  17.935  0.00  0.00    +0.000 A 
ATOM     24  C   UNL     1       4.627   4.883  17.808  0.00  0.00    +0.000 A 
ATOM     25  C   UNL     1       3.663   3.896  17.822  0.00  0.00    +0.000 A 
ATOM     26  C   UNL     1       2.327   4.189  17.961  0.00  0.00    +0.000 A 
ATOM     27  C   UNL     1       1.877   5.484  18.095  0.00  0.00    +0.000 A 
ATOM     28  O   UNL     1       1.548   3.074  17.961  0.00  0.00    +0.000 OA
ATOM     29  C   UNL     1       2.542   2.049  17.768  0.00  0.00    +0.000 C 
ATOM     30  O   UNL     1       3.891   2.559  17.719  0.00  0.00    +0.000 OA
ENDBRANCH  19  22
ENDBRANCH  17  18
ENDBRANCH   2  17
TORSDOF 4
ENDMDL
MODEL 9
REMARK VINA RESULT:      -8.3      1.075      1.302
REMARK  Name = 
REMARK  4 active torsions:
REMARK  status: ('A' for Active; 'I' for Inactive)
REMARK    1  A    between atoms: C_2  and  C_3
REMARK    2  A    between atoms: C_3  and  N_4
REMARK    3  A    between atoms: C_5  and  C_7
REMARK    4  A    between atoms: N_20  and  C_21
REMARK                            x       y       z     vdW  Elec       q    Type
REMARK                         _______ _______ _______ _____ _____    ______ ____
ROOT
ATOM      1  O   UNL     1       1.589   9.602  22.717  0.00  0.00    +0.000 OA
ATOM      2  C   UNL     1       1.013   9.999  21.698  0.00  0.00    +0.000 C 
ATOM      3  N   UNL     1       0.120  11.028  21.836  0.00  0.00    +0.000 N 
ATOM      4  C   UNL     1      -0.771  11.494  20.905  0.00  0.00    +0.000 A 
ATOM      5  C   UNL     1      -1.429  12.738  20.972  0.00  0.00    +0.000 A 
ATOM      6  C   UNL     1      -2.159  12.814  19.809  0.00  0.00    +0.000 A 
ATOM      7  N   UNL     1      -1.999  11.607  19.159  0.00  0.00    +0.000 N 
ATOM      8  N   UNL     1      -1.141  10.807  19.830  0.00  0.00    +0.000 NA
ATOM      9  H   UNL     1       0.131  11.468  22.745  0.00  0.00    +0.000 HD
ENDROOT
BRANCH   7  10
ATOM     10  C   UNL     1      -2.625  11.211  17.945  0.00  0.00    +0.000 A 
ATOM     11  N   UNL     1      -1.858  10.573  17.011  0.00  0.00    +0.000 NA
ATOM     12  C   UNL     1      -2.462  10.219  15.854  0.00  0.00    +0.000 A 
ATOM     13  C   UNL     1      -3.795  10.482  15.570  0.00  0.00    +0.000 A 
ATOM     14  C   UNL     1      -4.558  11.135  16.529  0.00  0.00    +0.000 A 
ATOM     15  C   UNL     1      -3.972  11.502  17.735  0.00  0.00    +0.000 A 
ATOM     16  F   UNL     1      -4.734  12.147  18.629  0.00  0.00    +0.000 F 
ENDBRANCH   7  10
BRANCH   2  17
ATOM     17  C   UNL     1       1.303   9.397  20.316  0.00  0.00    +0.000 C 
BRANCH  17  18
ATOM     18  N   UNL     1       1.448   7.952  20.333  0.00  0.00    +0.000 N 
ATOM     19  C   UNL     1       2.183   7.310  19.368  0.00  0.00    +0.000 C 
ATOM     20  O   UNL     1       2.739   7.892  18.441  0.00  0.00    +0.000 OA
ATOM     21  H   UNL     1       1.106   7.474  21.160  0.00  0.00    +0.000 HD
BRANCH  19  22
ATOM     22  C   UNL     1       2.295   5.833  19.461  0.00  0.00    +0.000 A 
ATOM     23  C   UNL     1       1.627   5.094  20.461  0.00  0.00    +0.000 A 
ATOM     24  C   UNL     1       1.698   3.695  20.475  0.00  0.00    +0.000 A 
ATOM     25  C   UNL     1       2.438   3.079  19.487  0.00  0.00    +0.000 A 
ATOM     26  C   UNL     1       3.085   3.798  18.510  0.00  0.00    +0.000 A 
ATOM     27  C   UNL     1       3.029   5.174  18.464  0.00  0.00    +0.000 A 
ATOM     28  O   UNL     1       3.746   3.001  17.629  0.00  0.00    +0.000 OA
ATOM     29  C   UNL     1       3.473   1.700  18.184  0.00  0.00    +0.000 C 
ATOM     30  O   UNL     1       2.610   1.738  19.340  0.00  0.00    +0.000 OA
ENDBRANCH  19  22
ENDBRANCH  17  18
ENDBRANCH   2  17
TORSDOF 4
ENDMDL
