MODEL 1
REMARK VINA RESULT:      -8.8      0.000      0.000
REMARK  Name = 
REMARK  7 active torsions:
REMARK  status: ('A' for Active; 'I' for Inactive)
REMARK    1  A    between atoms: C_1  and  C_2
REMARK    2  A    between atoms: C_2  and  S_3
REMARK    3  A    between atoms: C_2  and  C_10
REMARK    4  A    between atoms: S_3  and  C_4
REMARK    5  A    between atoms: N_8  and  C_9
REMARK    6  A    between atoms: C_14  and  N_15
REMARK    7  A    between atoms: C_16  and  C_18
REMARK                            x       y       z     vdW  Elec       q    Type
REMARK                         _______ _______ _______ _____ _____    ______ ____
ROOT
ATOM      1  C   UNL     1       6.217   6.187  17.533  0.00  0.00    +0.000 A 
ATOM      2  C   UNL     1       6.813   5.337  18.477  0.00  0.00    +0.000 A 
ATOM      3  C   UNL     1       7.910   5.769  19.229  0.00  0.00    +0.000 A 
ATOM      4  C   UNL     1       8.459   7.035  19.027  0.00  0.00    +0.000 A 
ATOM      5  C   UNL     1       7.892   7.888  18.084  0.00  0.00    +0.000 A 
ATOM      6  C   UNL     1       6.764   7.467  17.366  0.00  0.00    +0.000 A 
ENDROOT
BRANCH   5   7
ATOM      7  N   UNL     1       8.393   9.165  17.766  0.00  0.00    +0.000 N 
ATOM      8  C   UNL     1       8.940  10.111  18.617  0.00  0.00    +0.000 C 
ATOM      9  O   UNL     1       9.174  10.027  19.814  0.00  0.00    +0.000 OA
ATOM     10  H   UNL     1       8.316   9.421  16.791  0.00  0.00    +0.000 HD
BRANCH   8  11
ATOM     11  C   UNL     1       9.155  11.405  17.900  0.00  0.00    +0.000 A 
ATOM     12  C   UNL     1       8.032  12.203  17.593  0.00  0.00    +0.000 A 
ATOM     13  C   UNL     1       8.135  13.606  17.600  0.00  0.00    +0.000 A 
ATOM     14  C   UNL     1       9.309  14.209  18.059  0.00  0.00    +0.000 A 
ATOM     15  C   UNL     1      10.390  13.398  18.367  0.00  0.00    +0.000 A 
ATOM     16  C   UNL     1      10.368  12.025  18.110  0.00  0.00    +0.000 A 
ATOM     17  C   UNL     1      11.719  11.443  18.403  0.00  0.00    +0.000 C 
ATOM     18  C   UNL     1      12.087  12.316  19.590  0.00  0.00    +0.000 C 
ATOM     19  C   UNL     1      11.598  13.729  19.206  0.00  0.00    +0.000 C 
ENDBRANCH   8  11
ENDBRANCH   5   7
BRANCH   1  21
ATOM     20  C   UNL     1       5.369   5.899  15.154  0.00  0.00    +0.000 C 
ATOM     21  C   UNL     1       5.078   5.680  16.646  0.00  0.00    +0.000 C 
BRANCH  21  22
ATOM     22  S   UNL     1       4.802   3.908  17.057  0.00  0.00    +0.000 S 
BRANCH  22  23
ATOM     23  C   UNL     1       3.176   3.870  17.607  0.00  0.00    +0.000 A 
ATOM     24  N   UNL     1       2.125   3.359  16.983  0.00  0.00    +0.000 NA
ATOM     25  N   UNL     1       1.038   3.435  17.848  0.00  0.00    +0.000 NA
ATOM     26  C   UNL     1       1.456   4.010  18.941  0.00  0.00    +0.000 A 
ATOM     27  N   UNL     1       2.765   4.342  18.813  0.00  0.00    +0.000 N 
ATOM     28  C   UNL     1       3.536   5.085  19.789  0.00  0.00    +0.000 C 
ENDBRANCH  22  23
ENDBRANCH  21  22
ENDBRANCH   1  21
TORSDOF 5
ENDMDL
MODEL 2
REMARK VINA RESULT:      -8.8      2.647      3.584
REMARK  Name = 
REMARK  7 active torsions:
REMARK  status: ('A' for Active; 'I' for Inactive)
REMARK    1  A    between atoms: C_1  and  C_2
REMARK    2  A    between atoms: C_2  and  S_3
REMARK    3  A    between atoms: C_2  and  C_10
REMARK    4  A    between atoms: S_3  and  C_4
REMARK    5  A    between atoms: N_8  and  C_9
REMARK    6  A    between atoms: C_14  and  N_15
REMARK    7  A    between atoms: C_16  and  C_18
REMARK                            x       y       z     vdW  Elec       q    Type
REMARK                         _______ _______ _______ _____ _____    ______ ____
ROOT
ATOM      1  C   UNL     1       6.309   6.126  17.358  0.00  0.00    +0.000 A 
ATOM      2  C   UNL     1       6.833   5.299  18.363  0.00  0.00    +0.000 A 
ATOM      3  C   UNL     1       7.851   5.761  19.204  0.00  0.00    +0.000 A 
ATOM      4  C   UNL     1       8.394   7.035  19.033  0.00  0.00    +0.000 A 
ATOM      5  C   UNL     1       7.898   7.865  18.031  0.00  0.00    +0.000 A 
ATOM      6  C   UNL     1       6.846   7.414  17.222  0.00  0.00    +0.000 A 
ENDROOT
BRANCH   5   7
ATOM      7  N   UNL     1       8.402   9.147  17.741  0.00  0.00    +0.000 N 
ATOM      8  C   UNL     1       8.981  10.060  18.606  0.00  0.00    +0.000 C 
ATOM      9  O   UNL     1       9.247   9.936  19.794  0.00  0.00    +0.000 OA
ATOM     10  H   UNL     1       8.302   9.435  16.777  0.00  0.00    +0.000 HD
BRANCH   8  11
ATOM     11  C   UNL     1       9.189  11.374  17.925  0.00  0.00    +0.000 A 
ATOM     12  C   UNL     1       8.058  12.139  17.570  0.00  0.00    +0.000 A 
ATOM     13  C   UNL     1       8.110  13.544  17.607  0.00  0.00    +0.000 A 
ATOM     14  C   UNL     1       9.234  14.179  18.142  0.00  0.00    +0.000 A 
ATOM     15  C   UNL     1      10.324  13.400  18.496  0.00  0.00    +0.000 A 
ATOM     16  C   UNL     1      10.366  12.033  18.215  0.00  0.00    +0.000 A 
ATOM     17  C   UNL     1      11.719  11.492  18.573  0.00  0.00    +0.000 C 
ATOM     18  C   UNL     1      11.989  12.354  19.794  0.00  0.00    +0.000 C 
ATOM     19  C   UNL     1      11.471  13.757  19.408  0.00  0.00    +0.000 C 
ENDBRANCH   8  11
ENDBRANCH   5   7
BRANCH   1  21
ATOM     20  C   UNL     1       4.862   6.633  15.331  0.00  0.00    +0.000 C 
ATOM     21  C   UNL     1       5.263   5.586  16.381  0.00  0.00    +0.000 C 
BRANCH  21  22
ATOM     22  S   UNL     1       5.948   4.056  15.624  0.00  0.00    +0.000 S 
BRANCH  22  23
ATOM     23  C   UNL     1       6.800   4.633  14.249  0.00  0.00    +0.000 A 
ATOM     24  N   UNL     1       7.795   5.508  14.226  0.00  0.00    +0.000 NA
ATOM     25  N   UNL     1       8.264   5.583  12.919  0.00  0.00    +0.000 NA
ATOM     26  C   UNL     1       7.528   4.784  12.199  0.00  0.00    +0.000 A 
ATOM     27  N   UNL     1       6.575   4.214  12.977  0.00  0.00    +0.000 N 
ATOM     28  C   UNL     1       5.517   3.347  12.498  0.00  0.00    +0.000 C 
ENDBRANCH  22  23
ENDBRANCH  21  22
ENDBRANCH   1  21
TORSDOF 5
ENDMDL
MODEL 3
REMARK VINA RESULT:      -8.5      1.120      1.368
REMARK  Name = 
REMARK  7 active torsions:
REMARK  status: ('A' for Active; 'I' for Inactive)
REMARK    1  A    between atoms: C_1  and  C_2
REMARK    2  A    between atoms: C_2  and  S_3
REMARK    3  A    between atoms: C_2  and  C_10
REMARK    4  A    between atoms: S_3  and  C_4
REMARK    5  A    between atoms: N_8  and  C_9
REMARK    6  A    between atoms: C_14  and  N_15
REMARK    7  A    between atoms: C_16  and  C_18
REMARK                            x       y       z     vdW  Elec       q    Type
REMARK                         _______ _______ _______ _____ _____    ______ ____
ROOT
ATOM      1  C   UNL     1       6.245   6.318  17.218  0.00  0.00    +0.000 A 
ATOM      2  C   UNL     1       6.740   5.422  18.178  0.00  0.00    +0.000 A 
ATOM      3  C   UNL     1       7.782   5.798  19.031  0.00  0.00    +0.000 A 
ATOM      4  C   UNL     1       8.378   7.054  18.917  0.00  0.00    +0.000 A 
ATOM      5  C   UNL     1       7.913   7.952  17.960  0.00  0.00    +0.000 A 
ATOM      6  C   UNL     1       6.837   7.586  17.139  0.00  0.00    +0.000 A 
ENDROOT
BRANCH   5   7
ATOM      7  N   UNL     1       8.471   9.223  17.726  0.00  0.00    +0.000 N 
ATOM      8  C   UNL     1       8.965  10.129  18.651  0.00  0.00    +0.000 C 
ATOM      9  O   UNL     1       9.093  10.004  19.861  0.00  0.00    +0.000 OA
ATOM     10  H   UNL     1       8.486   9.510  16.758  0.00  0.00    +0.000 HD
BRANCH   8  11
ATOM     11  C   UNL     1       9.274  11.437  17.996  0.00  0.00    +0.000 A 
ATOM     12  C   UNL     1       8.207  12.309  17.691  0.00  0.00    +0.000 A 
ATOM     13  C   UNL     1       8.387  13.702  17.761  0.00  0.00    +0.000 A 
ATOM     14  C   UNL     1       9.577  14.219  18.279  0.00  0.00    +0.000 A 
ATOM     15  C   UNL     1      10.602  13.336  18.584  0.00  0.00    +0.000 A 
ATOM     16  C   UNL     1      10.513  11.978  18.268  0.00  0.00    +0.000 A 
ATOM     17  C   UNL     1      11.819  11.309  18.575  0.00  0.00    +0.000 C 
ATOM     18  C   UNL     1      12.197  12.111  19.809  0.00  0.00    +0.000 C 
ATOM     19  C   UNL     1      11.799  13.564  19.471  0.00  0.00    +0.000 C 
ENDBRANCH   8  11
ENDBRANCH   5   7
BRANCH   1  21
ATOM     20  C   UNL     1       5.778   5.258  14.955  0.00  0.00    +0.000 C 
ATOM     21  C   UNL     1       5.171   5.871  16.225  0.00  0.00    +0.000 C 
BRANCH  21  22
ATOM     22  S   UNL     1       4.053   4.704  17.105  0.00  0.00    +0.000 S 
BRANCH  22  23
ATOM     23  C   UNL     1       3.282   5.693  18.279  0.00  0.00    +0.000 A 
ATOM     24  N   UNL     1       2.944   6.968  18.162  0.00  0.00    +0.000 NA
ATOM     25  N   UNL     1       2.232   7.325  19.303  0.00  0.00    +0.000 NA
ATOM     26  C   UNL     1       2.191   6.275  20.074  0.00  0.00    +0.000 A 
ATOM     27  N   UNL     1       2.874   5.255  19.499  0.00  0.00    +0.000 N 
ATOM     28  C   UNL     1       3.123   3.967  20.113  0.00  0.00    +0.000 C 
ENDBRANCH  22  23
ENDBRANCH  21  22
ENDBRANCH   1  21
TORSDOF 5
ENDMDL
MODEL 4
REMARK VINA RESULT:      -8.2      6.155      9.266
REMARK  Name = 
REMARK  7 active torsions:
REMARK  status: ('A' for Active; 'I' for Inactive)
REMARK    1  A    between atoms: C_1  and  C_2
REMARK    2  A    between atoms: C_2  and  S_3
REMARK    3  A    between atoms: C_2  and  C_10
REMARK    4  A    between atoms: S_3  and  C_4
REMARK    5  A    between atoms: N_8  and  C_9
REMARK    6  A    between atoms: C_14  and  N_15
REMARK    7  A    between atoms: C_16  and  C_18
REMARK                            x       y       z     vdW  Elec       q    Type
REMARK                         _______ _______ _______ _____ _____    ______ ____
ROOT
ATOM      1  C   UNL     1       0.018  10.585  20.187  0.00  0.00    +0.000 A 
ATOM      2  C   UNL     1      -0.261  10.741  21.553  0.00  0.00    +0.000 A 
ATOM      3  C   UNL     1       0.258   9.843  22.491  0.00  0.00    +0.000 A 
ATOM      4  C   UNL     1       1.025   8.751  22.085  0.00  0.00    +0.000 A 
ATOM      5  C   UNL     1       1.300   8.569  20.732  0.00  0.00    +0.000 A 
ATOM      6  C   UNL     1       0.817   9.499  19.801  0.00  0.00    +0.000 A 
ENDROOT
BRANCH   5   7
ATOM      7  N   UNL     1       2.022   7.480  20.208  0.00  0.00    +0.000 N 
ATOM      8  C   UNL     1       2.303   7.192  18.882  0.00  0.00    +0.000 C 
ATOM      9  O   UNL     1       2.051   7.847  17.881  0.00  0.00    +0.000 OA
ATOM     10  H   UNL     1       2.353   6.819  20.896  0.00  0.00    +0.000 HD
BRANCH   8  11
ATOM     11  C   UNL     1       2.917   5.835  18.755  0.00  0.00    +0.000 A 
ATOM     12  C   UNL     1       2.083   4.702  18.862  0.00  0.00    +0.000 A 
ATOM     13  C   UNL     1       2.355   3.546  18.109  0.00  0.00    +0.000 A 
ATOM     14  C   UNL     1       3.364   3.575  17.142  0.00  0.00    +0.000 A 
ATOM     15  C   UNL     1       4.158   4.707  17.051  0.00  0.00    +0.000 A 
ATOM     16  C   UNL     1       4.051   5.749  17.975  0.00  0.00    +0.000 A 
ATOM     17  C   UNL     1       5.130   6.758  17.715  0.00  0.00    +0.000 C 
ATOM     18  C   UNL     1       5.172   6.655  16.200  0.00  0.00    +0.000 C 
ATOM     19  C   UNL     1       5.032   5.146  15.904  0.00  0.00    +0.000 C 
ENDBRANCH   8  11
ENDBRANCH   5   7
BRANCH   1  21
ATOM     20  C   UNL     1       0.365  12.555  18.619  0.00  0.00    +0.000 C 
ATOM     21  C   UNL     1      -0.627  11.513  19.155  0.00  0.00    +0.000 C 
BRANCH  21  22
ATOM     22  S   UNL     1      -1.327  10.457  17.821  0.00  0.00    +0.000 S 
BRANCH  22  23
ATOM     23  C   UNL     1      -2.940  11.027  17.660  0.00  0.00    +0.000 A 
ATOM     24  N   UNL     1      -3.698  11.573  18.599  0.00  0.00    +0.000 NA
ATOM     25  N   UNL     1      -4.877  12.000  17.997  0.00  0.00    +0.000 NA
ATOM     26  C   UNL     1      -4.806  11.674  16.737  0.00  0.00    +0.000 A 
ATOM     27  N   UNL     1      -3.641  11.023  16.497  0.00  0.00    +0.000 N 
ATOM     28  C   UNL     1      -3.264  10.425  15.231  0.00  0.00    +0.000 C 
ENDBRANCH  22  23
ENDBRANCH  21  22
ENDBRANCH   1  21
TORSDOF 5
ENDMDL
MODEL 5
REMARK VINA RESULT:      -8.2      6.120      9.427
REMARK  Name = 
REMARK  7 active torsions:
REMARK  status: ('A' for Active; 'I' for Inactive)
REMARK    1  A    between atoms: C_1  and  C_2
REMARK    2  A    between atoms: C_2  and  S_3
REMARK    3  A    between atoms: C_2  and  C_10
REMARK    4  A    between atoms: S_3  and  C_4
REMARK    5  A    between atoms: N_8  and  C_9
REMARK    6  A    between atoms: C_14  and  N_15
REMARK    7  A    between atoms: C_16  and  C_18
REMARK                            x       y       z     vdW  Elec       q    Type
REMARK                         _______ _______ _______ _____ _____    ______ ____
ROOT
ATOM      1  C   UNL     1      -0.018  10.225  20.000  0.00  0.00    +0.000 A 
ATOM      2  C   UNL     1      -0.298  10.063  21.365  0.00  0.00    +0.000 A 
ATOM      3  C   UNL     1       0.365   9.086  22.115  0.00  0.00    +0.000 A 
ATOM      4  C   UNL     1       1.283   8.227  21.513  0.00  0.00    +0.000 A 
ATOM      5  C   UNL     1       1.563   8.361  20.155  0.00  0.00    +0.000 A 
ATOM      6  C   UNL     1       0.931   9.372  19.419  0.00  0.00    +0.000 A 
ENDROOT
BRANCH   5   7
ATOM      7  N   UNL     1       2.435   7.520  19.437  0.00  0.00    +0.000 N 
ATOM      8  C   UNL     1       2.772   7.576  18.095  0.00  0.00    +0.000 C 
ATOM      9  O   UNL     1       2.449   8.400  17.252  0.00  0.00    +0.000 OA
ATOM     10  H   UNL     1       2.842   6.769  19.977  0.00  0.00    +0.000 HD
BRANCH   8  11
ATOM     11  C   UNL     1       3.568   6.373  17.700  0.00  0.00    +0.000 A 
ATOM     12  C   UNL     1       4.975   6.437  17.778  0.00  0.00    +0.000 A 
ATOM     13  C   UNL     1       5.721   5.294  18.120  0.00  0.00    +0.000 A 
ATOM     14  C   UNL     1       5.056   4.136  18.531  0.00  0.00    +0.000 A 
ATOM     15  C   UNL     1       3.673   4.108  18.458  0.00  0.00    +0.000 A 
ATOM     16  C   UNL     1       2.952   5.151  17.872  0.00  0.00    +0.000 A 
ATOM     17  C   UNL     1       1.502   4.775  17.801  0.00  0.00    +0.000 C 
ATOM     18  C   UNL     1       1.409   3.990  19.099  0.00  0.00    +0.000 C 
ATOM     19  C   UNL     1       2.719   3.174  19.159  0.00  0.00    +0.000 C 
ENDBRANCH   8  11
ENDBRANCH   5   7
BRANCH   1  21
ATOM     20  C   UNL     1       0.055  12.417  18.714  0.00  0.00    +0.000 C 
ATOM     21  C   UNL     1      -0.811  11.231  19.162  0.00  0.00    +0.000 C 
BRANCH  21  22
ATOM     22  S   UNL     1      -1.541  10.316  17.742  0.00  0.00    +0.000 S 
BRANCH  22  23
ATOM     23  C   UNL     1      -3.117  10.985  17.599  0.00  0.00    +0.000 A 
ATOM     24  N   UNL     1      -3.867  11.494  18.564  0.00  0.00    +0.000 NA
ATOM     25  N   UNL     1      -5.007  12.032  17.977  0.00  0.00    +0.000 NA
ATOM     26  C   UNL     1      -4.923  11.806  16.696  0.00  0.00    +0.000 A 
ATOM     27  N   UNL     1      -3.790  11.113  16.426  0.00  0.00    +0.000 N 
ATOM     28  C   UNL     1      -3.416  10.601  15.123  0.00  0.00    +0.000 C 
ENDBRANCH  22  23
ENDBRANCH  21  22
ENDBRANCH   1  21
TORSDOF 5
ENDMDL
MODEL 6
REMARK VINA RESULT:      -8.0      0.765      1.155
REMARK  Name = 
REMARK  7 active torsions:
REMARK  status: ('A' for Active; 'I' for Inactive)
REMARK    1  A    between atoms: C_1  and  C_2
REMARK    2  A    between atoms: C_2  and  S_3
REMARK    3  A    between atoms: C_2  and  C_10
REMARK    4  A    between atoms: S_3  and  C_4
REMARK    5  A    between atoms: N_8  and  C_9
REMARK    6  A    between atoms: C_14  and  N_15
REMARK    7  A    between atoms: C_16  and  C_18
REMARK                            x       y       z     vdW  Elec       q    Type
REMARK                         _______ _______ _______ _____ _____    ______ ____
ROOT
ATOM      1  C   UNL     1       6.114   6.261  17.657  0.00  0.00    +0.000 A 
ATOM      2  C   UNL     1       6.742   5.365  18.535  0.00  0.00    +0.000 A 
ATOM      3  C   UNL     1       7.904   5.737  19.220  0.00  0.00    +0.000 A 
ATOM      4  C   UNL     1       8.483   6.989  19.012  0.00  0.00    +0.000 A 
ATOM      5  C   UNL     1       7.884   7.887  18.133  0.00  0.00    +0.000 A 
ATOM      6  C   UNL     1       6.695   7.526  17.485  0.00  0.00    +0.000 A 
ENDROOT
BRANCH   5   7
ATOM      7  N   UNL     1       8.407   9.154  17.813  0.00  0.00    +0.000 N 
ATOM      8  C   UNL     1       8.978  10.088  18.662  0.00  0.00    +0.000 C 
ATOM      9  O   UNL     1       9.218   9.999  19.858  0.00  0.00    +0.000 OA
ATOM     10  H   UNL     1       8.330   9.413  16.840  0.00  0.00    +0.000 HD
BRANCH   8  11
ATOM     11  C   UNL     1       9.214  11.379  17.945  0.00  0.00    +0.000 A 
ATOM     12  C   UNL     1       8.100  12.170  17.591  0.00  0.00    +0.000 A 
ATOM     13  C   UNL     1       8.196  13.573  17.593  0.00  0.00    +0.000 A 
ATOM     14  C   UNL     1       9.349  14.184  18.092  0.00  0.00    +0.000 A 
ATOM     15  C   UNL     1      10.421  13.380  18.446  0.00  0.00    +0.000 A 
ATOM     16  C   UNL     1      10.416  12.006  18.197  0.00  0.00    +0.000 A 
ATOM     17  C   UNL     1      11.757  11.432  18.544  0.00  0.00    +0.000 C 
ATOM     18  C   UNL     1      12.077  12.315  19.739  0.00  0.00    +0.000 C 
ATOM     19  C   UNL     1      11.595  13.723  19.327  0.00  0.00    +0.000 C 
ENDBRANCH   8  11
ENDBRANCH   5   7
BRANCH   1  21
ATOM     20  C   UNL     1       4.919   6.399  15.417  0.00  0.00    +0.000 C 
ATOM     21  C   UNL     1       4.899   5.818  16.839  0.00  0.00    +0.000 C 
BRANCH  21  22
ATOM     22  S   UNL     1       4.865   3.979  16.847  0.00  0.00    +0.000 S 
BRANCH  22  23
ATOM     23  C   UNL     1       3.993   3.598  18.277  0.00  0.00    +0.000 A 
ATOM     24  N   UNL     1       4.453   3.001  19.367  0.00  0.00    +0.000 NA
ATOM     25  N   UNL     1       3.438   3.012  20.318  0.00  0.00    +0.000 NA
ATOM     26  C   UNL     1       2.402   3.581  19.768  0.00  0.00    +0.000 A 
ATOM     27  N   UNL     1       2.688   3.914  18.485  0.00  0.00    +0.000 N 
ATOM     28  C   UNL     1       1.745   4.473  17.538  0.00  0.00    +0.000 C 
ENDBRANCH  22  23
ENDBRANCH  21  22
ENDBRANCH   1  21
TORSDOF 5
ENDMDL
MODEL 7
REMARK VINA RESULT:      -8.0      6.359      9.826
REMARK  Name = 
REMARK  7 active torsions:
REMARK  status: ('A' for Active; 'I' for Inactive)
REMARK    1  A    between atoms: C_1  and  C_2
REMARK    2  A    between atoms: C_2  and  S_3
REMARK    3  A    between atoms: C_2  and  C_10
REMARK    4  A    between atoms: S_3  and  C_4
REMARK    5  A    between atoms: N_8  and  C_9
REMARK    6  A    between atoms: C_14  and  N_15
REMARK    7  A    between atoms: C_16  and  C_18
REMARK                            x       y       z     vdW  Elec       q    Type
REMARK                         _______ _______ _______ _____ _____    ______ ____
ROOT
ATOM      1  C   UNL     1       0.439  10.807  20.239  0.00  0.00    +0.000 A 
ATOM      2  C   UNL     1       0.338  10.556  21.616  0.00  0.00    +0.000 A 
ATOM      3  C   UNL     1       0.811   9.355  22.156  0.00  0.00    +0.000 A 
ATOM      4  C   UNL     1       1.351   8.368  21.333  0.00  0.00    +0.000 A 
ATOM      5  C   UNL     1       1.446   8.591  19.961  0.00  0.00    +0.000 A 
ATOM      6  C   UNL     1       1.014   9.815  19.432  0.00  0.00    +0.000 A 
ENDROOT
BRANCH   5   7
ATOM      7  N   UNL     1       1.929   7.647  19.035  0.00  0.00    +0.000 N 
ATOM      8  C   UNL     1       2.480   6.401  19.284  0.00  0.00    +0.000 C 
ATOM      9  O   UNL     1       2.607   5.813  20.349  0.00  0.00    +0.000 OA
ATOM     10  H   UNL     1       1.883   7.938  18.069  0.00  0.00    +0.000 HD
BRANCH   8  11
ATOM     11  C   UNL     1       3.048   5.815  18.032  0.00  0.00    +0.000 A 
ATOM     12  C   UNL     1       4.326   6.236  17.607  0.00  0.00    +0.000 A 
ATOM     13  C   UNL     1       5.191   5.336  16.958  0.00  0.00    +0.000 A 
ATOM     14  C   UNL     1       4.842   3.986  16.870  0.00  0.00    +0.000 A 
ATOM     15  C   UNL     1       3.585   3.600  17.309  0.00  0.00    +0.000 A 
ATOM     16  C   UNL     1       2.633   4.539  17.712  0.00  0.00    +0.000 A 
ATOM     17  C   UNL     1       1.333   3.843  17.985  0.00  0.00    +0.000 C 
ATOM     18  C   UNL     1       1.886   2.549  18.556  0.00  0.00    +0.000 C 
ATOM     19  C   UNL     1       3.106   2.217  17.669  0.00  0.00    +0.000 C 
ENDBRANCH   8  11
ENDBRANCH   5   7
BRANCH   1  21
ATOM     20  C   UNL     1       0.917  13.020  19.084  0.00  0.00    +0.000 C 
ATOM     21  C   UNL     1      -0.163  12.079  19.639  0.00  0.00    +0.000 C 
BRANCH  21  22
ATOM     22  S   UNL     1      -1.377  11.566  18.355  0.00  0.00    +0.000 S 
BRANCH  22  23
ATOM     23  C   UNL     1      -2.895  11.962  19.055  0.00  0.00    +0.000 A 
ATOM     24  N   UNL     1      -3.117  12.528  20.231  0.00  0.00    +0.000 NA
ATOM     25  N   UNL     1      -4.482  12.777  20.333  0.00  0.00    +0.000 NA
ATOM     26  C   UNL     1      -5.036  12.330  19.241  0.00  0.00    +0.000 A 
ATOM     27  N   UNL     1      -4.093  11.771  18.443  0.00  0.00    +0.000 N 
ATOM     28  C   UNL     1      -4.357  11.084  17.195  0.00  0.00    +0.000 C 
ENDBRANCH  22  23
ENDBRANCH  21  22
ENDBRANCH   1  21
TORSDOF 5
ENDMDL
MODEL 8
REMARK VINA RESULT:      -7.9      6.141      8.485
REMARK  Name = 
REMARK  7 active torsions:
REMARK  status: ('A' for Active; 'I' for Inactive)
REMARK    1  A    between atoms: C_1  and  C_2
REMARK    2  A    between atoms: C_2  and  S_3
REMARK    3  A    between atoms: C_2  and  C_10
REMARK    4  A    between atoms: S_3  and  C_4
REMARK    5  A    between atoms: N_8  and  C_9
REMARK    6  A    between atoms: C_14  and  N_15
REMARK    7  A    between atoms: C_16  and  C_18
REMARK                            x       y       z     vdW  Elec       q    Type
REMARK                         _______ _______ _______ _____ _____    ______ ____
ROOT
ATOM      1  C   UNL     1       2.772   6.783  19.325  0.00  0.00    +0.000 A 
ATOM      2  C   UNL     1       3.303   7.081  18.061  0.00  0.00    +0.000 A 
ATOM      3  C   UNL     1       2.923   8.246  17.386  0.00  0.00    +0.000 A 
ATOM      4  C   UNL     1       1.977   9.111  17.936  0.00  0.00    +0.000 A 
ATOM      5  C   UNL     1       1.426   8.825  19.183  0.00  0.00    +0.000 A 
ATOM      6  C   UNL     1       1.846   7.681  19.875  0.00  0.00    +0.000 A 
ENDROOT
BRANCH   5   7
ATOM      7  N   UNL     1       0.432   9.602  19.808  0.00  0.00    +0.000 N 
ATOM      8  C   UNL     1       0.591  10.615  20.739  0.00  0.00    +0.000 C 
ATOM      9  O   UNL     1       1.622  11.107  21.175  0.00  0.00    +0.000 OA
ATOM     10  H   UNL     1      -0.516   9.365  19.552  0.00  0.00    +0.000 HD
BRANCH   8  11
ATOM     11  C   UNL     1      -0.732  11.034  21.295  0.00  0.00    +0.000 A 
ATOM     12  C   UNL     1      -1.029  10.728  22.640  0.00  0.00    +0.000 A 
ATOM     13  C   UNL     1      -1.812  11.606  23.411  0.00  0.00    +0.000 A 
ATOM     14  C   UNL     1      -2.168  12.852  22.889  0.00  0.00    +0.000 A 
ATOM     15  C   UNL     1      -1.850  13.129  21.569  0.00  0.00    +0.000 A 
ATOM     16  C   UNL     1      -1.303  12.155  20.731  0.00  0.00    +0.000 A 
ATOM     17  C   UNL     1      -1.209  12.696  19.335  0.00  0.00    +0.000 C 
ATOM     18  C   UNL     1      -0.880  14.140  19.676  0.00  0.00    +0.000 C 
ATOM     19  C   UNL     1      -1.776  14.472  20.888  0.00  0.00    +0.000 C 
ENDBRANCH   8  11
ENDBRANCH   5   7
BRANCH   1  21
ATOM     20  C   UNL     1       1.917   4.878  20.775  0.00  0.00    +0.000 C 
ATOM     21  C   UNL     1       3.118   5.464  20.018  0.00  0.00    +0.000 C 
BRANCH  21  22
ATOM     22  S   UNL     1       3.767   4.317  18.734  0.00  0.00    +0.000 S 
BRANCH  22  23
ATOM     23  C   UNL     1       5.445   4.681  18.679  0.00  0.00    +0.000 A 
ATOM     24  N   UNL     1       6.209   5.113  19.672  0.00  0.00    +0.000 NA
ATOM     25  N   UNL     1       7.521   5.152  19.212  0.00  0.00    +0.000 NA
ATOM     26  C   UNL     1       7.502   4.776  17.964  0.00  0.00    +0.000 A 
ATOM     27  N   UNL     1       6.227   4.524  17.580  0.00  0.00    +0.000 N 
ATOM     28  C   UNL     1       5.814   4.181  16.234  0.00  0.00    +0.000 C 
ENDBRANCH  22  23
ENDBRANCH  21  22
ENDBRANCH   1  21
TORSDOF 5
ENDMDL
MODEL 9
REMARK VINA RESULT:      -7.9      5.867      7.990
REMARK  Name = 
REMARK  7 active torsions:
REMARK  status: ('A' for Active; 'I' for Inactive)
REMARK    1  A    between atoms: C_1  and  C_2
REMARK    2  A    between atoms: C_2  and  S_3
REMARK    3  A    between atoms: C_2  and  C_10
REMARK    4  A    between atoms: S_3  and  C_4
REMARK    5  A    between atoms: N_8  and  C_9
REMARK    6  A    between atoms: C_14  and  N_15
REMARK    7  A    between atoms: C_16  and  C_18
REMARK                            x       y       z     vdW  Elec       q    Type
REMARK                         _______ _______ _______ _____ _____    ______ ____
ROOT
ATOM      1  C   UNL     1       2.832   6.598  19.304  0.00  0.00    +0.000 A 
ATOM      2  C   UNL     1       3.306   6.789  17.998  0.00  0.00    +0.000 A 
ATOM      3  C   UNL     1       2.987   7.951  17.288  0.00  0.00    +0.000 A 
ATOM      4  C   UNL     1       2.158   8.923  17.849  0.00  0.00    +0.000 A 
ATOM      5  C   UNL     1       1.663   8.745  19.138  0.00  0.00    +0.000 A 
ATOM      6  C   UNL     1       2.025   7.600  19.861  0.00  0.00    +0.000 A 
ENDROOT
BRANCH   5   7
ATOM      7  N   UNL     1       0.783   9.635  19.781  0.00  0.00    +0.000 N 
ATOM      8  C   UNL     1      -0.394  10.181  19.296  0.00  0.00    +0.000 C 
ATOM      9  O   UNL     1      -0.967   9.963  18.238  0.00  0.00    +0.000 OA
ATOM     10  H   UNL     1       1.069   9.923  20.706  0.00  0.00    +0.000 HD
BRANCH   8  11
ATOM     11  C   UNL     1      -0.909  11.235  20.223  0.00  0.00    +0.000 A 
ATOM     12  C   UNL     1      -1.020  10.931  21.597  0.00  0.00    +0.000 A 
ATOM     13  C   UNL     1      -0.797  11.927  22.565  0.00  0.00    +0.000 A 
ATOM     14  C   UNL     1      -0.318  13.179  22.168  0.00  0.00    +0.000 A 
ATOM     15  C   UNL     1      -0.205  13.442  20.812  0.00  0.00    +0.000 A 
ATOM     16  C   UNL     1      -0.674  12.542  19.853  0.00  0.00    +0.000 A 
ATOM     17  C   UNL     1      -0.556  13.160  18.491  0.00  0.00    +0.000 C 
ATOM     18  C   UNL     1       0.731  13.937  18.709  0.00  0.00    +0.000 C 
ATOM     19  C   UNL     1       0.604  14.518  20.134  0.00  0.00    +0.000 C 
ENDBRANCH   8  11
ENDBRANCH   5   7
BRANCH   1  21
ATOM     20  C   UNL     1       1.840   4.727  20.711  0.00  0.00    +0.000 C 
ATOM     21  C   UNL     1       3.104   5.285  20.041  0.00  0.00    +0.000 C 
BRANCH  21  22
ATOM     22  S   UNL     1       3.835   4.109  18.829  0.00  0.00    +0.000 S 
BRANCH  22  23
ATOM     23  C   UNL     1       5.480   4.595  18.738  0.00  0.00    +0.000 A 
ATOM     24  N   UNL     1       6.239   5.060  19.720  0.00  0.00    +0.000 NA
ATOM     25  N   UNL     1       7.531   5.203  19.226  0.00  0.00    +0.000 NA
ATOM     26  C   UNL     1       7.505   4.853  17.971  0.00  0.00    +0.000 A 
ATOM     27  N   UNL     1       6.240   4.517  17.615  0.00  0.00    +0.000 N 
ATOM     28  C   UNL     1       5.815   4.173  16.273  0.00  0.00    +0.000 C 
ENDBRANCH  22  23
ENDBRANCH  21  22
ENDBRANCH   1  21
TORSDOF 5
ENDMDL
