MODEL 1
REMARK VINA RESULT:      -8.7      0.000      0.000
REMARK  Name = 
REMARK  6 active torsions:
REMARK  status: ('A' for Active; 'I' for Inactive)
REMARK    1  A    between atoms: C_1  and  C_2
REMARK    2  A    between atoms: C_2  and  C_3
REMARK    3  A    between atoms: C_2  and  N_4
REMARK    4  A    between atoms: C_6  and  C_7
REMARK    5  A    between atoms: C_14  and  N_15
REMARK    6  A    between atoms: C_16  and  C_18
REMARK                            x       y       z     vdW  Elec       q    Type
REMARK                         _______ _______ _______ _____ _____    ______ ____
ROOT
ATOM      1  N   UNL     1       4.264   7.327  17.740  0.00  0.00    +0.000 N 
ATOM      2  C   UNL     1       3.106   6.716  18.341  0.00  0.00    +0.000 C 
ATOM      3  O   UNL     1       2.845   5.532  18.181  0.00  0.00    +0.000 OA
ATOM      4  H   UNL     1       4.468   8.292  17.951  0.00  0.00    +0.000 HD
ENDROOT
BRANCH   2   5
ATOM      5  C   UNL     1       2.250   7.557  19.179  0.00  0.00    +0.000 A 
ATOM      6  C   UNL     1       1.917   7.238  20.486  0.00  0.00    +0.000 A 
ATOM      7  C   UNL     1       1.126   8.129  21.205  0.00  0.00    +0.000 A 
ATOM      8  C   UNL     1       0.657   9.310  20.621  0.00  0.00    +0.000 A 
ATOM      9  N   UNL     1      -0.108  10.183  21.336  0.00  0.00    +0.000 N 
ATOM     10  C   UNL     1      -0.606  11.445  20.813  0.00  0.00    +0.000 C 
ATOM     11  C   UNL     1      -0.793  12.248  22.098  0.00  0.00    +0.000 C 
ATOM     12  C   UNL     1      -1.300  11.212  23.094  0.00  0.00    +0.000 C 
ATOM     13  C   UNL     1      -0.674   9.895  22.640  0.00  0.00    +0.000 C 
ATOM     14  N   UNL     1       0.988   9.611  19.346  0.00  0.00    +0.000 NA
ATOM     15  C   UNL     1       1.781   8.754  18.661  0.00  0.00    +0.000 A 
ENDBRANCH   2   5
BRANCH   1  20
ATOM     16  N   UNL     1       6.482   6.327  17.197  0.00  0.00    +0.000 N 
ATOM     17  N   UNL     1       7.068   5.613  16.217  0.00  0.00    +0.000 NA
ATOM     18  C   UNL     1       6.129   5.481  15.267  0.00  0.00    +0.000 A 
ATOM     19  C   UNL     1       4.927   6.105  15.683  0.00  0.00    +0.000 A 
ATOM     20  C   UNL     1       5.163   6.633  16.930  0.00  0.00    +0.000 A 
BRANCH  18  21
ATOM     21  C   UNL     1       6.381   4.785  14.002  0.00  0.00    +0.000 A 
ATOM     22  C   UNL     1       7.466   5.156  13.195  0.00  0.00    +0.000 A 
ATOM     23  C   UNL     1       7.708   4.504  11.985  0.00  0.00    +0.000 A 
ATOM     24  C   UNL     1       6.870   3.474  11.568  0.00  0.00    +0.000 A 
ATOM     25  C   UNL     1       5.787   3.093  12.356  0.00  0.00    +0.000 A 
ATOM     26  C   UNL     1       5.544   3.745  13.567  0.00  0.00    +0.000 A 
ENDBRANCH  18  21
BRANCH  16  28
ATOM     27  C   UNL     1       8.113   5.560  18.913  0.00  0.00    +0.000 C 
ATOM     28  C   UNL     1       7.288   6.720  18.351  0.00  0.00    +0.000 C 
ATOM     29  C   UNL     1       8.208   7.902  18.028  0.00  0.00    +0.000 C 
ENDBRANCH  16  28
ENDBRANCH   1  20
TORSDOF 4
ENDMDL
MODEL 2
REMARK VINA RESULT:      -8.4      1.145      1.909
REMARK  Name = 
REMARK  6 active torsions:
REMARK  status: ('A' for Active; 'I' for Inactive)
REMARK    1  A    between atoms: C_1  and  C_2
REMARK    2  A    between atoms: C_2  and  C_3
REMARK    3  A    between atoms: C_2  and  N_4
REMARK    4  A    between atoms: C_6  and  C_7
REMARK    5  A    between atoms: C_14  and  N_15
REMARK    6  A    between atoms: C_16  and  C_18
REMARK                            x       y       z     vdW  Elec       q    Type
REMARK                         _______ _______ _______ _____ _____    ______ ____
ROOT
ATOM      1  N   UNL     1       3.852   7.470  17.813  0.00  0.00    +0.000 N 
ATOM      2  C   UNL     1       2.617   7.117  18.466  0.00  0.00    +0.000 C 
ATOM      3  O   UNL     1       2.194   5.971  18.468  0.00  0.00    +0.000 OA
ATOM      4  H   UNL     1       4.188   8.418  17.890  0.00  0.00    +0.000 HD
ENDROOT
BRANCH   2   5
ATOM      5  C   UNL     1       1.883   8.180  19.154  0.00  0.00    +0.000 A 
ATOM      6  C   UNL     1       1.436   9.328  18.518  0.00  0.00    +0.000 A 
ATOM      7  C   UNL     1       0.713  10.258  19.260  0.00  0.00    +0.000 A 
ATOM      8  C   UNL     1       0.461  10.055  20.620  0.00  0.00    +0.000 A 
ATOM      9  N   UNL     1      -0.257  10.966  21.337  0.00  0.00    +0.000 N 
ATOM     10  C   UNL     1      -0.591  10.812  22.744  0.00  0.00    +0.000 C 
ATOM     11  C   UNL     1      -1.846  11.676  22.850  0.00  0.00    +0.000 C 
ATOM     12  C   UNL     1      -1.546  12.853  21.928  0.00  0.00    +0.000 C 
ATOM     13  C   UNL     1      -0.630  12.280  20.849  0.00  0.00    +0.000 C 
ATOM     14  N   UNL     1       0.901   8.932  21.229  0.00  0.00    +0.000 NA
ATOM     15  C   UNL     1       1.578   8.018  20.496  0.00  0.00    +0.000 A 
ENDBRANCH   2   5
BRANCH   1  20
ATOM     16  N   UNL     1       5.430   5.545  17.667  0.00  0.00    +0.000 N 
ATOM     17  N   UNL     1       6.053   4.804  16.731  0.00  0.00    +0.000 NA
ATOM     18  C   UNL     1       5.709   5.357  15.557  0.00  0.00    +0.000 A 
ATOM     19  C   UNL     1       4.831   6.448  15.773  0.00  0.00    +0.000 A 
ATOM     20  C   UNL     1       4.650   6.550  17.132  0.00  0.00    +0.000 A 
BRANCH  18  21
ATOM     21  C   UNL     1       6.212   4.858  14.274  0.00  0.00    +0.000 A 
ATOM     22  C   UNL     1       5.521   3.850  13.588  0.00  0.00    +0.000 A 
ATOM     23  C   UNL     1       5.996   3.363  12.370  0.00  0.00    +0.000 A 
ATOM     24  C   UNL     1       7.168   3.879  11.823  0.00  0.00    +0.000 A 
ATOM     25  C   UNL     1       7.869   4.879  12.490  0.00  0.00    +0.000 A 
ATOM     26  C   UNL     1       7.393   5.367  13.710  0.00  0.00    +0.000 A 
ENDBRANCH  18  21
BRANCH  16  28
ATOM     27  C   UNL     1       5.211   3.844  19.470  0.00  0.00    +0.000 C 
ATOM     28  C   UNL     1       5.681   5.245  19.075  0.00  0.00    +0.000 C 
ATOM     29  C   UNL     1       7.159   5.418  19.439  0.00  0.00    +0.000 C 
ENDBRANCH  16  28
ENDBRANCH   1  20
TORSDOF 4
ENDMDL
MODEL 3
REMARK VINA RESULT:      -8.4      0.596      1.520
REMARK  Name = 
REMARK  6 active torsions:
REMARK  status: ('A' for Active; 'I' for Inactive)
REMARK    1  A    between atoms: C_1  and  C_2
REMARK    2  A    between atoms: C_2  and  C_3
REMARK    3  A    between atoms: C_2  and  N_4
REMARK    4  A    between atoms: C_6  and  C_7
REMARK    5  A    between atoms: C_14  and  N_15
REMARK    6  A    between atoms: C_16  and  C_18
REMARK                            x       y       z     vdW  Elec       q    Type
REMARK                         _______ _______ _______ _____ _____    ______ ____
ROOT
ATOM      1  N   UNL     1       4.327   7.402  17.613  0.00  0.00    +0.000 N 
ATOM      2  C   UNL     1       3.060   6.949  18.126  0.00  0.00    +0.000 C 
ATOM      3  O   UNL     1       2.643   5.821  17.913  0.00  0.00    +0.000 OA
ATOM      4  H   UNL     1       4.653   8.322  17.866  0.00  0.00    +0.000 HD
ENDROOT
BRANCH   2   5
ATOM      5  C   UNL     1       2.283   7.885  18.941  0.00  0.00    +0.000 A 
ATOM      6  C   UNL     1       1.713   9.042  18.433  0.00  0.00    +0.000 A 
ATOM      7  C   UNL     1       0.960   9.841  19.288  0.00  0.00    +0.000 A 
ATOM      8  C   UNL     1       0.798   9.502  20.635  0.00  0.00    +0.000 A 
ATOM      9  N   UNL     1       0.051  10.285  21.464  0.00  0.00    +0.000 N 
ATOM     10  C   UNL     1      -0.193   9.984  22.866  0.00  0.00    +0.000 C 
ATOM     11  C   UNL     1      -1.505  10.729  23.107  0.00  0.00    +0.000 C 
ATOM     12  C   UNL     1      -1.348  12.002  22.282  0.00  0.00    +0.000 C 
ATOM     13  C   UNL     1      -0.449  11.601  21.115  0.00  0.00    +0.000 C 
ATOM     14  N   UNL     1       1.358   8.372  21.119  0.00  0.00    +0.000 NA
ATOM     15  C   UNL     1       2.064   7.583  20.275  0.00  0.00    +0.000 A 
ENDBRANCH   2   5
BRANCH   1  20
ATOM     16  N   UNL     1       6.413   6.114  17.159  0.00  0.00    +0.000 N 
ATOM     17  N   UNL     1       6.949   5.345  16.193  0.00  0.00    +0.000 NA
ATOM     18  C   UNL     1       6.056   5.363  15.192  0.00  0.00    +0.000 A 
ATOM     19  C   UNL     1       4.929   6.140  15.560  0.00  0.00    +0.000 A 
ATOM     20  C   UNL     1       5.166   6.606  16.832  0.00  0.00    +0.000 A 
BRANCH  18  21
ATOM     21  C   UNL     1       6.279   4.664  13.924  0.00  0.00    +0.000 A 
ATOM     22  C   UNL     1       5.366   3.698  13.478  0.00  0.00    +0.000 A 
ATOM     23  C   UNL     1       5.575   3.021  12.276  0.00  0.00    +0.000 A 
ATOM     24  C   UNL     1       6.699   3.302  11.504  0.00  0.00    +0.000 A 
ATOM     25  C   UNL     1       7.617   4.258  11.931  0.00  0.00    +0.000 A 
ATOM     26  C   UNL     1       7.409   4.935  13.134  0.00  0.00    +0.000 A 
ENDBRANCH  18  21
BRANCH  16  28
ATOM     27  C   UNL     1       8.032   5.158  18.789  0.00  0.00    +0.000 C 
ATOM     28  C   UNL     1       7.200   6.369  18.364  0.00  0.00    +0.000 C 
ATOM     29  C   UNL     1       8.109   7.592  18.204  0.00  0.00    +0.000 C 
ENDBRANCH  16  28
ENDBRANCH   1  20
TORSDOF 4
ENDMDL
MODEL 4
REMARK VINA RESULT:      -8.3      0.718      1.333
REMARK  Name = 
REMARK  6 active torsions:
REMARK  status: ('A' for Active; 'I' for Inactive)
REMARK    1  A    between atoms: C_1  and  C_2
REMARK    2  A    between atoms: C_2  and  C_3
REMARK    3  A    between atoms: C_2  and  N_4
REMARK    4  A    between atoms: C_6  and  C_7
REMARK    5  A    between atoms: C_14  and  N_15
REMARK    6  A    between atoms: C_16  and  C_18
REMARK                            x       y       z     vdW  Elec       q    Type
REMARK                         _______ _______ _______ _____ _____    ______ ____
ROOT
ATOM      1  N   UNL     1       4.401   6.906  17.287  0.00  0.00    +0.000 N 
ATOM      2  C   UNL     1       3.423   6.237  18.106  0.00  0.00    +0.000 C 
ATOM      3  O   UNL     1       3.304   5.020  18.105  0.00  0.00    +0.000 OA
ATOM      4  H   UNL     1       4.499   7.907  17.368  0.00  0.00    +0.000 HD
ENDROOT
BRANCH   2   5
ATOM      5  C   UNL     1       2.577   7.063  18.968  0.00  0.00    +0.000 A 
ATOM      6  C   UNL     1       2.181   6.676  20.239  0.00  0.00    +0.000 A 
ATOM      7  C   UNL     1       1.408   7.558  20.990  0.00  0.00    +0.000 A 
ATOM      8  C   UNL     1       1.017   8.795  20.470  0.00  0.00    +0.000 A 
ATOM      9  N   UNL     1       0.268   9.657  21.216  0.00  0.00    +0.000 N 
ATOM     10  C   UNL     1      -0.149  10.974  20.762  0.00  0.00    +0.000 C 
ATOM     11  C   UNL     1      -0.346  11.700  22.091  0.00  0.00    +0.000 C 
ATOM     12  C   UNL     1      -0.938  10.627  22.998  0.00  0.00    +0.000 C 
ATOM     13  C   UNL     1      -0.359   9.314  22.478  0.00  0.00    +0.000 C 
ATOM     14  N   UNL     1       1.409   9.162  19.231  0.00  0.00    +0.000 NA
ATOM     15  C   UNL     1       2.186   8.313  18.517  0.00  0.00    +0.000 A 
ENDBRANCH   2   5
BRANCH   1  20
ATOM     16  N   UNL     1       6.638   6.081  16.559  0.00  0.00    +0.000 N 
ATOM     17  N   UNL     1       7.184   5.343  15.574  0.00  0.00    +0.000 NA
ATOM     18  C   UNL     1       6.164   5.037  14.757  0.00  0.00    +0.000 A 
ATOM     19  C   UNL     1       4.956   5.576  15.265  0.00  0.00    +0.000 A 
ATOM     20  C   UNL     1       5.273   6.233  16.430  0.00  0.00    +0.000 A 
BRANCH  18  21
ATOM     21  C   UNL     1       6.345   4.259  13.529  0.00  0.00    +0.000 A 
ATOM     22  C   UNL     1       5.333   3.398  13.081  0.00  0.00    +0.000 A 
ATOM     23  C   UNL     1       5.500   2.647  11.917  0.00  0.00    +0.000 A 
ATOM     24  C   UNL     1       6.680   2.748  11.185  0.00  0.00    +0.000 A 
ATOM     25  C   UNL     1       7.697   3.597  11.615  0.00  0.00    +0.000 A 
ATOM     26  C   UNL     1       7.530   4.349  12.780  0.00  0.00    +0.000 A 
ENDBRANCH  18  21
BRANCH  16  28
ATOM     27  C   UNL     1       7.421   8.177  17.649  0.00  0.00    +0.000 C 
ATOM     28  C   UNL     1       7.522   6.652  17.574  0.00  0.00    +0.000 C 
ATOM     29  C   UNL     1       7.266   6.046  18.957  0.00  0.00    +0.000 C 
ENDBRANCH  16  28
ENDBRANCH   1  20
TORSDOF 4
ENDMDL
MODEL 5
REMARK VINA RESULT:      -8.3      1.183      1.791
REMARK  Name = 
REMARK  6 active torsions:
REMARK  status: ('A' for Active; 'I' for Inactive)
REMARK    1  A    between atoms: C_1  and  C_2
REMARK    2  A    between atoms: C_2  and  C_3
REMARK    3  A    between atoms: C_2  and  N_4
REMARK    4  A    between atoms: C_6  and  C_7
REMARK    5  A    between atoms: C_14  and  N_15
REMARK    6  A    between atoms: C_16  and  C_18
REMARK                            x       y       z     vdW  Elec       q    Type
REMARK                         _______ _______ _______ _____ _____    ______ ____
ROOT
ATOM      1  N   UNL     1       4.148   6.803  17.710  0.00  0.00    +0.000 N 
ATOM      2  C   UNL     1       2.800   6.555  18.153  0.00  0.00    +0.000 C 
ATOM      3  O   UNL     1       2.203   5.529  17.861  0.00  0.00    +0.000 OA
ATOM      4  H   UNL     1       4.617   7.639  18.026  0.00  0.00    +0.000 HD
ENDROOT
BRANCH   2   5
ATOM      5  C   UNL     1       2.161   7.570  18.991  0.00  0.00    +0.000 A 
ATOM      6  C   UNL     1       1.835   8.837  18.533  0.00  0.00    +0.000 A 
ATOM      7  C   UNL     1       1.193   9.713  19.405  0.00  0.00    +0.000 A 
ATOM      8  C   UNL     1       0.904   9.337  20.720  0.00  0.00    +0.000 A 
ATOM      9  N   UNL     1       0.266  10.197  21.565  0.00  0.00    +0.000 N 
ATOM     10  C   UNL     1      -0.100   9.870  22.934  0.00  0.00    +0.000 C 
ATOM     11  C   UNL     1      -1.268  10.826  23.167  0.00  0.00    +0.000 C 
ATOM     12  C   UNL     1      -0.844  12.092  22.430  0.00  0.00    +0.000 C 
ATOM     13  C   UNL     1       0.028  11.598  21.278  0.00  0.00    +0.000 C 
ATOM     14  N   UNL     1       1.226   8.099  21.156  0.00  0.00    +0.000 NA
ATOM     15  C   UNL     1       1.823   7.242  20.294  0.00  0.00    +0.000 A 
ENDBRANCH   2   5
BRANCH   1  20
ATOM     16  N   UNL     1       5.641   4.844  17.326  0.00  0.00    +0.000 N 
ATOM     17  N   UNL     1       6.181   4.157  16.302  0.00  0.00    +0.000 NA
ATOM     18  C   UNL     1       5.793   4.810  15.196  0.00  0.00    +0.000 A 
ATOM     19  C   UNL     1       4.971   5.909  15.544  0.00  0.00    +0.000 A 
ATOM     20  C   UNL     1       4.870   5.912  16.915  0.00  0.00    +0.000 A 
BRANCH  18  21
ATOM     21  C   UNL     1       6.204   4.395  13.852  0.00  0.00    +0.000 A 
ATOM     22  C   UNL     1       7.295   5.011  13.223  0.00  0.00    +0.000 A 
ATOM     23  C   UNL     1       7.687   4.628  11.940  0.00  0.00    +0.000 A 
ATOM     24  C   UNL     1       6.994   3.623  11.270  0.00  0.00    +0.000 A 
ATOM     25  C   UNL     1       5.908   3.000  11.878  0.00  0.00    +0.000 A 
ATOM     26  C   UNL     1       5.515   3.383  13.162  0.00  0.00    +0.000 A 
ENDBRANCH  18  21
BRANCH  16  28
ATOM     27  C   UNL     1       6.530   5.570  19.534  0.00  0.00    +0.000 C 
ATOM     28  C   UNL     1       5.960   4.428  18.691  0.00  0.00    +0.000 C 
ATOM     29  C   UNL     1       4.747   3.816  19.398  0.00  0.00    +0.000 C 
ENDBRANCH  16  28
ENDBRANCH   1  20
TORSDOF 4
ENDMDL
MODEL 6
REMARK VINA RESULT:      -8.1      0.843      1.340
REMARK  Name = 
REMARK  6 active torsions:
REMARK  status: ('A' for Active; 'I' for Inactive)
REMARK    1  A    between atoms: C_1  and  C_2
REMARK    2  A    between atoms: C_2  and  C_3
REMARK    3  A    between atoms: C_2  and  N_4
REMARK    4  A    between atoms: C_6  and  C_7
REMARK    5  A    between atoms: C_14  and  N_15
REMARK    6  A    between atoms: C_16  and  C_18
REMARK                            x       y       z     vdW  Elec       q    Type
REMARK                         _______ _______ _______ _____ _____    ______ ____
ROOT
ATOM      1  N   UNL     1       3.949   7.293  17.841  0.00  0.00    +0.000 N 
ATOM      2  C   UNL     1       2.807   6.821  18.582  0.00  0.00    +0.000 C 
ATOM      3  O   UNL     1       2.509   5.637  18.624  0.00  0.00    +0.000 OA
ATOM      4  H   UNL     1       4.187   8.272  17.886  0.00  0.00    +0.000 HD
ENDROOT
BRANCH   2   5
ATOM      5  C   UNL     1       2.015   7.811  19.313  0.00  0.00    +0.000 A 
ATOM      6  C   UNL     1       1.680   7.678  20.651  0.00  0.00    +0.000 A 
ATOM      7  C   UNL     1       0.955   8.699  21.259  0.00  0.00    +0.000 A 
ATOM      8  C   UNL     1       0.549   9.824  20.534  0.00  0.00    +0.000 A 
ATOM      9  N   UNL     1      -0.152  10.825  21.139  0.00  0.00    +0.000 N 
ATOM     10  C   UNL     1      -0.579  12.040  20.465  0.00  0.00    +0.000 C 
ATOM     11  C   UNL     1      -0.701  13.007  21.641  0.00  0.00    +0.000 C 
ATOM     12  C   UNL     1      -1.256  12.136  22.762  0.00  0.00    +0.000 C 
ATOM     13  C   UNL     1      -0.716  10.737  22.472  0.00  0.00    +0.000 C 
ATOM     14  N   UNL     1       0.882   9.944  19.230  0.00  0.00    +0.000 NA
ATOM     15  C   UNL     1       1.613   8.961  18.653  0.00  0.00    +0.000 A 
ENDBRANCH   2   5
BRANCH   1  20
ATOM     16  N   UNL     1       5.772   5.610  17.593  0.00  0.00    +0.000 N 
ATOM     17  N   UNL     1       6.384   4.902  16.624  0.00  0.00    +0.000 NA
ATOM     18  C   UNL     1       5.823   5.316  15.478  0.00  0.00    +0.000 A 
ATOM     19  C   UNL     1       4.821   6.281  15.747  0.00  0.00    +0.000 A 
ATOM     20  C   UNL     1       4.790   6.451  17.111  0.00  0.00    +0.000 A 
BRANCH  18  21
ATOM     21  C   UNL     1       6.238   4.805  14.168  0.00  0.00    +0.000 A 
ATOM     22  C   UNL     1       5.489   3.808  13.528  0.00  0.00    +0.000 A 
ATOM     23  C   UNL     1       5.882   3.311  12.285  0.00  0.00    +0.000 A 
ATOM     24  C   UNL     1       7.028   3.804  11.667  0.00  0.00    +0.000 A 
ATOM     25  C   UNL     1       7.785   4.792  12.288  0.00  0.00    +0.000 A 
ATOM     26  C   UNL     1       7.393   5.291  13.532  0.00  0.00    +0.000 A 
ENDBRANCH  18  21
BRANCH  16  28
ATOM     27  C   UNL     1       5.678   4.186  19.632  0.00  0.00    +0.000 C 
ATOM     28  C   UNL     1       6.233   5.450  18.970  0.00  0.00    +0.000 C 
ATOM     29  C   UNL     1       7.761   5.455  19.065  0.00  0.00    +0.000 C 
ENDBRANCH  16  28
ENDBRANCH   1  20
TORSDOF 4
ENDMDL
MODEL 7
REMARK VINA RESULT:      -8.1      2.108      3.704
REMARK  Name = 
REMARK  6 active torsions:
REMARK  status: ('A' for Active; 'I' for Inactive)
REMARK    1  A    between atoms: C_1  and  C_2
REMARK    2  A    between atoms: C_2  and  C_3
REMARK    3  A    between atoms: C_2  and  N_4
REMARK    4  A    between atoms: C_6  and  C_7
REMARK    5  A    between atoms: C_14  and  N_15
REMARK    6  A    between atoms: C_16  and  C_18
REMARK                            x       y       z     vdW  Elec       q    Type
REMARK                         _______ _______ _______ _____ _____    ______ ____
ROOT
ATOM      1  N   UNL     1       2.160   7.602  19.316  0.00  0.00    +0.000 N 
ATOM      2  C   UNL     1       1.684   8.834  18.742  0.00  0.00    +0.000 C 
ATOM      3  O   UNL     1       1.811   9.083  17.552  0.00  0.00    +0.000 OA
ATOM      4  H   UNL     1       1.979   7.419  20.291  0.00  0.00    +0.000 HD
ENDROOT
BRANCH   2   5
ATOM      5  C   UNL     1       1.014   9.785  19.631  0.00  0.00    +0.000 A 
ATOM      6  C   UNL     1       1.118  11.159  19.488  0.00  0.00    +0.000 A 
ATOM      7  C   UNL     1       0.407  11.973  20.366  0.00  0.00    +0.000 A 
ATOM      8  C   UNL     1      -0.376  11.422  21.385  0.00  0.00    +0.000 A 
ATOM      9  N   UNL     1      -1.078  12.225  22.235  0.00  0.00    +0.000 N 
ATOM     10  C   UNL     1      -1.940  11.730  23.296  0.00  0.00    +0.000 C 
ATOM     11  C   UNL     1      -2.905  12.901  23.467  0.00  0.00    +0.000 C 
ATOM     12  C   UNL     1      -2.017  14.125  23.274  0.00  0.00    +0.000 C 
ATOM     13  C   UNL     1      -0.924  13.665  22.312  0.00  0.00    +0.000 C 
ATOM     14  N   UNL     1      -0.470  10.080  21.514  0.00  0.00    +0.000 NA
ATOM     15  C   UNL     1       0.200   9.294  20.639  0.00  0.00    +0.000 A 
ENDBRANCH   2   5
BRANCH   1  20
ATOM     16  N   UNL     1       2.553   5.254  18.574  0.00  0.00    +0.000 N 
ATOM     17  N   UNL     1       3.335   4.571  17.717  0.00  0.00    +0.000 NA
ATOM     18  C   UNL     1       4.147   5.490  17.173  0.00  0.00    +0.000 A 
ATOM     19  C   UNL     1       3.841   6.775  17.686  0.00  0.00    +0.000 A 
ATOM     20  C   UNL     1       2.806   6.611  18.576  0.00  0.00    +0.000 A 
BRANCH  18  21
ATOM     21  C   UNL     1       5.186   5.144  16.198  0.00  0.00    +0.000 A 
ATOM     22  C   UNL     1       6.517   5.524  16.419  0.00  0.00    +0.000 A 
ATOM     23  C   UNL     1       7.511   5.206  15.492  0.00  0.00    +0.000 A 
ATOM     24  C   UNL     1       7.186   4.505  14.334  0.00  0.00    +0.000 A 
ATOM     25  C   UNL     1       5.869   4.120  14.097  0.00  0.00    +0.000 A 
ATOM     26  C   UNL     1       4.874   4.438  15.024  0.00  0.00    +0.000 A 
ENDBRANCH  18  21
BRANCH  16  28
ATOM     27  C   UNL     1       1.256   3.143  18.806  0.00  0.00    +0.000 C 
ATOM     28  C   UNL     1       1.607   4.508  19.402  0.00  0.00    +0.000 C 
ATOM     29  C   UNL     1       2.119   4.332  20.835  0.00  0.00    +0.000 C 
ENDBRANCH  16  28
ENDBRANCH   1  20
TORSDOF 4
ENDMDL
MODEL 8
REMARK VINA RESULT:      -8.1      2.160      3.688
REMARK  Name = 
REMARK  6 active torsions:
REMARK  status: ('A' for Active; 'I' for Inactive)
REMARK    1  A    between atoms: C_1  and  C_2
REMARK    2  A    between atoms: C_2  and  C_3
REMARK    3  A    between atoms: C_2  and  N_4
REMARK    4  A    between atoms: C_6  and  C_7
REMARK    5  A    between atoms: C_14  and  N_15
REMARK    6  A    between atoms: C_16  and  C_18
REMARK                            x       y       z     vdW  Elec       q    Type
REMARK                         _______ _______ _______ _____ _____    ______ ____
ROOT
ATOM      1  N   UNL     1       2.226   7.729  19.318  0.00  0.00    +0.000 N 
ATOM      2  C   UNL     1       1.684   8.919  18.714  0.00  0.00    +0.000 C 
ATOM      3  O   UNL     1       1.729   9.109  17.507  0.00  0.00    +0.000 OA
ATOM      4  H   UNL     1       2.112   7.593  20.311  0.00  0.00    +0.000 HD
ENDROOT
BRANCH   2   5
ATOM      5  C   UNL     1       1.049   9.900  19.595  0.00  0.00    +0.000 A 
ATOM      6  C   UNL     1       0.430   9.561  20.788  0.00  0.00    +0.000 A 
ATOM      7  C   UNL     1      -0.109  10.580  21.569  0.00  0.00    +0.000 A 
ATOM      8  C   UNL     1      -0.050  11.914  21.154  0.00  0.00    +0.000 A 
ATOM      9  N   UNL     1      -0.570  12.907  21.930  0.00  0.00    +0.000 N 
ATOM     10  C   UNL     1      -0.519  14.319  21.586  0.00  0.00    +0.000 C 
ATOM     11  C   UNL     1      -0.615  14.966  22.965  0.00  0.00    +0.000 C 
ATOM     12  C   UNL     1      -1.594  14.066  23.713  0.00  0.00    +0.000 C 
ATOM     13  C   UNL     1      -1.394  12.681  23.102  0.00  0.00    +0.000 C 
ATOM     14  N   UNL     1       0.557  12.233  19.990  0.00  0.00    +0.000 NA
ATOM     15  C   UNL     1       1.104  11.241  19.249  0.00  0.00    +0.000 A 
ENDBRANCH   2   5
BRANCH   1  20
ATOM     16  N   UNL     1       2.581   5.361  18.623  0.00  0.00    +0.000 N 
ATOM     17  N   UNL     1       3.339   4.650  17.766  0.00  0.00    +0.000 NA
ATOM     18  C   UNL     1       4.150   5.548  17.186  0.00  0.00    +0.000 A 
ATOM     19  C   UNL     1       3.867   6.847  17.675  0.00  0.00    +0.000 A 
ATOM     20  C   UNL     1       2.848   6.714  18.588  0.00  0.00    +0.000 A 
BRANCH  18  21
ATOM     21  C   UNL     1       5.165   5.169  16.200  0.00  0.00    +0.000 A 
ATOM     22  C   UNL     1       4.805   4.437  15.059  0.00  0.00    +0.000 A 
ATOM     23  C   UNL     1       5.767   4.066  14.119  0.00  0.00    +0.000 A 
ATOM     24  C   UNL     1       7.100   4.422  14.307  0.00  0.00    +0.000 A 
ATOM     25  C   UNL     1       7.476   5.147  15.433  0.00  0.00    +0.000 A 
ATOM     26  C   UNL     1       6.514   5.520  16.375  0.00  0.00    +0.000 A 
ENDBRANCH  18  21
BRANCH  16  28
ATOM     27  C   UNL     1       1.240   3.284  18.911  0.00  0.00    +0.000 C 
ATOM     28  C   UNL     1       1.644   4.644  19.486  0.00  0.00    +0.000 C 
ATOM     29  C   UNL     1       2.197   4.464  20.903  0.00  0.00    +0.000 C 
ENDBRANCH  16  28
ENDBRANCH   1  20
TORSDOF 4
ENDMDL
MODEL 9
REMARK VINA RESULT:      -8.0      2.151      3.937
REMARK  Name = 
REMARK  6 active torsions:
REMARK  status: ('A' for Active; 'I' for Inactive)
REMARK    1  A    between atoms: C_1  and  C_2
REMARK    2  A    between atoms: C_2  and  C_3
REMARK    3  A    between atoms: C_2  and  N_4
REMARK    4  A    between atoms: C_6  and  C_7
REMARK    5  A    between atoms: C_14  and  N_15
REMARK    6  A    between atoms: C_16  and  C_18
REMARK                            x       y       z     vdW  Elec       q    Type
REMARK                         _______ _______ _______ _____ _____    ______ ____
ROOT
ATOM      1  N   UNL     1       1.889   7.706  19.296  0.00  0.00    +0.000 N 
ATOM      2  C   UNL     1       1.518   8.949  18.672  0.00  0.00    +0.000 C 
ATOM      3  O   UNL     1       1.820   9.208  17.516  0.00  0.00    +0.000 OA
ATOM      4  H   UNL     1       1.565   7.516  20.232  0.00  0.00    +0.000 HD
ENDROOT
BRANCH   2   5
ATOM      5  C   UNL     1       0.738   9.902  19.464  0.00  0.00    +0.000 A 
ATOM      6  C   UNL     1       0.419  11.176  19.021  0.00  0.00    +0.000 A 
ATOM      7  C   UNL     1      -0.362  11.987  19.840  0.00  0.00    +0.000 A 
ATOM      8  C   UNL     1      -0.796  11.541  21.092  0.00  0.00    +0.000 A 
ATOM      9  N   UNL     1      -1.568  12.338  21.884  0.00  0.00    +0.000 N 
ATOM     10  C   UNL     1      -2.087  11.937  23.182  0.00  0.00    +0.000 C 
ATOM     11  C   UNL     1      -3.313  12.838  23.305  0.00  0.00    +0.000 C 
ATOM     12  C   UNL     1      -2.854  14.150  22.679  0.00  0.00    +0.000 C 
ATOM     13  C   UNL     1      -1.827  13.741  21.627  0.00  0.00    +0.000 C 
ATOM     14  N   UNL     1      -0.478  10.298  21.514  0.00  0.00    +0.000 NA
ATOM     15  C   UNL     1       0.256   9.503  20.700  0.00  0.00    +0.000 A 
ENDBRANCH   2   5
BRANCH   1  20
ATOM     16  N   UNL     1       2.486   5.343  18.766  0.00  0.00    +0.000 N 
ATOM     17  N   UNL     1       3.330   4.656  17.972  0.00  0.00    +0.000 NA
ATOM     18  C   UNL     1       4.065   5.589  17.349  0.00  0.00    +0.000 A 
ATOM     19  C   UNL     1       3.646   6.884  17.746  0.00  0.00    +0.000 A 
ATOM     20  C   UNL     1       2.623   6.711  18.647  0.00  0.00    +0.000 A 
BRANCH  18  21
ATOM     21  C   UNL     1       5.136   5.249  16.408  0.00  0.00    +0.000 A 
ATOM     22  C   UNL     1       4.865   4.453  15.286  0.00  0.00    +0.000 A 
ATOM     23  C   UNL     1       5.880   4.117  14.390  0.00  0.00    +0.000 A 
ATOM     24  C   UNL     1       7.178   4.573  14.604  0.00  0.00    +0.000 A 
ATOM     25  C   UNL     1       7.466   5.364  15.713  0.00  0.00    +0.000 A 
ATOM     26  C   UNL     1       6.451   5.700  16.610  0.00  0.00    +0.000 A 
ENDBRANCH  18  21
BRANCH  16  28
ATOM     27  C   UNL     1       1.190   3.241  19.075  0.00  0.00    +0.000 C 
ATOM     28  C   UNL     1       1.601   4.595  19.657  0.00  0.00    +0.000 C 
ATOM     29  C   UNL     1       2.224   4.396  21.043  0.00  0.00    +0.000 C 
ENDBRANCH  16  28
ENDBRANCH   1  20
TORSDOF 4
ENDMDL
