MODEL 1
REMARK VINA RESULT:      -8.2      0.000      0.000
REMARK  Name = 
REMARK  5 active torsions:
REMARK  status: ('A' for Active; 'I' for Inactive)
REMARK    1  A    between atoms: C_5  and  O_6
REMARK    2  A    between atoms: O_6  and  C_7
REMARK    3  A    between atoms: C_10  and  C_11
REMARK    4  A    between atoms: C_11  and  N_12
REMARK    5  A    between atoms: N_12  and  C_13
REMARK                            x       y       z     vdW  Elec       q    Type
REMARK                         _______ _______ _______ _____ _____    ______ ____
ROOT
ATOM      1  C   UNL     1       1.879   7.761  19.863  0.00  0.00    +0.000 A 
ATOM      2  C   UNL     1       1.830   8.537  18.716  0.00  0.00    +0.000 A 
ATOM      3  C   UNL     1       1.106   9.729  18.759  0.00  0.00    +0.000 A 
ATOM      4  C   UNL     1       0.460  10.109  19.943  0.00  0.00    +0.000 A 
ATOM      5  C   UNL     1       0.505   9.215  21.008  0.00  0.00    +0.000 A 
ATOM      6  N   UNL     1       1.185   8.051  20.988  0.00  0.00    +0.000 NA
ENDROOT
BRANCH   1   7
ATOM      7  O   UNL     1       2.734   6.666  19.866  0.00  0.00    +0.000 OA
BRANCH   7  12
ATOM      8  F   UNL     1       0.350   1.882  18.561  0.00  0.00    +0.000 F 
ATOM      9  C   UNL     1       0.962   3.024  18.897  0.00  0.00    +0.000 A 
ATOM     10  C   UNL     1       1.543   3.812  17.909  0.00  0.00    +0.000 A 
ATOM     11  C   UNL     1       2.150   5.023  18.253  0.00  0.00    +0.000 A 
ATOM     12  C   UNL     1       2.162   5.439  19.587  0.00  0.00    +0.000 A 
ATOM     13  C   UNL     1       1.633   4.596  20.579  0.00  0.00    +0.000 A 
ATOM     14  C   UNL     1       1.008   3.404  20.231  0.00  0.00    +0.000 A 
ENDBRANCH   7  12
ENDBRANCH   1   7
BRANCH   4  15
ATOM     15  C   UNL     1      -0.286  11.409  20.080  0.00  0.00    +0.000 C 
BRANCH  15  16
ATOM     16  N   UNL     1      -0.713  11.837  18.760  0.00  0.00    +0.000 N 
ATOM     17  H   UNL     1      -0.318  12.728  18.481  0.00  0.00    +0.000 HD
BRANCH  16  18
ATOM     18  C   UNL     1      -2.080  11.791  18.513  0.00  0.00    +0.000 A 
ATOM     19  N   UNL     1      -3.004  12.150  19.428  0.00  0.00    +0.000 NA
ATOM     20  C   UNL     1      -4.312  12.081  19.093  0.00  0.00    +0.000 A 
ATOM     21  N   UNL     1      -4.853  11.685  17.933  0.00  0.00    +0.000 NA
ATOM     22  C   UNL     1      -3.922  11.304  17.040  0.00  0.00    +0.000 A 
ATOM     23  N   UNL     1      -4.172  10.820  15.785  0.00  0.00    +0.000 NA
ATOM     24  C   UNL     1      -2.987  10.539  15.287  0.00  0.00    +0.000 A 
ATOM     25  N   UNL     1      -1.985  10.843  16.165  0.00  0.00    +0.000 N 
ATOM     26  C   UNL     1      -2.567  11.346  17.295  0.00  0.00    +0.000 A 
ATOM     27  H   UNL     1      -0.997  10.685  16.031  0.00  0.00    +0.000 HD
ENDBRANCH  16  18
ENDBRANCH  15  16
ENDBRANCH   4  15
TORSDOF 5
ENDMDL
MODEL 2
REMARK VINA RESULT:      -8.2      1.033      2.296
REMARK  Name = 
REMARK  5 active torsions:
REMARK  status: ('A' for Active; 'I' for Inactive)
REMARK    1  A    between atoms: C_5  and  O_6
REMARK    2  A    between atoms: O_6  and  C_7
REMARK    3  A    between atoms: C_10  and  C_11
REMARK    4  A    between atoms: C_11  and  N_12
REMARK    5  A    between atoms: N_12  and  C_13
REMARK                            x       y       z     vdW  Elec       q    Type
REMARK                         _______ _______ _______ _____ _____    ______ ____
ROOT
ATOM      1  C   UNL     1       2.375   7.694  19.426  0.00  0.00    +0.000 A 
ATOM      2  C   UNL     1       1.648   8.176  20.503  0.00  0.00    +0.000 A 
ATOM      3  C   UNL     1       0.840   9.297  20.302  0.00  0.00    +0.000 A 
ATOM      4  C   UNL     1       0.782   9.894  19.036  0.00  0.00    +0.000 A 
ATOM      5  C   UNL     1       1.617   9.379  18.049  0.00  0.00    +0.000 A 
ATOM      6  N   UNL     1       2.416   8.308  18.221  0.00  0.00    +0.000 NA
ENDROOT
BRANCH   1   7
ATOM      7  O   UNL     1       3.043   6.486  19.587  0.00  0.00    +0.000 OA
BRANCH   7  12
ATOM      8  F   UNL     1       0.267   1.833  18.630  0.00  0.00    +0.000 F 
ATOM      9  C   UNL     1       0.912   2.987  18.842  0.00  0.00    +0.000 A 
ATOM     10  C   UNL     1       0.962   3.524  20.124  0.00  0.00    +0.000 A 
ATOM     11  C   UNL     1       1.666   4.710  20.354  0.00  0.00    +0.000 A 
ATOM     12  C   UNL     1       2.323   5.343  19.296  0.00  0.00    +0.000 A 
ATOM     13  C   UNL     1       2.203   4.823  17.996  0.00  0.00    +0.000 A 
ATOM     14  C   UNL     1       1.522   3.630  17.775  0.00  0.00    +0.000 A 
ENDBRANCH   7  12
ENDBRANCH   1   7
BRANCH   4  15
ATOM     15  C   UNL     1      -0.114  11.065  18.732  0.00  0.00    +0.000 C 
BRANCH  15  16
ATOM     16  N   UNL     1      -1.490  10.662  18.950  0.00  0.00    +0.000 N 
ATOM     17  H   UNL     1      -1.576   9.798  19.474  0.00  0.00    +0.000 HD
BRANCH  16  18
ATOM     18  C   UNL     1      -2.313  10.655  17.829  0.00  0.00    +0.000 A 
ATOM     19  N   UNL     1      -1.972  10.050  16.672  0.00  0.00    +0.000 NA
ATOM     20  C   UNL     1      -2.842  10.088  15.638  0.00  0.00    +0.000 A 
ATOM     21  N   UNL     1      -4.047  10.669  15.587  0.00  0.00    +0.000 NA
ATOM     22  C   UNL     1      -4.363  11.290  16.737  0.00  0.00    +0.000 A 
ATOM     23  N   UNL     1      -5.510  11.998  16.973  0.00  0.00    +0.000 NA
ATOM     24  C   UNL     1      -5.379  12.461  18.197  0.00  0.00    +0.000 A 
ATOM     25  N   UNL     1      -4.201  12.062  18.764  0.00  0.00    +0.000 N 
ATOM     26  C   UNL     1      -3.539  11.298  17.844  0.00  0.00    +0.000 A 
ATOM     27  H   UNL     1      -3.854  12.316  19.678  0.00  0.00    +0.000 HD
ENDBRANCH  16  18
ENDBRANCH  15  16
ENDBRANCH   4  15
TORSDOF 5
ENDMDL
MODEL 3
REMARK VINA RESULT:      -8.1      4.436      8.715
REMARK  Name = 
REMARK  5 active torsions:
REMARK  status: ('A' for Active; 'I' for Inactive)
REMARK    1  A    between atoms: C_5  and  O_6
REMARK    2  A    between atoms: O_6  and  C_7
REMARK    3  A    between atoms: C_10  and  C_11
REMARK    4  A    between atoms: C_11  and  N_12
REMARK    5  A    between atoms: N_12  and  C_13
REMARK                            x       y       z     vdW  Elec       q    Type
REMARK                         _______ _______ _______ _____ _____    ______ ____
ROOT
ATOM      1  C   UNL     1       1.288   9.696  18.804  0.00  0.00    +0.000 A 
ATOM      2  C   UNL     1       2.039   9.187  17.756  0.00  0.00    +0.000 A 
ATOM      3  C   UNL     1       2.578   7.907  17.896  0.00  0.00    +0.000 A 
ATOM      4  C   UNL     1       2.346   7.178  19.069  0.00  0.00    +0.000 A 
ATOM      5  C   UNL     1       1.649   7.819  20.090  0.00  0.00    +0.000 A 
ATOM      6  N   UNL     1       1.131   9.058  19.986  0.00  0.00    +0.000 NA
ENDROOT
BRANCH   1   7
ATOM      7  O   UNL     1       0.618  10.896  18.594  0.00  0.00    +0.000 OA
BRANCH   7  12
ATOM      8  F   UNL     1      -4.823  10.572  17.840  0.00  0.00    +0.000 F 
ATOM      9  C   UNL     1      -3.495  10.666  17.984  0.00  0.00    +0.000 A 
ATOM     10  C   UNL     1      -2.958  11.639  18.821  0.00  0.00    +0.000 A 
ATOM     11  C   UNL     1      -1.574  11.715  19.001  0.00  0.00    +0.000 A 
ATOM     12  C   UNL     1      -0.738  10.806  18.345  0.00  0.00    +0.000 A 
ATOM     13  C   UNL     1      -1.294   9.877  17.450  0.00  0.00    +0.000 A 
ATOM     14  C   UNL     1      -2.673   9.788  17.292  0.00  0.00    +0.000 A 
ENDBRANCH   7  12
ENDBRANCH   1   7
BRANCH   4  15
ATOM     15  C   UNL     1       2.843   5.770  19.262  0.00  0.00    +0.000 C 
BRANCH  15  16
ATOM     16  N   UNL     1       3.595   5.381  18.084  0.00  0.00    +0.000 N 
ATOM     17  H   UNL     1       3.223   4.557  17.626  0.00  0.00    +0.000 HD
BRANCH  16  18
ATOM     18  C   UNL     1       4.974   5.294  18.237  0.00  0.00    +0.000 A 
ATOM     19  N   UNL     1       5.600   5.543  19.406  0.00  0.00    +0.000 NA
ATOM     20  C   UNL     1       6.946   5.422  19.461  0.00  0.00    +0.000 A 
ATOM     21  N   UNL     1       7.791   5.082  18.479  0.00  0.00    +0.000 NA
ATOM     22  C   UNL     1       7.156   4.863  17.314  0.00  0.00    +0.000 A 
ATOM     23  N   UNL     1       7.756   4.535  16.128  0.00  0.00    +0.000 NA
ATOM     24  C   UNL     1       6.772   4.460  15.259  0.00  0.00    +0.000 A 
ATOM     25  N   UNL     1       5.561   4.707  15.843  0.00  0.00    +0.000 N 
ATOM     26  C   UNL     1       5.787   4.958  17.168  0.00  0.00    +0.000 A 
ATOM     27  H   UNL     1       4.664   4.745  15.381  0.00  0.00    +0.000 HD
ENDBRANCH  16  18
ENDBRANCH  15  16
ENDBRANCH   4  15
TORSDOF 5
ENDMDL
MODEL 4
REMARK VINA RESULT:      -8.0      6.615      9.318
REMARK  Name = 
REMARK  5 active torsions:
REMARK  status: ('A' for Active; 'I' for Inactive)
REMARK    1  A    between atoms: C_5  and  O_6
REMARK    2  A    between atoms: O_6  and  C_7
REMARK    3  A    between atoms: C_10  and  C_11
REMARK    4  A    between atoms: C_11  and  N_12
REMARK    5  A    between atoms: N_12  and  C_13
REMARK                            x       y       z     vdW  Elec       q    Type
REMARK                         _______ _______ _______ _____ _____    ______ ____
ROOT
ATOM      1  C   UNL     1       6.634   5.016  14.740  0.00  0.00    +0.000 A 
ATOM      2  C   UNL     1       5.438   5.589  15.143  0.00  0.00    +0.000 A 
ATOM      3  C   UNL     1       5.160   5.636  16.510  0.00  0.00    +0.000 A 
ATOM      4  C   UNL     1       6.083   5.116  17.427  0.00  0.00    +0.000 A 
ATOM      5  C   UNL     1       7.212   4.488  16.908  0.00  0.00    +0.000 A 
ATOM      6  N   UNL     1       7.497   4.417  15.593  0.00  0.00    +0.000 NA
ENDROOT
BRANCH   1   7
ATOM      7  O   UNL     1       6.981   5.121  13.399  0.00  0.00    +0.000 OA
BRANCH   7  12
ATOM      8  F   UNL     1       5.970   0.579  10.462  0.00  0.00    +0.000 F 
ATOM      9  C   UNL     1       6.223   1.705  11.140  0.00  0.00    +0.000 A 
ATOM     10  C   UNL     1       5.183   2.379  11.773  0.00  0.00    +0.000 A 
ATOM     11  C   UNL     1       5.451   3.535  12.512  0.00  0.00    +0.000 A 
ATOM     12  C   UNL     1       6.764   4.001  12.618  0.00  0.00    +0.000 A 
ATOM     13  C   UNL     1       7.790   3.348  11.915  0.00  0.00    +0.000 A 
ATOM     14  C   UNL     1       7.524   2.184  11.200  0.00  0.00    +0.000 A 
ENDBRANCH   7  12
ENDBRANCH   1   7
BRANCH   4  15
ATOM     15  C   UNL     1       5.877   5.188  18.916  0.00  0.00    +0.000 C 
BRANCH  15  16
ATOM     16  N   UNL     1       5.526   3.866  19.398  0.00  0.00    +0.000 N 
ATOM     17  H   UNL     1       6.222   3.162  19.179  0.00  0.00    +0.000 HD
BRANCH  16  18
ATOM     18  C   UNL     1       4.245   3.421  19.091  0.00  0.00    +0.000 A 
ATOM     19  N   UNL     1       4.002   2.449  18.188  0.00  0.00    +0.000 NA
ATOM     20  C   UNL     1       2.722   2.075  17.963  0.00  0.00    +0.000 A 
ATOM     21  N   UNL     1       1.605   2.554  18.527  0.00  0.00    +0.000 NA
ATOM     22  C   UNL     1       1.860   3.540  19.406  0.00  0.00    +0.000 A 
ATOM     23  N   UNL     1       0.921   4.243  20.110  0.00  0.00    +0.000 NA
ATOM     24  C   UNL     1       1.606   5.125  20.805  0.00  0.00    +0.000 A 
ATOM     25  N   UNL     1       2.950   5.003  20.589  0.00  0.00    +0.000 N 
ATOM     26  C   UNL     1       3.134   3.981  19.700  0.00  0.00    +0.000 A 
ATOM     27  H   UNL     1       3.679   5.585  20.976  0.00  0.00    +0.000 HD
ENDBRANCH  16  18
ENDBRANCH  15  16
ENDBRANCH   4  15
TORSDOF 5
ENDMDL
MODEL 5
REMARK VINA RESULT:      -7.9      7.058      9.643
REMARK  Name = 
REMARK  5 active torsions:
REMARK  status: ('A' for Active; 'I' for Inactive)
REMARK    1  A    between atoms: C_5  and  O_6
REMARK    2  A    between atoms: O_6  and  C_7
REMARK    3  A    between atoms: C_10  and  C_11
REMARK    4  A    between atoms: C_11  and  N_12
REMARK    5  A    between atoms: N_12  and  C_13
REMARK                            x       y       z     vdW  Elec       q    Type
REMARK                         _______ _______ _______ _____ _____    ______ ____
ROOT
ATOM      1  C   UNL     1       6.545   5.568  17.545  0.00  0.00    +0.000 A 
ATOM      2  C   UNL     1       7.586   5.675  18.454  0.00  0.00    +0.000 A 
ATOM      3  C   UNL     1       8.186   6.925  18.622  0.00  0.00    +0.000 A 
ATOM      4  C   UNL     1       7.725   8.023  17.884  0.00  0.00    +0.000 A 
ATOM      5  C   UNL     1       6.731   7.784  16.939  0.00  0.00    +0.000 A 
ATOM      6  N   UNL     1       6.146   6.585  16.747  0.00  0.00    +0.000 NA
ENDROOT
BRANCH   1   7
ATOM      7  O   UNL     1       5.846   4.368  17.504  0.00  0.00    +0.000 OA
BRANCH   7  12
ATOM      8  F   UNL     1       0.805   4.404  19.711  0.00  0.00    +0.000 F 
ATOM      9  C   UNL     1       2.043   4.365  19.202  0.00  0.00    +0.000 A 
ATOM     10  C   UNL     1       2.254   3.820  17.940  0.00  0.00    +0.000 A 
ATOM     11  C   UNL     1       3.539   3.812  17.391  0.00  0.00    +0.000 A 
ATOM     12  C   UNL     1       4.604   4.360  18.111  0.00  0.00    +0.000 A 
ATOM     13  C   UNL     1       4.384   4.841  19.413  0.00  0.00    +0.000 A 
ATOM     14  C   UNL     1       3.100   4.870  19.946  0.00  0.00    +0.000 A 
ENDBRANCH   7  12
ENDBRANCH   1   7
BRANCH   4  15
ATOM     15  C   UNL     1       8.282   9.410  18.060  0.00  0.00    +0.000 C 
BRANCH  15  16
ATOM     16  N   UNL     1       9.231   9.390  19.156  0.00  0.00    +0.000 N 
ATOM     17  H   UNL     1       8.968   8.757  19.903  0.00  0.00    +0.000 HD
BRANCH  16  18
ATOM     18  C   UNL     1       9.616  10.629  19.658  0.00  0.00    +0.000 A 
ATOM     19  N   UNL     1       9.247  11.074  20.877  0.00  0.00    +0.000 NA
ATOM     20  C   UNL     1       9.679  12.290  21.283  0.00  0.00    +0.000 A 
ATOM     21  N   UNL     1      10.451  13.161  20.620  0.00  0.00    +0.000 NA
ATOM     22  C   UNL     1      10.789  12.716  19.397  0.00  0.00    +0.000 A 
ATOM     23  N   UNL     1      11.539  13.399  18.479  0.00  0.00    +0.000 NA
ATOM     24  C   UNL     1      11.582  12.615  17.424  0.00  0.00    +0.000 A 
ATOM     25  N   UNL     1      10.906  11.446  17.636  0.00  0.00    +0.000 N 
ATOM     26  C   UNL     1      10.398  11.488  18.904  0.00  0.00    +0.000 A 
ATOM     27  H   UNL     1      10.764  10.701  16.968  0.00  0.00    +0.000 HD
ENDBRANCH  16  18
ENDBRANCH  15  16
ENDBRANCH   4  15
TORSDOF 5
ENDMDL
MODEL 6
REMARK VINA RESULT:      -7.9      0.811      1.940
REMARK  Name = 
REMARK  5 active torsions:
REMARK  status: ('A' for Active; 'I' for Inactive)
REMARK    1  A    between atoms: C_5  and  O_6
REMARK    2  A    between atoms: O_6  and  C_7
REMARK    3  A    between atoms: C_10  and  C_11
REMARK    4  A    between atoms: C_11  and  N_12
REMARK    5  A    between atoms: N_12  and  C_13
REMARK                            x       y       z     vdW  Elec       q    Type
REMARK                         _______ _______ _______ _____ _____    ______ ____
ROOT
ATOM      1  C   UNL     1       2.127   7.750  19.410  0.00  0.00    +0.000 A 
ATOM      2  C   UNL     1       2.116   8.426  18.200  0.00  0.00    +0.000 A 
ATOM      3  C   UNL     1       1.453   9.653  18.140  0.00  0.00    +0.000 A 
ATOM      4  C   UNL     1       0.831  10.165  19.286  0.00  0.00    +0.000 A 
ATOM      5  C   UNL     1       0.833   9.363  20.424  0.00  0.00    +0.000 A 
ATOM      6  N   UNL     1       1.452   8.169  20.504  0.00  0.00    +0.000 NA
ENDROOT
BRANCH   1   7
ATOM      7  O   UNL     1       2.925   6.616  19.508  0.00  0.00    +0.000 OA
BRANCH   7  12
ATOM      8  F   UNL     1       0.288   1.860  18.668  0.00  0.00    +0.000 F 
ATOM      9  C   UNL     1       0.960   2.996  18.894  0.00  0.00    +0.000 A 
ATOM     10  C   UNL     1       1.600   3.640  17.840  0.00  0.00    +0.000 A 
ATOM     11  C   UNL     1       2.271   4.845  18.066  0.00  0.00    +0.000 A 
ATOM     12  C   UNL     1       2.287   5.400  19.348  0.00  0.00    +0.000 A 
ATOM     13  C   UNL     1       1.696   4.699  20.413  0.00  0.00    +0.000 A 
ATOM     14  C   UNL     1       1.009   3.513  20.181  0.00  0.00    +0.000 A 
ENDBRANCH   7  12
ENDBRANCH   1   7
BRANCH   4  15
ATOM     15  C   UNL     1       0.153  11.509  19.311  0.00  0.00    +0.000 C 
BRANCH  15  16
ATOM     16  N   UNL     1      -0.438  11.751  18.008  0.00  0.00    +0.000 N 
ATOM     17  H   UNL     1      -0.252  12.682  17.650  0.00  0.00    +0.000 HD
BRANCH  16  18
ATOM     18  C   UNL     1      -1.780  11.416  17.871  0.00  0.00    +0.000 A 
ATOM     19  N   UNL     1      -2.234  10.580  16.914  0.00  0.00    +0.000 NA
ATOM     20  C   UNL     1      -3.558  10.305  16.866  0.00  0.00    +0.000 A 
ATOM     21  N   UNL     1      -4.532  10.767  17.661  0.00  0.00    +0.000 NA
ATOM     22  C   UNL     1      -4.069  11.619  18.592  0.00  0.00    +0.000 A 
ATOM     23  N   UNL     1      -4.829  12.276  19.521  0.00  0.00    +0.000 NA
ATOM     24  C   UNL     1      -3.979  13.026  20.188  0.00  0.00    +0.000 A 
ATOM     25  N   UNL     1      -2.700  12.862  19.737  0.00  0.00    +0.000 N 
ATOM     26  C   UNL     1      -2.735  11.952  18.718  0.00  0.00    +0.000 A 
ATOM     27  H   UNL     1      -1.878  13.352  20.061  0.00  0.00    +0.000 HD
ENDBRANCH  16  18
ENDBRANCH  15  16
ENDBRANCH   4  15
TORSDOF 5
ENDMDL
MODEL 7
REMARK VINA RESULT:      -7.9      6.054      8.557
REMARK  Name = 
REMARK  5 active torsions:
REMARK  status: ('A' for Active; 'I' for Inactive)
REMARK    1  A    between atoms: C_5  and  O_6
REMARK    2  A    between atoms: O_6  and  C_7
REMARK    3  A    between atoms: C_10  and  C_11
REMARK    4  A    between atoms: C_11  and  N_12
REMARK    5  A    between atoms: N_12  and  C_13
REMARK                            x       y       z     vdW  Elec       q    Type
REMARK                         _______ _______ _______ _____ _____    ______ ____
ROOT
ATOM      1  C   UNL     1       6.517   6.044  16.247  0.00  0.00    +0.000 A 
ATOM      2  C   UNL     1       6.649   5.490  17.510  0.00  0.00    +0.000 A 
ATOM      3  C   UNL     1       5.606   5.676  18.421  0.00  0.00    +0.000 A 
ATOM      4  C   UNL     1       4.470   6.401  18.039  0.00  0.00    +0.000 A 
ATOM      5  C   UNL     1       4.480   6.983  16.775  0.00  0.00    +0.000 A 
ATOM      6  N   UNL     1       5.479   6.832  15.883  0.00  0.00    +0.000 NA
ENDROOT
BRANCH   1   7
ATOM      7  O   UNL     1       7.476   5.717  15.296  0.00  0.00    +0.000 OA
BRANCH   7  12
ATOM      8  F   UNL     1       5.853   2.623  11.045  0.00  0.00    +0.000 F 
ATOM      9  C   UNL     1       6.264   3.340  12.098  0.00  0.00    +0.000 A 
ATOM     10  C   UNL     1       7.325   4.229  11.956  0.00  0.00    +0.000 A 
ATOM     11  C   UNL     1       7.732   5.006  13.044  0.00  0.00    +0.000 A 
ATOM     12  C   UNL     1       7.064   4.892  14.266  0.00  0.00    +0.000 A 
ATOM     13  C   UNL     1       6.042   3.939  14.410  0.00  0.00    +0.000 A 
ATOM     14  C   UNL     1       5.623   3.185  13.319  0.00  0.00    +0.000 A 
ENDBRANCH   7  12
ENDBRANCH   1   7
BRANCH   4  15
ATOM     15  C   UNL     1       3.283   6.587  18.946  0.00  0.00    +0.000 C 
BRANCH  15  16
ATOM     16  N   UNL     1       2.150   5.886  18.373  0.00  0.00    +0.000 N 
ATOM     17  H   UNL     1       1.256   6.267  18.660  0.00  0.00    +0.000 HD
BRANCH  16  18
ATOM     18  C   UNL     1       2.166   4.500  18.484  0.00  0.00    +0.000 A 
ATOM     19  N   UNL     1       2.277   3.679  17.419  0.00  0.00    +0.000 NA
ATOM     20  C   UNL     1       2.294   2.343  17.628  0.00  0.00    +0.000 A 
ATOM     21  N   UNL     1       2.206   1.682  18.789  0.00  0.00    +0.000 NA
ATOM     22  C   UNL     1       2.070   2.511  19.839  0.00  0.00    +0.000 A 
ATOM     23  N   UNL     1       1.922   2.128  21.144  0.00  0.00    +0.000 NA
ATOM     24  C   UNL     1       1.781   3.251  21.815  0.00  0.00    +0.000 A 
ATOM     25  N   UNL     1       1.851   4.341  20.994  0.00  0.00    +0.000 N 
ATOM     26  C   UNL     1       2.048   3.885  19.720  0.00  0.00    +0.000 A 
ATOM     27  H   UNL     1       1.736   5.307  21.263  0.00  0.00    +0.000 HD
ENDBRANCH  16  18
ENDBRANCH  15  16
ENDBRANCH   4  15
TORSDOF 5
ENDMDL
MODEL 8
REMARK VINA RESULT:      -7.8      0.848      1.163
REMARK  Name = 
REMARK  5 active torsions:
REMARK  status: ('A' for Active; 'I' for Inactive)
REMARK    1  A    between atoms: C_5  and  O_6
REMARK    2  A    between atoms: O_6  and  C_7
REMARK    3  A    between atoms: C_10  and  C_11
REMARK    4  A    between atoms: C_11  and  N_12
REMARK    5  A    between atoms: N_12  and  C_13
REMARK                            x       y       z     vdW  Elec       q    Type
REMARK                         _______ _______ _______ _____ _____    ______ ____
ROOT
ATOM      1  C   UNL     1       2.267   7.660  19.822  0.00  0.00    +0.000 A 
ATOM      2  C   UNL     1       1.491   7.989  20.922  0.00  0.00    +0.000 A 
ATOM      3  C   UNL     1       0.620   9.075  20.810  0.00  0.00    +0.000 A 
ATOM      4  C   UNL     1       0.551   9.790  19.607  0.00  0.00    +0.000 A 
ATOM      5  C   UNL     1       1.436   9.425  18.596  0.00  0.00    +0.000 A 
ATOM      6  N   UNL     1       2.295   8.390  18.684  0.00  0.00    +0.000 NA
ENDROOT
BRANCH   1   7
ATOM      7  O   UNL     1       3.004   6.483  19.883  0.00  0.00    +0.000 OA
BRANCH   7  12
ATOM      8  F   UNL     1       0.180   1.947  18.571  0.00  0.00    +0.000 F 
ATOM      9  C   UNL     1       0.898   3.026  18.906  0.00  0.00    +0.000 A 
ATOM     10  C   UNL     1       1.497   3.793  17.912  0.00  0.00    +0.000 A 
ATOM     11  C   UNL     1       2.217   4.940  18.258  0.00  0.00    +0.000 A 
ATOM     12  C   UNL     1       2.322   5.315  19.600  0.00  0.00    +0.000 A 
ATOM     13  C   UNL     1       1.770   4.490  20.594  0.00  0.00    +0.000 A 
ATOM     14  C   UNL     1       1.034   3.362  20.246  0.00  0.00    +0.000 A 
ENDBRANCH   7  12
ENDBRANCH   1   7
BRANCH   4  15
ATOM     15  C   UNL     1      -0.408  10.931  19.394  0.00  0.00    +0.000 C 
BRANCH  15  16
ATOM     16  N   UNL     1      -0.801  10.949  17.998  0.00  0.00    +0.000 N 
ATOM     17  H   UNL     1      -0.233  11.568  17.430  0.00  0.00    +0.000 HD
BRANCH  16  18
ATOM     18  C   UNL     1      -2.155  11.132  17.743  0.00  0.00    +0.000 A 
ATOM     19  N   UNL     1      -3.015  11.622  18.660  0.00  0.00    +0.000 NA
ATOM     20  C   UNL     1      -4.314  11.774  18.317  0.00  0.00    +0.000 A 
ATOM     21  N   UNL     1      -4.903  11.492  17.148  0.00  0.00    +0.000 NA
ATOM     22  C   UNL     1      -4.040  10.981  16.252  0.00  0.00    +0.000 A 
ATOM     23  N   UNL     1      -4.356  10.566  14.987  0.00  0.00    +0.000 NA
ATOM     24  C   UNL     1      -3.230  10.105  14.489  0.00  0.00    +0.000 A 
ATOM     25  N   UNL     1      -2.198  10.224  15.378  0.00  0.00    +0.000 N 
ATOM     26  C   UNL     1      -2.698  10.796  16.515  0.00  0.00    +0.000 A 
ATOM     27  H   UNL     1      -1.248   9.909  15.246  0.00  0.00    +0.000 HD
ENDBRANCH  16  18
ENDBRANCH  15  16
ENDBRANCH   4  15
TORSDOF 5
ENDMDL
MODEL 9
REMARK VINA RESULT:      -7.8      5.987      8.476
REMARK  Name = 
REMARK  5 active torsions:
REMARK  status: ('A' for Active; 'I' for Inactive)
REMARK    1  A    between atoms: C_5  and  O_6
REMARK    2  A    between atoms: O_6  and  C_7
REMARK    3  A    between atoms: C_10  and  C_11
REMARK    4  A    between atoms: C_11  and  N_12
REMARK    5  A    between atoms: N_12  and  C_13
REMARK                            x       y       z     vdW  Elec       q    Type
REMARK                         _______ _______ _______ _____ _____    ______ ____
ROOT
ATOM      1  C   UNL     1       6.517   5.995  16.252  0.00  0.00    +0.000 A 
ATOM      2  C   UNL     1       6.621   5.517  17.549  0.00  0.00    +0.000 A 
ATOM      3  C   UNL     1       5.572   5.780  18.432  0.00  0.00    +0.000 A 
ATOM      4  C   UNL     1       4.457   6.504  17.992  0.00  0.00    +0.000 A 
ATOM      5  C   UNL     1       4.495   7.008  16.694  0.00  0.00    +0.000 A 
ATOM      6  N   UNL     1       5.501   6.780  15.827  0.00  0.00    +0.000 NA
ENDROOT
BRANCH   1   7
ATOM      7  O   UNL     1       7.480   5.589  15.336  0.00  0.00    +0.000 OA
BRANCH   7  12
ATOM      8  F   UNL     1       5.651   2.502  11.165  0.00  0.00    +0.000 F 
ATOM      9  C   UNL     1       6.082   3.288  12.160  0.00  0.00    +0.000 A 
ATOM     10  C   UNL     1       5.441   3.251  13.394  0.00  0.00    +0.000 A 
ATOM     11  C   UNL     1       5.912   4.044  14.445  0.00  0.00    +0.000 A 
ATOM     12  C   UNL     1       7.029   4.861  14.252  0.00  0.00    +0.000 A 
ATOM     13  C   UNL     1       7.618   4.937  12.978  0.00  0.00    +0.000 A 
ATOM     14  C   UNL     1       7.163   4.130  11.942  0.00  0.00    +0.000 A 
ENDBRANCH   7  12
ENDBRANCH   1   7
BRANCH   4  15
ATOM     15  C   UNL     1       3.263   6.771  18.870  0.00  0.00    +0.000 C 
BRANCH  15  16
ATOM     16  N   UNL     1       2.185   5.890  18.463  0.00  0.00    +0.000 N 
ATOM     17  H   UNL     1       1.300   6.369  18.342  0.00  0.00    +0.000 HD
BRANCH  16  18
ATOM     18  C   UNL     1       2.031   4.725  19.206  0.00  0.00    +0.000 A 
ATOM     19  N   UNL     1       1.384   4.690  20.389  0.00  0.00    +0.000 NA
ATOM     20  C   UNL     1       1.275   3.507  21.036  0.00  0.00    +0.000 A 
ATOM     21  N   UNL     1       1.742   2.309  20.661  0.00  0.00    +0.000 NA
ATOM     22  C   UNL     1       2.406   2.364  19.493  0.00  0.00    +0.000 A 
ATOM     23  N   UNL     1       3.023   1.309  18.877  0.00  0.00    +0.000 NA
ATOM     24  C   UNL     1       3.576   1.821  17.799  0.00  0.00    +0.000 A 
ATOM     25  N   UNL     1       3.322   3.160  17.688  0.00  0.00    +0.000 N 
ATOM     26  C   UNL     1       2.562   3.525  18.764  0.00  0.00    +0.000 A 
ATOM     27  H   UNL     1       3.666   3.782  16.972  0.00  0.00    +0.000 HD
ENDBRANCH  16  18
ENDBRANCH  15  16
ENDBRANCH   4  15
TORSDOF 5
ENDMDL
