MODEL 1
REMARK VINA RESULT:      -9.0      0.000      0.000
REMARK  Name = 
REMARK  4 active torsions:
REMARK  status: ('A' for Active; 'I' for Inactive)
REMARK    1  A    between atoms: N_7  and  C_8
REMARK    2  A    between atoms: C_12  and  C_13
REMARK    3  A    between atoms: C_13  and  N_14
REMARK    4  A    between atoms: N_14  and  C_15
REMARK                            x       y       z     vdW  Elec       q    Type
REMARK                         _______ _______ _______ _____ _____    ______ ____
ROOT
ATOM      1  C   UNL     1       4.613   5.391  17.988  0.00  0.00    +0.000 A 
ATOM      2  C   UNL     1       4.137   4.315  17.243  0.00  0.00    +0.000 A 
ATOM      3  C   UNL     1       2.854   3.824  17.483  0.00  0.00    +0.000 A 
ATOM      4  C   UNL     1       2.051   4.405  18.472  0.00  0.00    +0.000 A 
ATOM      5  C   UNL     1       2.515   5.492  19.230  0.00  0.00    +0.000 A 
ATOM      6  C   UNL     1       3.812   5.979  18.975  0.00  0.00    +0.000 A 
ENDROOT
BRANCH   1  13
ATOM      7  O   UNL     1       6.890   5.083  19.985  0.00  0.00    +0.000 OA
ATOM      8  S   UNL     1       7.251   5.345  18.612  0.00  0.00    +0.000 S 
ATOM      9  O   UNL     1       7.974   4.389  17.792  0.00  0.00    +0.000 OA
ATOM     10  C   UNL     1       8.084   6.917  18.499  0.00  0.00    +0.000 C 
ATOM     11  C   UNL     1       7.326   7.759  17.466  0.00  0.00    +0.000 C 
ATOM     12  C   UNL     1       6.248   6.908  16.780  0.00  0.00    +0.000 C 
ATOM     13  N   UNL     1       5.918   5.876  17.748  0.00  0.00    +0.000 N 
ENDBRANCH   1  13
BRANCH   5  14
ATOM     14  C   UNL     1       1.692   6.022  20.402  0.00  0.00    +0.000 C 
BRANCH  14  15
ATOM     15  N   UNL     1       2.146   7.380  20.626  0.00  0.00    +0.000 N 
ATOM     16  H   UNL     1       3.129   7.461  20.377  0.00  0.00    +0.000 HD
BRANCH  15  17
ATOM     17  C   UNL     1       1.474   8.497  20.110  0.00  0.00    +0.000 A 
ATOM     18  N   UNL     1       1.586   8.841  18.818  0.00  0.00    +0.000 NA
ATOM     19  C   UNL     1       0.927   9.952  18.451  0.00  0.00    +0.000 A 
ATOM     20  N   UNL     1       0.182  10.754  19.232  0.00  0.00    +0.000 NA
ATOM     21  C   UNL     1       0.061  10.390  20.514  0.00  0.00    +0.000 A 
ATOM     22  C   UNL     1      -0.680  11.173  21.401  0.00  0.00    +0.000 A 
ATOM     23  C   UNL     1      -0.825  10.833  22.750  0.00  0.00    +0.000 A 
ATOM     24  C   UNL     1      -0.253   9.667  23.234  0.00  0.00    +0.000 A 
ATOM     25  C   UNL     1       0.479   8.865  22.367  0.00  0.00    +0.000 A 
ATOM     26  C   UNL     1       0.673   9.232  21.012  0.00  0.00    +0.000 A 
ENDBRANCH  15  17
ENDBRANCH  14  15
ENDBRANCH   5  14
TORSDOF 4
ENDMDL
MODEL 2
REMARK VINA RESULT:      -8.5      1.025      2.078
REMARK  Name = 
REMARK  4 active torsions:
REMARK  status: ('A' for Active; 'I' for Inactive)
REMARK    1  A    between atoms: N_7  and  C_8
REMARK    2  A    between atoms: C_12  and  C_13
REMARK    3  A    between atoms: C_13  and  N_14
REMARK    4  A    between atoms: N_14  and  C_15
REMARK                            x       y       z     vdW  Elec       q    Type
REMARK                         _______ _______ _______ _____ _____    ______ ____
ROOT
ATOM      1  C   UNL     1       4.497   5.454  18.131  0.00  0.00    +0.000 A 
ATOM      2  C   UNL     1       3.978   4.364  17.436  0.00  0.00    +0.000 A 
ATOM      3  C   UNL     1       2.691   3.911  17.728  0.00  0.00    +0.000 A 
ATOM      4  C   UNL     1       1.929   4.543  18.718  0.00  0.00    +0.000 A 
ATOM      5  C   UNL     1       2.438   5.644  19.425  0.00  0.00    +0.000 A 
ATOM      6  C   UNL     1       3.737   6.093  19.119  0.00  0.00    +0.000 A 
ENDROOT
BRANCH   1  13
ATOM      7  O   UNL     1       6.837   5.101  20.048  0.00  0.00    +0.000 OA
ATOM      8  S   UNL     1       7.155   5.341  18.660  0.00  0.00    +0.000 S 
ATOM      9  O   UNL     1       7.821   4.358  17.824  0.00  0.00    +0.000 OA
ATOM     10  C   UNL     1       8.025   6.889  18.501  0.00  0.00    +0.000 C 
ATOM     11  C   UNL     1       7.253   7.742  17.487  0.00  0.00    +0.000 C 
ATOM     12  C   UNL     1       6.129   6.914  16.850  0.00  0.00    +0.000 C 
ATOM     13  N   UNL     1       5.806   5.900  17.839  0.00  0.00    +0.000 N 
ENDBRANCH   1  13
BRANCH   5  14
ATOM     14  C   UNL     1       1.660   6.233  20.599  0.00  0.00    +0.000 C 
BRANCH  14  15
ATOM     15  N   UNL     1       2.047   7.627  20.677  0.00  0.00    +0.000 N 
ATOM     16  H   UNL     1       2.403   7.936  19.776  0.00  0.00    +0.000 HD
BRANCH  15  17
ATOM     17  C   UNL     1       1.194   8.623  21.172  0.00  0.00    +0.000 A 
ATOM     18  N   UNL     1       1.016   8.795  22.491  0.00  0.00    +0.000 NA
ATOM     19  C   UNL     1       0.144   9.754  22.842  0.00  0.00    +0.000 A 
ATOM     20  N   UNL     1      -0.570  10.547  22.023  0.00  0.00    +0.000 NA
ATOM     21  C   UNL     1      -0.370  10.380  20.711  0.00  0.00    +0.000 A 
ATOM     22  C   UNL     1      -1.082  11.148  19.788  0.00  0.00    +0.000 A 
ATOM     23  C   UNL     1      -0.908  11.000  18.407  0.00  0.00    +0.000 A 
ATOM     24  C   UNL     1       0.020  10.094  17.921  0.00  0.00    +0.000 A 
ATOM     25  C   UNL     1       0.749   9.326  18.821  0.00  0.00    +0.000 A 
ATOM     26  C   UNL     1       0.540   9.434  20.219  0.00  0.00    +0.000 A 
ENDBRANCH  15  17
ENDBRANCH  14  15
ENDBRANCH   5  14
TORSDOF 4
ENDMDL
MODEL 3
REMARK VINA RESULT:      -8.4      1.797      2.012
REMARK  Name = 
REMARK  4 active torsions:
REMARK  status: ('A' for Active; 'I' for Inactive)
REMARK    1  A    between atoms: N_7  and  C_8
REMARK    2  A    between atoms: C_12  and  C_13
REMARK    3  A    between atoms: C_13  and  N_14
REMARK    4  A    between atoms: N_14  and  C_15
REMARK                            x       y       z     vdW  Elec       q    Type
REMARK                         _______ _______ _______ _____ _____    ______ ____
ROOT
ATOM      1  C   UNL     1       4.322   4.544  19.179  0.00  0.00    +0.000 A 
ATOM      2  C   UNL     1       4.287   3.234  19.650  0.00  0.00    +0.000 A 
ATOM      3  C   UNL     1       3.232   2.823  20.465  0.00  0.00    +0.000 A 
ATOM      4  C   UNL     1       2.218   3.724  20.814  0.00  0.00    +0.000 A 
ATOM      5  C   UNL     1       2.239   5.048  20.345  0.00  0.00    +0.000 A 
ATOM      6  C   UNL     1       3.309   5.448  19.521  0.00  0.00    +0.000 A 
ENDROOT
BRANCH   1  13
ATOM      7  O   UNL     1       4.471   3.943  16.198  0.00  0.00    +0.000 OA
ATOM      8  S   UNL     1       5.294   5.021  16.693  0.00  0.00    +0.000 S 
ATOM      9  O   UNL     1       5.096   6.405  16.303  0.00  0.00    +0.000 OA
ATOM     10  C   UNL     1       7.015   4.618  16.462  0.00  0.00    +0.000 C 
ATOM     11  C   UNL     1       7.697   4.736  17.831  0.00  0.00    +0.000 C 
ATOM     12  C   UNL     1       6.717   5.318  18.859  0.00  0.00    +0.000 C 
ATOM     13  N   UNL     1       5.400   4.957  18.364  0.00  0.00    +0.000 N 
ENDBRANCH   1  13
BRANCH   5  14
ATOM     14  C   UNL     1       1.213   6.060  20.848  0.00  0.00    +0.000 C 
BRANCH  14  15
ATOM     15  N   UNL     1       1.904   7.333  20.910  0.00  0.00    +0.000 N 
ATOM     16  H   UNL     1       2.875   7.211  20.635  0.00  0.00    +0.000 HD
BRANCH  15  17
ATOM     17  C   UNL     1       1.416   8.489  20.284  0.00  0.00    +0.000 A 
ATOM     18  N   UNL     1       1.699   8.757  18.999  0.00  0.00    +0.000 NA
ATOM     19  C   UNL     1       1.208   9.913  18.523  0.00  0.00    +0.000 A 
ATOM     20  N   UNL     1       0.480  10.826  19.190  0.00  0.00    +0.000 NA
ATOM     21  C   UNL     1       0.188  10.539  20.464  0.00  0.00    +0.000 A 
ATOM     22  C   UNL     1      -0.548  11.438  21.236  0.00  0.00    +0.000 A 
ATOM     23  C   UNL     1      -0.869  11.180  22.573  0.00  0.00    +0.000 A 
ATOM     24  C   UNL     1      -0.484   9.984  23.158  0.00  0.00    +0.000 A 
ATOM     25  C   UNL     1       0.240   9.068  22.405  0.00  0.00    +0.000 A 
ATOM     26  C   UNL     1       0.613   9.347  21.066  0.00  0.00    +0.000 A 
ENDBRANCH  15  17
ENDBRANCH  14  15
ENDBRANCH   5  14
TORSDOF 4
ENDMDL
MODEL 4
REMARK VINA RESULT:      -8.4      2.472      3.863
REMARK  Name = 
REMARK  4 active torsions:
REMARK  status: ('A' for Active; 'I' for Inactive)
REMARK    1  A    between atoms: N_7  and  C_8
REMARK    2  A    between atoms: C_12  and  C_13
REMARK    3  A    between atoms: C_13  and  N_14
REMARK    4  A    between atoms: N_14  and  C_15
REMARK                            x       y       z     vdW  Elec       q    Type
REMARK                         _______ _______ _______ _____ _____    ______ ____
ROOT
ATOM      1  C   UNL     1       3.267   5.161  18.633  0.00  0.00    +0.000 A 
ATOM      2  C   UNL     1       4.491   5.091  17.971  0.00  0.00    +0.000 A 
ATOM      3  C   UNL     1       4.974   6.210  17.294  0.00  0.00    +0.000 A 
ATOM      4  C   UNL     1       4.230   7.396  17.273  0.00  0.00    +0.000 A 
ATOM      5  C   UNL     1       2.995   7.484  17.936  0.00  0.00    +0.000 A 
ATOM      6  C   UNL     1       2.521   6.347  18.619  0.00  0.00    +0.000 A 
ENDROOT
BRANCH   1  13
ATOM      7  O   UNL     1       2.054   2.773  17.185  0.00  0.00    +0.000 OA
ATOM      8  S   UNL     1       2.522   2.556  18.534  0.00  0.00    +0.000 S 
ATOM      9  O   UNL     1       3.631   1.674  18.849  0.00  0.00    +0.000 OA
ATOM     10  C   UNL     1       1.149   2.121  19.584  0.00  0.00    +0.000 C 
ATOM     11  C   UNL     1       1.144   3.108  20.757  0.00  0.00    +0.000 C 
ATOM     12  C   UNL     1       2.398   3.991  20.709  0.00  0.00    +0.000 C 
ATOM     13  N   UNL     1       2.778   4.020  19.307  0.00  0.00    +0.000 N 
ENDBRANCH   1  13
BRANCH   5  14
ATOM     14  C   UNL     1       2.125   8.730  17.786  0.00  0.00    +0.000 C 
BRANCH  14  15
ATOM     15  N   UNL     1       1.528   8.959  19.086  0.00  0.00    +0.000 N 
ATOM     16  H   UNL     1       2.217   8.797  19.816  0.00  0.00    +0.000 HD
BRANCH  15  17
ATOM     17  C   UNL     1       0.829  10.133  19.400  0.00  0.00    +0.000 A 
ATOM     18  N   UNL     1       0.759  11.155  18.533  0.00  0.00    +0.000 NA
ATOM     19  C   UNL     1       0.095  12.240  18.963  0.00  0.00    +0.000 A 
ATOM     20  N   UNL     1      -0.493  12.416  20.160  0.00  0.00    +0.000 NA
ATOM     21  C   UNL     1      -0.434  11.384  21.009  0.00  0.00    +0.000 A 
ATOM     22  C   UNL     1      -1.002  11.485  22.279  0.00  0.00    +0.000 A 
ATOM     23  C   UNL     1      -0.955  10.432  23.200  0.00  0.00    +0.000 A 
ATOM     24  C   UNL     1      -0.363   9.230  22.846  0.00  0.00    +0.000 A 
ATOM     25  C   UNL     1       0.199   9.102  21.582  0.00  0.00    +0.000 A 
ATOM     26  C   UNL     1       0.202  10.183  20.665  0.00  0.00    +0.000 A 
ENDBRANCH  15  17
ENDBRANCH  14  15
ENDBRANCH   5  14
TORSDOF 4
ENDMDL
MODEL 5
REMARK VINA RESULT:      -8.3      1.348      1.607
REMARK  Name = 
REMARK  4 active torsions:
REMARK  status: ('A' for Active; 'I' for Inactive)
REMARK    1  A    between atoms: N_7  and  C_8
REMARK    2  A    between atoms: C_12  and  C_13
REMARK    3  A    between atoms: C_13  and  N_14
REMARK    4  A    between atoms: N_14  and  C_15
REMARK                            x       y       z     vdW  Elec       q    Type
REMARK                         _______ _______ _______ _____ _____    ______ ____
ROOT
ATOM      1  C   UNL     1       4.513   4.052  18.718  0.00  0.00    +0.000 A 
ATOM      2  C   UNL     1       4.640   2.824  19.364  0.00  0.00    +0.000 A 
ATOM      3  C   UNL     1       3.744   2.483  20.377  0.00  0.00    +0.000 A 
ATOM      4  C   UNL     1       2.726   3.371  20.746  0.00  0.00    +0.000 A 
ATOM      5  C   UNL     1       2.583   4.611  20.103  0.00  0.00    +0.000 A 
ATOM      6  C   UNL     1       3.494   4.941  19.080  0.00  0.00    +0.000 A 
ENDROOT
BRANCH   1  13
ATOM      7  O   UNL     1       6.842   5.961  19.165  0.00  0.00    +0.000 OA
ATOM      8  S   UNL     1       6.928   5.074  18.029  0.00  0.00    +0.000 S 
ATOM      9  O   UNL     1       7.933   4.032  17.918  0.00  0.00    +0.000 OA
ATOM     10  C   UNL     1       6.945   6.027  16.523  0.00  0.00    +0.000 C 
ATOM     11  C   UNL     1       5.804   5.505  15.642  0.00  0.00    +0.000 C 
ATOM     12  C   UNL     1       5.176   4.258  16.278  0.00  0.00    +0.000 C 
ATOM     13  N   UNL     1       5.431   4.396  17.701  0.00  0.00    +0.000 N 
ENDBRANCH   1  13
BRANCH   5  14
ATOM     14  C   UNL     1       1.566   5.630  20.609  0.00  0.00    +0.000 C 
BRANCH  14  15
ATOM     15  N   UNL     1       2.258   6.903  20.641  0.00  0.00    +0.000 N 
ATOM     16  H   UNL     1       3.231   6.773  20.378  0.00  0.00    +0.000 HD
BRANCH  15  17
ATOM     17  C   UNL     1       1.777   8.041  19.978  0.00  0.00    +0.000 A 
ATOM     18  N   UNL     1       2.037   8.251  18.678  0.00  0.00    +0.000 NA
ATOM     19  C   UNL     1       1.557   9.396  18.165  0.00  0.00    +0.000 A 
ATOM     20  N   UNL     1       0.859  10.348  18.808  0.00  0.00    +0.000 NA
ATOM     21  C   UNL     1       0.588  10.119  20.098  0.00  0.00    +0.000 A 
ATOM     22  C   UNL     1      -0.117  11.062  20.847  0.00  0.00    +0.000 A 
ATOM     23  C   UNL     1      -0.414  10.864  22.200  0.00  0.00    +0.000 A 
ATOM     24  C   UNL     1      -0.037   9.686  22.826  0.00  0.00    +0.000 A 
ATOM     25  C   UNL     1       0.656   8.728  22.097  0.00  0.00    +0.000 A 
ATOM     26  C   UNL     1       1.005   8.945  20.740  0.00  0.00    +0.000 A 
ENDBRANCH  15  17
ENDBRANCH  14  15
ENDBRANCH   5  14
TORSDOF 4
ENDMDL
MODEL 6
REMARK VINA RESULT:      -8.3      2.358      3.619
REMARK  Name = 
REMARK  4 active torsions:
REMARK  status: ('A' for Active; 'I' for Inactive)
REMARK    1  A    between atoms: N_7  and  C_8
REMARK    2  A    between atoms: C_12  and  C_13
REMARK    3  A    between atoms: C_13  and  N_14
REMARK    4  A    between atoms: N_14  and  C_15
REMARK                            x       y       z     vdW  Elec       q    Type
REMARK                         _______ _______ _______ _____ _____    ______ ____
ROOT
ATOM      1  C   UNL     1       3.926   5.993  18.123  0.00  0.00    +0.000 A 
ATOM      2  C   UNL     1       3.430   5.532  19.341  0.00  0.00    +0.000 A 
ATOM      3  C   UNL     1       2.497   6.298  20.039  0.00  0.00    +0.000 A 
ATOM      4  C   UNL     1       2.066   7.526  19.523  0.00  0.00    +0.000 A 
ATOM      5  C   UNL     1       2.554   8.004  18.296  0.00  0.00    +0.000 A 
ATOM      6  C   UNL     1       3.494   7.218  17.600  0.00  0.00    +0.000 A 
ENDROOT
BRANCH   1  13
ATOM      7  O   UNL     1       6.812   6.878  17.725  0.00  0.00    +0.000 OA
ATOM      8  S   UNL     1       6.529   5.470  17.573  0.00  0.00    +0.000 S 
ATOM      9  O   UNL     1       7.067   4.459  18.464  0.00  0.00    +0.000 OA
ATOM     10  C   UNL     1       6.863   4.969  15.895  0.00  0.00    +0.000 C 
ATOM     11  C   UNL     1       5.586   4.314  15.355  0.00  0.00    +0.000 C 
ATOM     12  C   UNL     1       4.553   4.165  16.479  0.00  0.00    +0.000 C 
ATOM     13  N   UNL     1       4.879   5.217  17.426  0.00  0.00    +0.000 N 
ENDBRANCH   1  13
BRANCH   5  14
ATOM     14  C   UNL     1       2.191   9.406  17.814  0.00  0.00    +0.000 C 
BRANCH  14  15
ATOM     15  N   UNL     1       0.744   9.444  17.748  0.00  0.00    +0.000 N 
ATOM     16  H   UNL     1       0.366   8.520  17.940  0.00  0.00    +0.000 HD
BRANCH  15  17
ATOM     17  C   UNL     1      -0.020  10.382  18.456  0.00  0.00    +0.000 A 
ATOM     18  N   UNL     1       0.504  11.080  19.476  0.00  0.00    +0.000 NA
ATOM     19  C   UNL     1      -0.338  11.920  20.101  0.00  0.00    +0.000 A 
ATOM     20  N   UNL     1      -1.638  12.127  19.825  0.00  0.00    +0.000 NA
ATOM     21  C   UNL     1      -2.144  11.441  18.794  0.00  0.00    +0.000 A 
ATOM     22  C   UNL     1      -3.488  11.582  18.448  0.00  0.00    +0.000 A 
ATOM     23  C   UNL     1      -4.060  10.877  17.383  0.00  0.00    +0.000 A 
ATOM     24  C   UNL     1      -3.274  10.035  16.612  0.00  0.00    +0.000 A 
ATOM     25  C   UNL     1      -1.930   9.888  16.930  0.00  0.00    +0.000 A 
ATOM     26  C   UNL     1      -1.358  10.558  18.040  0.00  0.00    +0.000 A 
ENDBRANCH  15  17
ENDBRANCH  14  15
ENDBRANCH   5  14
TORSDOF 4
ENDMDL
MODEL 7
REMARK VINA RESULT:      -8.3      1.639      2.219
REMARK  Name = 
REMARK  4 active torsions:
REMARK  status: ('A' for Active; 'I' for Inactive)
REMARK    1  A    between atoms: N_7  and  C_8
REMARK    2  A    between atoms: C_12  and  C_13
REMARK    3  A    between atoms: C_13  and  N_14
REMARK    4  A    between atoms: N_14  and  C_15
REMARK                            x       y       z     vdW  Elec       q    Type
REMARK                         _______ _______ _______ _____ _____    ______ ____
ROOT
ATOM      1  C   UNL     1       4.308   5.398  18.061  0.00  0.00    +0.000 A 
ATOM      2  C   UNL     1       3.991   4.754  19.254  0.00  0.00    +0.000 A 
ATOM      3  C   UNL     1       3.017   5.297  20.092  0.00  0.00    +0.000 A 
ATOM      4  C   UNL     1       2.367   6.486  19.740  0.00  0.00    +0.000 A 
ATOM      5  C   UNL     1       2.675   7.147  18.539  0.00  0.00    +0.000 A 
ATOM      6  C   UNL     1       3.658   6.586  17.701  0.00  0.00    +0.000 A 
ENDROOT
BRANCH   1  13
ATOM      7  O   UNL     1       6.958   6.790  17.502  0.00  0.00    +0.000 OA
ATOM      8  S   UNL     1       6.897   5.370  17.252  0.00  0.00    +0.000 S 
ATOM      9  O   UNL     1       7.677   4.404  18.003  0.00  0.00    +0.000 OA
ATOM     10  C   UNL     1       7.143   5.055  15.514  0.00  0.00    +0.000 C 
ATOM     11  C   UNL     1       5.945   4.231  15.027  0.00  0.00    +0.000 C 
ATOM     12  C   UNL     1       5.064   3.827  16.218  0.00  0.00    +0.000 C 
ATOM     13  N   UNL     1       5.304   4.849  17.222  0.00  0.00    +0.000 N 
ENDBRANCH   1  13
BRANCH   5  14
ATOM     14  C   UNL     1       2.069   8.514  18.234  0.00  0.00    +0.000 C 
BRANCH  14  15
ATOM     15  N   UNL     1       1.440   8.956  19.462  0.00  0.00    +0.000 N 
ATOM     16  H   UNL     1       2.148   9.112  20.175  0.00  0.00    +0.000 HD
BRANCH  15  17
ATOM     17  C   UNL     1       0.536  10.027  19.506  0.00  0.00    +0.000 A 
ATOM     18  N   UNL     1       0.274  10.762  18.414  0.00  0.00    +0.000 NA
ATOM     19  C   UNL     1      -0.579  11.784  18.590  0.00  0.00    +0.000 A 
ATOM     20  N   UNL     1      -1.185  12.153  19.732  0.00  0.00    +0.000 NA
ATOM     21  C   UNL     1      -0.933  11.401  20.810  0.00  0.00    +0.000 A 
ATOM     22  C   UNL     1      -1.506  11.721  22.041  0.00  0.00    +0.000 A 
ATOM     23  C   UNL     1      -1.261  10.966  23.194  0.00  0.00    +0.000 A 
ATOM     24  C   UNL     1      -0.457   9.840  23.124  0.00  0.00    +0.000 A 
ATOM     25  C   UNL     1       0.116   9.495  21.906  0.00  0.00    +0.000 A 
ATOM     26  C   UNL     1      -0.086  10.286  20.747  0.00  0.00    +0.000 A 
ENDBRANCH  15  17
ENDBRANCH  14  15
ENDBRANCH   5  14
TORSDOF 4
ENDMDL
MODEL 8
REMARK VINA RESULT:      -8.2      1.655      1.811
REMARK  Name = 
REMARK  4 active torsions:
REMARK  status: ('A' for Active; 'I' for Inactive)
REMARK    1  A    between atoms: N_7  and  C_8
REMARK    2  A    between atoms: C_12  and  C_13
REMARK    3  A    between atoms: C_13  and  N_14
REMARK    4  A    between atoms: N_14  and  C_15
REMARK                            x       y       z     vdW  Elec       q    Type
REMARK                         _______ _______ _______ _____ _____    ______ ____
ROOT
ATOM      1  C   UNL     1       4.064   4.823  18.042  0.00  0.00    +0.000 A 
ATOM      2  C   UNL     1       3.398   3.745  17.464  0.00  0.00    +0.000 A 
ATOM      3  C   UNL     1       2.108   3.425  17.887  0.00  0.00    +0.000 A 
ATOM      4  C   UNL     1       1.489   4.178  18.892  0.00  0.00    +0.000 A 
ATOM      5  C   UNL     1       2.146   5.269  19.483  0.00  0.00    +0.000 A 
ATOM      6  C   UNL     1       3.448   5.582  19.044  0.00  0.00    +0.000 A 
ENDROOT
BRANCH   1  13
ATOM      7  O   UNL     1       4.980   4.546  15.151  0.00  0.00    +0.000 OA
ATOM      8  S   UNL     1       5.762   5.404  16.009  0.00  0.00    +0.000 S 
ATOM      9  O   UNL     1       5.870   6.837  15.801  0.00  0.00    +0.000 OA
ATOM     10  C   UNL     1       7.407   4.740  16.183  0.00  0.00    +0.000 C 
ATOM     11  C   UNL     1       7.677   4.585  17.685  0.00  0.00    +0.000 C 
ATOM     12  C   UNL     1       6.531   5.206  18.494  0.00  0.00    +0.000 C 
ATOM     13  N   UNL     1       5.375   5.134  17.616  0.00  0.00    +0.000 N 
ENDBRANCH   1  13
BRANCH   5  14
ATOM     14  C   UNL     1       1.524   5.992  20.675  0.00  0.00    +0.000 C 
BRANCH  14  15
ATOM     15  N   UNL     1       2.121   7.312  20.699  0.00  0.00    +0.000 N 
ATOM     16  H   UNL     1       3.072   7.266  20.342  0.00  0.00    +0.000 HD
BRANCH  15  17
ATOM     17  C   UNL     1       1.498   8.434  20.134  0.00  0.00    +0.000 A 
ATOM     18  N   UNL     1       1.652   8.736  18.836  0.00  0.00    +0.000 NA
ATOM     19  C   UNL     1       1.038   9.856  18.421  0.00  0.00    +0.000 A 
ATOM     20  N   UNL     1       0.301  10.704  19.160  0.00  0.00    +0.000 NA
ATOM     21  C   UNL     1       0.138  10.382  20.449  0.00  0.00    +0.000 A 
ATOM     22  C   UNL     1      -0.598  11.214  21.293  0.00  0.00    +0.000 A 
ATOM     23  C   UNL     1      -0.786  10.919  22.648  0.00  0.00    +0.000 A 
ATOM     24  C   UNL     1      -0.264   9.750  23.179  0.00  0.00    +0.000 A 
ATOM     25  C   UNL     1       0.462   8.900  22.355  0.00  0.00    +0.000 A 
ATOM     26  C   UNL     1       0.700   9.220  20.994  0.00  0.00    +0.000 A 
ENDBRANCH  15  17
ENDBRANCH  14  15
ENDBRANCH   5  14
TORSDOF 4
ENDMDL
MODEL 9
REMARK VINA RESULT:      -8.1      3.771      7.453
REMARK  Name = 
REMARK  4 active torsions:
REMARK  status: ('A' for Active; 'I' for Inactive)
REMARK    1  A    between atoms: N_7  and  C_8
REMARK    2  A    between atoms: C_12  and  C_13
REMARK    3  A    between atoms: C_13  and  N_14
REMARK    4  A    between atoms: N_14  and  C_15
REMARK                            x       y       z     vdW  Elec       q    Type
REMARK                         _______ _______ _______ _____ _____    ______ ____
ROOT
ATOM      1  C   UNL     1       0.109  10.121  19.919  0.00  0.00    +0.000 A 
ATOM      2  C   UNL     1      -0.870  10.354  18.955  0.00  0.00    +0.000 A 
ATOM      3  C   UNL     1      -0.694   9.863  17.662  0.00  0.00    +0.000 A 
ATOM      4  C   UNL     1       0.463   9.145  17.332  0.00  0.00    +0.000 A 
ATOM      5  C   UNL     1       1.457   8.899  18.293  0.00  0.00    +0.000 A 
ATOM      6  C   UNL     1       1.265   9.400  19.595  0.00  0.00    +0.000 A 
ENDROOT
BRANCH   1  13
ATOM      7  O   UNL     1      -0.873   8.420  22.246  0.00  0.00    +0.000 OA
ATOM      8  S   UNL     1      -0.180   9.644  22.573  0.00  0.00    +0.000 S 
ATOM      9  O   UNL     1       1.099   9.666  23.258  0.00  0.00    +0.000 OA
ATOM     10  C   UNL     1      -1.288  10.751  23.425  0.00  0.00    +0.000 C 
ATOM     11  C   UNL     1      -1.291  12.075  22.651  0.00  0.00    +0.000 C 
ATOM     12  C   UNL     1      -0.230  12.041  21.543  0.00  0.00    +0.000 C 
ATOM     13  N   UNL     1      -0.071  10.632  21.224  0.00  0.00    +0.000 N 
ENDBRANCH   1  13
BRANCH   5  14
ATOM     14  C   UNL     1       2.776   8.245  17.889  0.00  0.00    +0.000 C 
BRANCH  14  15
ATOM     15  N   UNL     1       2.940   7.103  18.765  0.00  0.00    +0.000 N 
ATOM     16  H   UNL     1       2.144   7.033  19.392  0.00  0.00    +0.000 HD
BRANCH  15  17
ATOM     17  C   UNL     1       3.231   5.818  18.285  0.00  0.00    +0.000 A 
ATOM     18  N   UNL     1       4.092   5.631  17.273  0.00  0.00    +0.000 NA
ATOM     19  C   UNL     1       4.259   4.359  16.876  0.00  0.00    +0.000 A 
ATOM     20  N   UNL     1       3.655   3.264  17.372  0.00  0.00    +0.000 NA
ATOM     21  C   UNL     1       2.814   3.460  18.394  0.00  0.00    +0.000 A 
ATOM     22  C   UNL     1       2.131   2.383  18.959  0.00  0.00    +0.000 A 
ATOM     23  C   UNL     1       1.238   2.545  20.024  0.00  0.00    +0.000 A 
ATOM     24  C   UNL     1       1.037   3.802  20.572  0.00  0.00    +0.000 A 
ATOM     25  C   UNL     1       1.715   4.888  20.034  0.00  0.00    +0.000 A 
ATOM     26  C   UNL     1       2.581   4.738  18.922  0.00  0.00    +0.000 A 
ENDBRANCH  15  17
ENDBRANCH  14  15
ENDBRANCH   5  14
TORSDOF 4
ENDMDL
