MODEL 1
REMARK VINA RESULT:      -8.8      0.000      0.000
REMARK  Name = 
REMARK  6 active torsions:
REMARK  status: ('A' for Active; 'I' for Inactive)
REMARK    1  A    between atoms: C_1  and  N_2
REMARK    2  A    between atoms: C_6  and  C_7
REMARK    3  A    between atoms: C_7  and  C_8
REMARK    4  A    between atoms: C_8  and  N_9
REMARK    5  A    between atoms: C_10  and  C_12
REMARK    6  A    between atoms: C_15  and  C_16
REMARK                            x       y       z     vdW  Elec       q    Type
REMARK                         _______ _______ _______ _____ _____    ______ ____
ROOT
ATOM      1  C   UNL     1       2.942   4.810  17.865  0.00  0.00    +0.000 C 
ENDROOT
BRANCH   1   2
ATOM      2  C   UNL     1       3.900   3.982  18.735  0.00  0.00    +0.000 C 
ATOM      3  N   UNL     1       3.554   4.192  20.135  0.00  0.00    +0.000 N 
ATOM      4  C   UNL     1       2.893   3.132  20.686  0.00  0.00    +0.000 C 
ATOM      5  O   UNL     1       2.412   3.097  21.802  0.00  0.00    +0.000 OA
ATOM      6  N   UNL     1       2.892   2.125  19.784  0.00  0.00    +0.000 N 
ATOM      7  C   UNL     1       3.558   2.492  18.651  0.00  0.00    +0.000 C 
ATOM      8  O   UNL     1       3.748   1.737  17.707  0.00  0.00    +0.000 OA
ATOM      9  H   UNL     1       3.723   5.064  20.623  0.00  0.00    +0.000 HD
ATOM     10  H   UNL     1       2.509   1.213  19.971  0.00  0.00    +0.000 HD
BRANCH   2  16
ATOM     11  C   UNL     1       5.826   3.968  16.097  0.00  0.00    +0.000 C 
ATOM     12  N   UNL     1       6.099   4.481  17.418  0.00  0.00    +0.000 N 
ATOM     13  C   UNL     1       7.254   5.158  17.725  0.00  0.00    +0.000 A 
ATOM     14  C   UNL     1       7.170   5.447  19.060  0.00  0.00    +0.000 A 
ATOM     15  N   UNL     1       5.992   4.985  19.567  0.00  0.00    +0.000 NA
ATOM     16  C   UNL     1       5.326   4.428  18.561  0.00  0.00    +0.000 A 
ENDBRANCH   2  16
ENDBRANCH   1   2
BRANCH   1  17
ATOM     17  N   UNL     1       2.227   5.900  18.505  0.00  0.00    +0.000 N 
ATOM     18  C   UNL     1       2.696   7.176  18.279  0.00  0.00    +0.000 C 
ATOM     19  O   UNL     1       3.695   7.420  17.614  0.00  0.00    +0.000 OA
ATOM     20  H   UNL     1       1.246   5.792  18.742  0.00  0.00    +0.000 HD
BRANCH  18  21
ATOM     21  C   UNL     1       1.928   8.278  18.869  0.00  0.00    +0.000 A 
ATOM     22  C   UNL     1       1.372   9.299  18.103  0.00  0.00    +0.000 A 
ATOM     23  C   UNL     1       0.553  10.235  18.730  0.00  0.00    +0.000 A 
ATOM     24  C   UNL     1       0.305  10.124  20.101  0.00  0.00    +0.000 A 
ATOM     25  N   UNL     1       0.886   9.158  20.858  0.00  0.00    +0.000 NA
ATOM     26  C   UNL     1       1.664   8.249  20.228  0.00  0.00    +0.000 A 
BRANCH  24  27
ATOM     27  C   UNL     1      -0.635  11.008  20.807  0.00  0.00    +0.000 A 
ATOM     28  C   UNL     1      -1.526  11.842  20.105  0.00  0.00    +0.000 A 
ATOM     29  C   UNL     1      -2.424  12.672  20.775  0.00  0.00    +0.000 A 
ATOM     30  C   UNL     1      -2.458  12.678  22.167  0.00  0.00    +0.000 A 
ATOM     31  C   UNL     1      -1.600  11.852  22.885  0.00  0.00    +0.000 A 
ATOM     32  C   UNL     1      -0.697  11.023  22.211  0.00  0.00    +0.000 A 
ENDBRANCH  24  27
ENDBRANCH  18  21
ENDBRANCH   1  17
TORSDOF 5
ENDMDL
MODEL 2
REMARK VINA RESULT:      -8.4      0.941      1.400
REMARK  Name = 
REMARK  6 active torsions:
REMARK  status: ('A' for Active; 'I' for Inactive)
REMARK    1  A    between atoms: C_1  and  N_2
REMARK    2  A    between atoms: C_6  and  C_7
REMARK    3  A    between atoms: C_7  and  C_8
REMARK    4  A    between atoms: C_8  and  N_9
REMARK    5  A    between atoms: C_10  and  C_12
REMARK    6  A    between atoms: C_15  and  C_16
REMARK                            x       y       z     vdW  Elec       q    Type
REMARK                         _______ _______ _______ _____ _____    ______ ____
ROOT
ATOM      1  C   UNL     1       2.929   4.766  17.993  0.00  0.00    +0.000 C 
ENDROOT
BRANCH   1   2
ATOM      2  C   UNL     1       3.963   3.878  18.701  0.00  0.00    +0.000 C 
ATOM      3  N   UNL     1       3.762   3.990  20.140  0.00  0.00    +0.000 N 
ATOM      4  C   UNL     1       3.151   2.895  20.680  0.00  0.00    +0.000 C 
ATOM      5  O   UNL     1       2.784   2.783  21.834  0.00  0.00    +0.000 OA
ATOM      6  N   UNL     1       3.049   1.953  19.715  0.00  0.00    +0.000 N 
ATOM      7  C   UNL     1       3.601   2.398  18.549  0.00  0.00    +0.000 C 
ATOM      8  O   UNL     1       3.688   1.710  17.539  0.00  0.00    +0.000 OA
ATOM      9  H   UNL     1       3.986   4.825  20.668  0.00  0.00    +0.000 HD
ATOM     10  H   UNL     1       2.679   1.032  19.876  0.00  0.00    +0.000 HD
BRANCH   2  16
ATOM     11  C   UNL     1       5.654   3.926  15.907  0.00  0.00    +0.000 C 
ATOM     12  N   UNL     1       6.039   4.413  17.211  0.00  0.00    +0.000 N 
ATOM     13  C   UNL     1       7.216   5.086  17.432  0.00  0.00    +0.000 A 
ATOM     14  C   UNL     1       7.247   5.347  18.775  0.00  0.00    +0.000 A 
ATOM     15  N   UNL     1       6.117   4.870  19.371  0.00  0.00    +0.000 NA
ATOM     16  C   UNL     1       5.368   4.332  18.415  0.00  0.00    +0.000 A 
ENDBRANCH   2  16
ENDBRANCH   1   2
BRANCH   1  17
ATOM     17  N   UNL     1       2.227   5.751  18.797  0.00  0.00    +0.000 N 
ATOM     18  C   UNL     1       2.604   7.068  18.646  0.00  0.00    +0.000 C 
ATOM     19  O   UNL     1       3.516   7.429  17.913  0.00  0.00    +0.000 OA
ATOM     20  H   UNL     1       1.282   5.563  19.116  0.00  0.00    +0.000 HD
BRANCH  18  21
ATOM     21  C   UNL     1       1.844   8.065  19.407  0.00  0.00    +0.000 A 
ATOM     22  C   UNL     1       1.537   7.905  20.756  0.00  0.00    +0.000 A 
ATOM     23  C   UNL     1       0.923   8.956  21.431  0.00  0.00    +0.000 A 
ATOM     24  C   UNL     1       0.638  10.141  20.747  0.00  0.00    +0.000 A 
ATOM     25  N   UNL     1       0.891  10.281  19.421  0.00  0.00    +0.000 NA
ATOM     26  C   UNL     1       1.503   9.256  18.786  0.00  0.00    +0.000 A 
BRANCH  24  27
ATOM     27  C   UNL     1       0.092  11.330  21.420  0.00  0.00    +0.000 A 
ATOM     28  C   UNL     1      -0.892  11.219  22.422  0.00  0.00    +0.000 A 
ATOM     29  C   UNL     1      -1.400  12.345  23.068  0.00  0.00    +0.000 A 
ATOM     30  C   UNL     1      -0.928  13.611  22.731  0.00  0.00    +0.000 A 
ATOM     31  C   UNL     1       0.054  13.748  21.756  0.00  0.00    +0.000 A 
ATOM     32  C   UNL     1       0.561  12.617  21.107  0.00  0.00    +0.000 A 
ENDBRANCH  24  27
ENDBRANCH  18  21
ENDBRANCH   1  17
TORSDOF 5
ENDMDL
MODEL 3
REMARK VINA RESULT:      -8.4      2.264      3.866
REMARK  Name = 
REMARK  6 active torsions:
REMARK  status: ('A' for Active; 'I' for Inactive)
REMARK    1  A    between atoms: C_1  and  N_2
REMARK    2  A    between atoms: C_6  and  C_7
REMARK    3  A    between atoms: C_7  and  C_8
REMARK    4  A    between atoms: C_8  and  N_9
REMARK    5  A    between atoms: C_10  and  C_12
REMARK    6  A    between atoms: C_15  and  C_16
REMARK                            x       y       z     vdW  Elec       q    Type
REMARK                         _______ _______ _______ _____ _____    ______ ____
ROOT
ATOM      1  C   UNL     1       5.234   5.675  18.124  0.00  0.00    +0.000 C 
ENDROOT
BRANCH   1   2
ATOM      2  C   UNL     1       6.556   5.884  17.370  0.00  0.00    +0.000 C 
ATOM      3  N   UNL     1       6.685   7.298  17.044  0.00  0.00    +0.000 N 
ATOM      4  C   UNL     1       7.584   7.949  17.840  0.00  0.00    +0.000 C 
ATOM      5  O   UNL     1       7.800   9.146  17.837  0.00  0.00    +0.000 OA
ATOM      6  N   UNL     1       8.205   7.028  18.610  0.00  0.00    +0.000 N 
ATOM      7  C   UNL     1       7.747   5.774  18.325  0.00  0.00    +0.000 C 
ATOM      8  O   UNL     1       8.194   4.759  18.845  0.00  0.00    +0.000 OA
ATOM      9  H   UNL     1       6.113   7.762  16.349  0.00  0.00    +0.000 HD
ATOM     10  H   UNL     1       8.950   7.250  19.249  0.00  0.00    +0.000 HD
BRANCH   2  16
ATOM     11  C   UNL     1       4.686   3.422  16.317  0.00  0.00    +0.000 C 
ATOM     12  N   UNL     1       5.725   4.138  15.615  0.00  0.00    +0.000 N 
ATOM     13  C   UNL     1       6.014   3.914  14.291  0.00  0.00    +0.000 A 
ATOM     14  C   UNL     1       7.066   4.739  13.997  0.00  0.00    +0.000 A 
ATOM     15  N   UNL     1       7.411   5.469  15.095  0.00  0.00    +0.000 NA
ATOM     16  C   UNL     1       6.573   5.128  16.070  0.00  0.00    +0.000 A 
ENDBRANCH   2  16
ENDBRANCH   1   2
BRANCH   1  17
ATOM     17  N   UNL     1       4.281   6.771  18.124  0.00  0.00    +0.000 N 
ATOM     18  C   UNL     1       3.208   6.670  18.984  0.00  0.00    +0.000 C 
ATOM     19  O   UNL     1       3.006   5.695  19.698  0.00  0.00    +0.000 OA
ATOM     20  H   UNL     1       4.580   7.701  17.848  0.00  0.00    +0.000 HD
BRANCH  18  21
ATOM     21  C   UNL     1       2.289   7.811  19.032  0.00  0.00    +0.000 A 
ATOM     22  C   UNL     1       1.970   8.565  17.905  0.00  0.00    +0.000 A 
ATOM     23  C   UNL     1       0.992   9.550  18.015  0.00  0.00    +0.000 A 
ATOM     24  C   UNL     1       0.354   9.753  19.242  0.00  0.00    +0.000 A 
ATOM     25  N   UNL     1       0.698   9.053  20.352  0.00  0.00    +0.000 NA
ATOM     26  C   UNL     1       1.637   8.089  20.222  0.00  0.00    +0.000 A 
BRANCH  24  27
ATOM     27  C   UNL     1      -0.763  10.697  19.404  0.00  0.00    +0.000 A 
ATOM     28  C   UNL     1      -0.805  11.604  20.482  0.00  0.00    +0.000 A 
ATOM     29  C   UNL     1      -1.858  12.507  20.629  0.00  0.00    +0.000 A 
ATOM     30  C   UNL     1      -2.889  12.529  19.694  0.00  0.00    +0.000 A 
ATOM     31  C   UNL     1      -2.865  11.655  18.613  0.00  0.00    +0.000 A 
ATOM     32  C   UNL     1      -1.809  10.748  18.469  0.00  0.00    +0.000 A 
ENDBRANCH  24  27
ENDBRANCH  18  21
ENDBRANCH   1  17
TORSDOF 5
ENDMDL
MODEL 4
REMARK VINA RESULT:      -8.3      1.734      3.317
REMARK  Name = 
REMARK  6 active torsions:
REMARK  status: ('A' for Active; 'I' for Inactive)
REMARK    1  A    between atoms: C_1  and  N_2
REMARK    2  A    between atoms: C_6  and  C_7
REMARK    3  A    between atoms: C_7  and  C_8
REMARK    4  A    between atoms: C_8  and  N_9
REMARK    5  A    between atoms: C_10  and  C_12
REMARK    6  A    between atoms: C_15  and  C_16
REMARK                            x       y       z     vdW  Elec       q    Type
REMARK                         _______ _______ _______ _____ _____    ______ ____
ROOT
ATOM      1  C   UNL     1       4.370   5.622  16.916  0.00  0.00    +0.000 C 
ENDROOT
BRANCH   1   2
ATOM      2  C   UNL     1       4.980   4.499  17.769  0.00  0.00    +0.000 C 
ATOM      3  N   UNL     1       6.152   3.977  17.079  0.00  0.00    +0.000 N 
ATOM      4  C   UNL     1       7.328   4.393  17.635  0.00  0.00    +0.000 C 
ATOM      5  O   UNL     1       8.439   4.178  17.189  0.00  0.00    +0.000 OA
ATOM      6  N   UNL     1       7.039   5.060  18.775  0.00  0.00    +0.000 N 
ATOM      7  C   UNL     1       5.692   5.077  18.995  0.00  0.00    +0.000 C 
ATOM      8  O   UNL     1       5.179   5.568  19.992  0.00  0.00    +0.000 OA
ATOM      9  H   UNL     1       6.096   3.423  16.232  0.00  0.00    +0.000 HD
ATOM     10  H   UNL     1       7.741   5.424  19.397  0.00  0.00    +0.000 HD
BRANCH   2  16
ATOM     11  C   UNL     1       4.736   2.263  20.137  0.00  0.00    +0.000 C 
ATOM     12  N   UNL     1       3.888   2.463  18.986  0.00  0.00    +0.000 N 
ATOM     13  C   UNL     1       2.738   1.741  18.778  0.00  0.00    +0.000 A 
ATOM     14  C   UNL     1       2.236   2.179  17.583  0.00  0.00    +0.000 A 
ATOM     15  N   UNL     1       3.034   3.158  17.069  0.00  0.00    +0.000 NA
ATOM     16  C   UNL     1       4.020   3.354  17.939  0.00  0.00    +0.000 A 
ENDBRANCH   2  16
ENDBRANCH   1   2
BRANCH   1  17
ATOM     17  N   UNL     1       3.845   6.784  17.610  0.00  0.00    +0.000 N 
ATOM     18  C   UNL     1       2.530   6.731  18.018  0.00  0.00    +0.000 C 
ATOM     19  O   UNL     1       1.789   5.785  17.782  0.00  0.00    +0.000 OA
ATOM     20  H   UNL     1       4.475   7.394  18.123  0.00  0.00    +0.000 HD
BRANCH  18  21
ATOM     21  C   UNL     1       2.026   7.877  18.781  0.00  0.00    +0.000 A 
ATOM     22  C   UNL     1       1.677   9.084  18.179  0.00  0.00    +0.000 A 
ATOM     23  C   UNL     1       1.089  10.075  18.960  0.00  0.00    +0.000 A 
ATOM     24  C   UNL     1       0.859   9.835  20.318  0.00  0.00    +0.000 A 
ATOM     25  N   UNL     1       1.243   8.679  20.916  0.00  0.00    +0.000 NA
ATOM     26  C   UNL     1       1.797   7.723  20.138  0.00  0.00    +0.000 A 
BRANCH  24  27
ATOM     27  C   UNL     1       0.144  10.791  21.178  0.00  0.00    +0.000 A 
ATOM     28  C   UNL     1       0.053  12.155  20.841  0.00  0.00    +0.000 A 
ATOM     29  C   UNL     1      -0.635  13.059  21.651  0.00  0.00    +0.000 A 
ATOM     30  C   UNL     1      -1.256  12.614  22.814  0.00  0.00    +0.000 A 
ATOM     31  C   UNL     1      -1.195  11.269  23.163  0.00  0.00    +0.000 A 
ATOM     32  C   UNL     1      -0.502  10.365  22.351  0.00  0.00    +0.000 A 
ENDBRANCH  24  27
ENDBRANCH  18  21
ENDBRANCH   1  17
TORSDOF 5
ENDMDL
MODEL 5
REMARK VINA RESULT:      -8.3      2.232      3.687
REMARK  Name = 
REMARK  6 active torsions:
REMARK  status: ('A' for Active; 'I' for Inactive)
REMARK    1  A    between atoms: C_1  and  N_2
REMARK    2  A    between atoms: C_6  and  C_7
REMARK    3  A    between atoms: C_7  and  C_8
REMARK    4  A    between atoms: C_8  and  N_9
REMARK    5  A    between atoms: C_10  and  C_12
REMARK    6  A    between atoms: C_15  and  C_16
REMARK                            x       y       z     vdW  Elec       q    Type
REMARK                         _______ _______ _______ _____ _____    ______ ____
ROOT
ATOM      1  C   UNL     1       5.243   5.671  18.081  0.00  0.00    +0.000 C 
ENDROOT
BRANCH   1   2
ATOM      2  C   UNL     1       6.576   5.883  17.347  0.00  0.00    +0.000 C 
ATOM      3  N   UNL     1       6.714   7.300  17.036  0.00  0.00    +0.000 N 
ATOM      4  C   UNL     1       7.604   7.940  17.850  0.00  0.00    +0.000 C 
ATOM      5  O   UNL     1       7.824   9.136  17.861  0.00  0.00    +0.000 OA
ATOM      6  N   UNL     1       8.212   7.010  18.620  0.00  0.00    +0.000 N 
ATOM      7  C   UNL     1       7.754   5.760  18.317  0.00  0.00    +0.000 C 
ATOM      8  O   UNL     1       8.190   4.739  18.833  0.00  0.00    +0.000 OA
ATOM      9  H   UNL     1       6.153   7.772  16.337  0.00  0.00    +0.000 HD
ATOM     10  H   UNL     1       8.949   7.224  19.271  0.00  0.00    +0.000 HD
BRANCH   2  16
ATOM     11  C   UNL     1       4.739   3.410  16.261  0.00  0.00    +0.000 C 
ATOM     12  N   UNL     1       5.774   4.144  15.572  0.00  0.00    +0.000 N 
ATOM     13  C   UNL     1       6.073   3.935  14.247  0.00  0.00    +0.000 A 
ATOM     14  C   UNL     1       7.118   4.774  13.967  0.00  0.00    +0.000 A 
ATOM     15  N   UNL     1       7.448   5.498  15.074  0.00  0.00    +0.000 NA
ATOM     16  C   UNL     1       6.609   5.139  16.040  0.00  0.00    +0.000 A 
ENDBRANCH   2  16
ENDBRANCH   1   2
BRANCH   1  17
ATOM     17  N   UNL     1       4.431   6.844  18.349  0.00  0.00    +0.000 N 
ATOM     18  C   UNL     1       3.064   6.674  18.355  0.00  0.00    +0.000 C 
ATOM     19  O   UNL     1       2.516   5.608  18.103  0.00  0.00    +0.000 OA
ATOM     20  H   UNL     1       4.815   7.612  18.894  0.00  0.00    +0.000 HD
BRANCH  18  21
ATOM     21  C   UNL     1       2.252   7.846  18.697  0.00  0.00    +0.000 A 
ATOM     22  C   UNL     1       1.807   8.755  17.740  0.00  0.00    +0.000 A 
ATOM     23  C   UNL     1       0.937   9.769  18.134  0.00  0.00    +0.000 A 
ATOM     24  C   UNL     1       0.527   9.844  19.469  0.00  0.00    +0.000 A 
ATOM     25  N   UNL     1       0.998   8.989  20.412  0.00  0.00    +0.000 NA
ATOM     26  C   UNL     1       1.829   8.002  20.007  0.00  0.00    +0.000 A 
BRANCH  24  27
ATOM     27  C   UNL     1      -0.473  10.817  19.933  0.00  0.00    +0.000 A 
ATOM     28  C   UNL     1      -1.490  11.288  19.080  0.00  0.00    +0.000 A 
ATOM     29  C   UNL     1      -2.445  12.202  19.524  0.00  0.00    +0.000 A 
ATOM     30  C   UNL     1      -2.410  12.658  20.839  0.00  0.00    +0.000 A 
ATOM     31  C   UNL     1      -1.426  12.197  21.707  0.00  0.00    +0.000 A 
ATOM     32  C   UNL     1      -0.467  11.284  21.259  0.00  0.00    +0.000 A 
ENDBRANCH  24  27
ENDBRANCH  18  21
ENDBRANCH   1  17
TORSDOF 5
ENDMDL
MODEL 6
REMARK VINA RESULT:      -8.3      2.267      3.792
REMARK  Name = 
REMARK  6 active torsions:
REMARK  status: ('A' for Active; 'I' for Inactive)
REMARK    1  A    between atoms: C_1  and  N_2
REMARK    2  A    between atoms: C_6  and  C_7
REMARK    3  A    between atoms: C_7  and  C_8
REMARK    4  A    between atoms: C_8  and  N_9
REMARK    5  A    between atoms: C_10  and  C_12
REMARK    6  A    between atoms: C_15  and  C_16
REMARK                            x       y       z     vdW  Elec       q    Type
REMARK                         _______ _______ _______ _____ _____    ______ ____
ROOT
ATOM      1  C   UNL     1       5.096   5.447  17.479  0.00  0.00    +0.000 C 
ENDROOT
BRANCH   1   2
ATOM      2  C   UNL     1       6.503   5.710  16.921  0.00  0.00    +0.000 C 
ATOM      3  N   UNL     1       6.651   7.141  16.693  0.00  0.00    +0.000 N 
ATOM      4  C   UNL     1       7.425   7.754  17.637  0.00  0.00    +0.000 C 
ATOM      5  O   UNL     1       7.620   8.951  17.727  0.00  0.00    +0.000 OA
ATOM      6  N   UNL     1       7.954   6.797  18.432  0.00  0.00    +0.000 N 
ATOM      7  C   UNL     1       7.558   5.557  18.020  0.00  0.00    +0.000 C 
ATOM      8  O   UNL     1       7.948   4.519  18.538  0.00  0.00    +0.000 OA
ATOM      9  H   UNL     1       6.169   7.638  15.954  0.00  0.00    +0.000 HD
ATOM     10  H   UNL     1       8.603   6.990  19.175  0.00  0.00    +0.000 HD
BRANCH   2  16
ATOM     11  C   UNL     1       5.097   3.043  15.664  0.00  0.00    +0.000 C 
ATOM     12  N   UNL     1       6.047   3.943  15.054  0.00  0.00    +0.000 N 
ATOM     13  C   UNL     1       6.436   3.829  13.741  0.00  0.00    +0.000 A 
ATOM     14  C   UNL     1       7.361   4.819  13.542  0.00  0.00    +0.000 A 
ATOM     15  N   UNL     1       7.530   5.540  14.687  0.00  0.00    +0.000 NA
ATOM     16  C   UNL     1       6.706   5.028  15.596  0.00  0.00    +0.000 A 
ENDBRANCH   2  16
ENDBRANCH   1   2
BRANCH   1  17
ATOM     17  N   UNL     1       4.389   6.568  18.071  0.00  0.00    +0.000 N 
ATOM     18  C   UNL     1       3.023   6.446  18.211  0.00  0.00    +0.000 C 
ATOM     19  O   UNL     1       2.390   5.472  17.823  0.00  0.00    +0.000 OA
ATOM     20  H   UNL     1       4.875   7.196  18.705  0.00  0.00    +0.000 HD
BRANCH  18  21
ATOM     21  C   UNL     1       2.324   7.551  18.874  0.00  0.00    +0.000 A 
ATOM     22  C   UNL     1       1.819   8.646  18.176  0.00  0.00    +0.000 A 
ATOM     23  C   UNL     1       1.060   9.587  18.867  0.00  0.00    +0.000 A 
ATOM     24  C   UNL     1       0.817   9.408  20.231  0.00  0.00    +0.000 A 
ATOM     25  N   UNL     1       1.348   8.368  20.923  0.00  0.00    +0.000 NA
ATOM     26  C   UNL     1       2.069   7.457  20.232  0.00  0.00    +0.000 A 
BRANCH  24  27
ATOM     27  C   UNL     1      -0.066  10.299  21.000  0.00  0.00    +0.000 A 
ATOM     28  C   UNL     1      -0.395  10.026  22.342  0.00  0.00    +0.000 A 
ATOM     29  C   UNL     1      -1.223  10.878  23.073  0.00  0.00    +0.000 A 
ATOM     30  C   UNL     1      -1.733  12.029  22.480  0.00  0.00    +0.000 A 
ATOM     31  C   UNL     1      -1.411  12.330  21.161  0.00  0.00    +0.000 A 
ATOM     32  C   UNL     1      -0.583  11.474  20.428  0.00  0.00    +0.000 A 
ENDBRANCH  24  27
ENDBRANCH  18  21
ENDBRANCH   1  17
TORSDOF 5
ENDMDL
MODEL 7
REMARK VINA RESULT:      -8.2      0.572      1.060
REMARK  Name = 
REMARK  6 active torsions:
REMARK  status: ('A' for Active; 'I' for Inactive)
REMARK    1  A    between atoms: C_1  and  N_2
REMARK    2  A    between atoms: C_6  and  C_7
REMARK    3  A    between atoms: C_7  and  C_8
REMARK    4  A    between atoms: C_8  and  N_9
REMARK    5  A    between atoms: C_10  and  C_12
REMARK    6  A    between atoms: C_15  and  C_16
REMARK                            x       y       z     vdW  Elec       q    Type
REMARK                         _______ _______ _______ _____ _____    ______ ____
ROOT
ATOM      1  C   UNL     1       3.187   5.510  17.905  0.00  0.00    +0.000 C 
ENDROOT
BRANCH   1   2
ATOM      2  C   UNL     1       3.982   4.520  18.770  0.00  0.00    +0.000 C 
ATOM      3  N   UNL     1       3.627   4.737  20.167  0.00  0.00    +0.000 N 
ATOM      4  C   UNL     1       2.797   3.773  20.662  0.00  0.00    +0.000 C 
ATOM      5  O   UNL     1       2.281   3.777  21.764  0.00  0.00    +0.000 OA
ATOM      6  N   UNL     1       2.673   2.806  19.726  0.00  0.00    +0.000 N 
ATOM      7  C   UNL     1       3.422   3.103  18.625  0.00  0.00    +0.000 C 
ATOM      8  O   UNL     1       3.526   2.357  17.659  0.00  0.00    +0.000 OA
ATOM      9  H   UNL     1       3.909   5.558  20.690  0.00  0.00    +0.000 HD
ATOM     10  H   UNL     1       2.151   1.958  19.870  0.00  0.00    +0.000 HD
BRANCH   2  16
ATOM     11  C   UNL     1       5.997   4.114  16.232  0.00  0.00    +0.000 C 
ATOM     12  N   UNL     1       6.284   4.642  17.545  0.00  0.00    +0.000 N 
ATOM     13  C   UNL     1       7.511   5.160  17.883  0.00  0.00    +0.000 A 
ATOM     14  C   UNL     1       7.412   5.518  19.201  0.00  0.00    +0.000 A 
ATOM     15  N   UNL     1       6.159   5.252  19.666  0.00  0.00    +0.000 NA
ATOM     16  C   UNL     1       5.463   4.751  18.650  0.00  0.00    +0.000 A 
ENDBRANCH   2  16
ENDBRANCH   1   2
BRANCH   1  17
ATOM     17  N   UNL     1       2.414   6.531  18.591  0.00  0.00    +0.000 N 
ATOM     18  C   UNL     1       2.478   7.812  18.086  0.00  0.00    +0.000 C 
ATOM     19  O   UNL     1       3.179   8.127  17.133  0.00  0.00    +0.000 OA
ATOM     20  H   UNL     1       1.585   6.270  19.116  0.00  0.00    +0.000 HD
BRANCH  18  21
ATOM     21  C   UNL     1       1.640   8.823  18.739  0.00  0.00    +0.000 A 
ATOM     22  C   UNL     1       0.810   9.684  18.025  0.00  0.00    +0.000 A 
ATOM     23  C   UNL     1      -0.045  10.527  18.730  0.00  0.00    +0.000 A 
ATOM     24  C   UNL     1      -0.054  10.485  20.128  0.00  0.00    +0.000 A 
ATOM     25  N   UNL     1       0.789   9.682  20.825  0.00  0.00    +0.000 NA
ATOM     26  C   UNL     1       1.599   8.859  20.123  0.00  0.00    +0.000 A 
BRANCH  24  27
ATOM     27  C   UNL     1      -1.005  11.264  20.935  0.00  0.00    +0.000 A 
ATOM     28  C   UNL     1      -1.047  11.144  22.337  0.00  0.00    +0.000 A 
ATOM     29  C   UNL     1      -1.941  11.892  23.103  0.00  0.00    +0.000 A 
ATOM     30  C   UNL     1      -2.809  12.785  22.482  0.00  0.00    +0.000 A 
ATOM     31  C   UNL     1      -2.779  12.934  21.099  0.00  0.00    +0.000 A 
ATOM     32  C   UNL     1      -1.883  12.181  20.333  0.00  0.00    +0.000 A 
ENDBRANCH  24  27
ENDBRANCH  18  21
ENDBRANCH   1  17
TORSDOF 5
ENDMDL
MODEL 8
REMARK VINA RESULT:      -8.1      1.687      3.508
REMARK  Name = 
REMARK  6 active torsions:
REMARK  status: ('A' for Active; 'I' for Inactive)
REMARK    1  A    between atoms: C_1  and  N_2
REMARK    2  A    between atoms: C_6  and  C_7
REMARK    3  A    between atoms: C_7  and  C_8
REMARK    4  A    between atoms: C_8  and  N_9
REMARK    5  A    between atoms: C_10  and  C_12
REMARK    6  A    between atoms: C_15  and  C_16
REMARK                            x       y       z     vdW  Elec       q    Type
REMARK                         _______ _______ _______ _____ _____    ______ ____
ROOT
ATOM      1  C   UNL     1       3.047   5.992  17.581  0.00  0.00    +0.000 C 
ENDROOT
BRANCH   1   2
ATOM      2  C   UNL     1       3.738   4.714  18.082  0.00  0.00    +0.000 C 
ATOM      3  N   UNL     1       4.150   3.926  16.927  0.00  0.00    +0.000 N 
ATOM      4  C   UNL     1       5.492   3.993  16.689  0.00  0.00    +0.000 C 
ATOM      5  O   UNL     1       6.069   3.508  15.733  0.00  0.00    +0.000 OA
ATOM      6  N   UNL     1       6.067   4.666  17.710  0.00  0.00    +0.000 N 
ATOM      7  C   UNL     1       5.131   5.032  18.633  0.00  0.00    +0.000 C 
ATOM      8  O   UNL     1       5.404   5.602  19.681  0.00  0.00    +0.000 OA
ATOM      9  H   UNL     1       3.496   3.442  16.324  0.00  0.00    +0.000 HD
ATOM     10  H   UNL     1       7.060   4.806  17.794  0.00  0.00    +0.000 HD
BRANCH   2  16
ATOM     11  C   UNL     1       4.337   2.232  20.119  0.00  0.00    +0.000 C 
ATOM     12  N   UNL     1       3.077   2.862  19.800  0.00  0.00    +0.000 N 
ATOM     13  C   UNL     1       1.902   2.528  20.427  0.00  0.00    +0.000 A 
ATOM     14  C   UNL     1       0.935   3.297  19.837  0.00  0.00    +0.000 A 
ATOM     15  N   UNL     1       1.491   4.100  18.886  0.00  0.00    +0.000 NA
ATOM     16  C   UNL     1       2.798   3.860  18.887  0.00  0.00    +0.000 A 
ENDBRANCH   2  16
ENDBRANCH   1   2
BRANCH   1  17
ATOM     17  N   UNL     1       2.363   6.814  18.562  0.00  0.00    +0.000 N 
ATOM     18  C   UNL     1       2.170   8.141  18.244  0.00  0.00    +0.000 C 
ATOM     19  O   UNL     1       2.583   8.654  17.212  0.00  0.00    +0.000 OA
ATOM     20  H   UNL     1       1.717   6.387  19.220  0.00  0.00    +0.000 HD
BRANCH  18  21
ATOM     21  C   UNL     1       1.416   8.950  19.208  0.00  0.00    +0.000 A 
ATOM     22  C   UNL     1       1.360   8.641  20.565  0.00  0.00    +0.000 A 
ATOM     23  C   UNL     1       0.726   9.532  21.428  0.00  0.00    +0.000 A 
ATOM     24  C   UNL     1       0.173  10.709  20.917  0.00  0.00    +0.000 A 
ATOM     25  N   UNL     1       0.184  10.988  19.588  0.00  0.00    +0.000 NA
ATOM     26  C   UNL     1       0.818  10.120  18.769  0.00  0.00    +0.000 A 
BRANCH  24  27
ATOM     27  C   UNL     1      -0.412  11.746  21.780  0.00  0.00    +0.000 A 
ATOM     28  C   UNL     1      -1.416  11.438  22.719  0.00  0.00    +0.000 A 
ATOM     29  C   UNL     1      -1.962  12.420  23.546  0.00  0.00    +0.000 A 
ATOM     30  C   UNL     1      -1.509  13.733  23.458  0.00  0.00    +0.000 A 
ATOM     31  C   UNL     1      -0.507  14.062  22.550  0.00  0.00    +0.000 A 
ATOM     32  C   UNL     1       0.037  13.076  21.720  0.00  0.00    +0.000 A 
ENDBRANCH  24  27
ENDBRANCH  18  21
ENDBRANCH   1  17
TORSDOF 5
ENDMDL
MODEL 9
REMARK VINA RESULT:      -8.0      1.870      2.498
REMARK  Name = 
REMARK  6 active torsions:
REMARK  status: ('A' for Active; 'I' for Inactive)
REMARK    1  A    between atoms: C_1  and  N_2
REMARK    2  A    between atoms: C_6  and  C_7
REMARK    3  A    between atoms: C_7  and  C_8
REMARK    4  A    between atoms: C_8  and  N_9
REMARK    5  A    between atoms: C_10  and  C_12
REMARK    6  A    between atoms: C_15  and  C_16
REMARK                            x       y       z     vdW  Elec       q    Type
REMARK                         _______ _______ _______ _____ _____    ______ ____
ROOT
ATOM      1  C   UNL     1       3.820   4.691  20.120  0.00  0.00    +0.000 C 
ENDROOT
BRANCH   1   2
ATOM      2  C   UNL     1       4.525   4.015  18.934  0.00  0.00    +0.000 C 
ATOM      3  N   UNL     1       4.751   2.614  19.267  0.00  0.00    +0.000 N 
ATOM      4  C   UNL     1       3.891   1.769  18.627  0.00  0.00    +0.000 C 
ATOM      5  O   UNL     1       3.808   0.569  18.808  0.00  0.00    +0.000 OA
ATOM      6  N   UNL     1       3.170   2.494  17.744  0.00  0.00    +0.000 N 
ATOM      7  C   UNL     1       3.550   3.805  17.773  0.00  0.00    +0.000 C 
ATOM      8  O   UNL     1       3.089   4.657  17.025  0.00  0.00    +0.000 OA
ATOM      9  H   UNL     1       5.428   2.310  19.957  0.00  0.00    +0.000 HD
ATOM     10  H   UNL     1       2.499   2.091  17.111  0.00  0.00    +0.000 HD
BRANCH   2  16
ATOM     11  C   UNL     1       6.298   4.163  16.195  0.00  0.00    +0.000 C 
ATOM     12  N   UNL     1       6.572   4.745  17.487  0.00  0.00    +0.000 N 
ATOM     13  C   UNL     1       7.648   5.568  17.715  0.00  0.00    +0.000 A 
ATOM     14  C   UNL     1       7.598   5.884  19.046  0.00  0.00    +0.000 A 
ATOM     15  N   UNL     1       6.515   5.294  19.627  0.00  0.00    +0.000 NA
ATOM     16  C   UNL     1       5.873   4.629  18.672  0.00  0.00    +0.000 A 
ENDBRANCH   2  16
ENDBRANCH   1   2
BRANCH   1  17
ATOM     17  N   UNL     1       3.338   6.047  19.930  0.00  0.00    +0.000 N 
ATOM     18  C   UNL     1       2.038   6.310  20.305  0.00  0.00    +0.000 C 
ATOM     19  O   UNL     1       1.276   5.455  20.739  0.00  0.00    +0.000 OA
ATOM     20  H   UNL     1       3.995   6.822  19.926  0.00  0.00    +0.000 HD
BRANCH  18  21
ATOM     21  C   UNL     1       1.579   7.696  20.177  0.00  0.00    +0.000 A 
ATOM     22  C   UNL     1       1.019   8.402  21.239  0.00  0.00    +0.000 A 
ATOM     23  C   UNL     1       0.727   9.753  21.065  0.00  0.00    +0.000 A 
ATOM     24  C   UNL     1       1.008  10.365  19.840  0.00  0.00    +0.000 A 
ATOM     25  N   UNL     1       1.508   9.667  18.789  0.00  0.00    +0.000 NA
ATOM     26  C   UNL     1       1.800   8.362  18.983  0.00  0.00    +0.000 A 
BRANCH  24  27
ATOM     27  C   UNL     1       0.830  11.808  19.620  0.00  0.00    +0.000 A 
ATOM     28  C   UNL     1      -0.167  12.301  18.754  0.00  0.00    +0.000 A 
ATOM     29  C   UNL     1      -0.343  13.670  18.554  0.00  0.00    +0.000 A 
ATOM     30  C   UNL     1       0.470  14.579  19.225  0.00  0.00    +0.000 A 
ATOM     31  C   UNL     1       1.452  14.121  20.098  0.00  0.00    +0.000 A 
ATOM     32  C   UNL     1       1.628  12.747  20.294  0.00  0.00    +0.000 A 
ENDBRANCH  24  27
ENDBRANCH  18  21
ENDBRANCH   1  17
TORSDOF 5
ENDMDL
