MODEL 1
REMARK VINA RESULT:      -8.7      0.000      0.000
REMARK  Name = 
REMARK  7 active torsions:
REMARK  status: ('A' for Active; 'I' for Inactive)
REMARK    1  A    between atoms: C_1  and  O_2
REMARK    2  A    between atoms: O_2  and  C_3
REMARK    3  A    between atoms: C_3  and  C_5
REMARK    4  A    between atoms: C_11  and  N_12
REMARK    5  A    between atoms: C_13  and  C_15
REMARK    6  A    between atoms: C_24  and  O_25
REMARK    7  A    between atoms: O_25  and  C_26
REMARK                            x       y       z     vdW  Elec       q    Type
REMARK                         _______ _______ _______ _____ _____    ______ ____
ROOT
ATOM      1  N   UNL     1       2.203   7.513  18.932  0.00  0.00    +0.000 N 
ATOM      2  C   UNL     1       1.969   8.742  18.312  0.00  0.00    +0.000 C 
ATOM      3  O   UNL     1       2.247   9.028  17.156  0.00  0.00    +0.000 OA
ATOM      4  H   UNL     1       1.968   7.428  19.913  0.00  0.00    +0.000 HD
ENDROOT
BRANCH   1  11
ATOM      5  C   UNL     1       5.946   4.888  16.737  0.00  0.00    +0.000 A 
ATOM      6  N   UNL     1       5.951   3.591  16.362  0.00  0.00    +0.000 NA
ATOM      7  N   UNL     1       4.735   3.145  16.682  0.00  0.00    +0.000 N 
ATOM      8  C   UNL     1       3.920   4.084  17.244  0.00  0.00    +0.000 A 
ATOM      9  C   UNL     1       2.598   4.004  17.676  0.00  0.00    +0.000 A 
ATOM     10  C   UNL     1       2.027   5.159  18.217  0.00  0.00    +0.000 A 
ATOM     11  C   UNL     1       2.749   6.346  18.346  0.00  0.00    +0.000 A 
ATOM     12  C   UNL     1       4.088   6.393  17.900  0.00  0.00    +0.000 A 
ATOM     13  C   UNL     1       4.683   5.242  17.324  0.00  0.00    +0.000 A 
ATOM     14  H   UNL     1       4.509   2.173  16.487  0.00  0.00    +0.000 HD
BRANCH   5  15
ATOM     15  C   UNL     1       7.118   5.753  16.521  0.00  0.00    +0.000 C 
ATOM     16  O   UNL     1       7.666   5.894  15.432  0.00  0.00    +0.000 OA
BRANCH  15  18
ATOM     17  C   UNL     1       7.708   7.778  17.595  0.00  0.00    +0.000 C 
ATOM     18  O   UNL     1       7.535   6.365  17.673  0.00  0.00    +0.000 OA
ENDBRANCH  15  18
ENDBRANCH   5  15
ENDBRANCH   1  11
BRANCH   2  19
ATOM     19  C   UNL     1       1.361   9.785  19.192  0.00  0.00    +0.000 A 
ATOM     20  C   UNL     1       0.717   9.319  20.358  0.00  0.00    +0.000 A 
ATOM     21  C   UNL     1       0.088  10.190  21.258  0.00  0.00    +0.000 A 
ATOM     22  C   UNL     1      -0.596   9.705  22.384  0.00  0.00    +0.000 A 
ATOM     23  C   UNL     1      -1.240  10.583  23.256  0.00  0.00    +0.000 A 
ATOM     24  C   UNL     1      -1.191  11.954  23.021  0.00  0.00    +0.000 A 
ATOM     25  C   UNL     1      -0.495  12.449  21.917  0.00  0.00    +0.000 A 
ATOM     26  C   UNL     1       0.146  11.576  21.022  0.00  0.00    +0.000 A 
ATOM     27  C   UNL     1       0.851  12.044  19.902  0.00  0.00    +0.000 A 
ATOM     28  C   UNL     1       1.453  11.168  18.976  0.00  0.00    +0.000 A 
BRANCH  28  29
ATOM     29  O   UNL     1       2.124  11.857  18.002  0.00  0.00    +0.000 OA
ATOM     30  C   UNL     1       2.595  13.166  18.286  0.00  0.00    +0.000 C 
ENDBRANCH  28  29
ENDBRANCH   2  19
TORSDOF 5
ENDMDL
MODEL 2
REMARK VINA RESULT:      -8.5      2.276      3.404
REMARK  Name = 
REMARK  7 active torsions:
REMARK  status: ('A' for Active; 'I' for Inactive)
REMARK    1  A    between atoms: C_1  and  O_2
REMARK    2  A    between atoms: O_2  and  C_3
REMARK    3  A    between atoms: C_3  and  C_5
REMARK    4  A    between atoms: C_11  and  N_12
REMARK    5  A    between atoms: C_13  and  C_15
REMARK    6  A    between atoms: C_24  and  O_25
REMARK    7  A    between atoms: O_25  and  C_26
REMARK                            x       y       z     vdW  Elec       q    Type
REMARK                         _______ _______ _______ _____ _____    ______ ____
ROOT
ATOM      1  N   UNL     1       2.309   8.013  19.061  0.00  0.00    +0.000 N 
ATOM      2  C   UNL     1       1.794   9.112  18.371  0.00  0.00    +0.000 C 
ATOM      3  O   UNL     1       1.789   9.262  17.158  0.00  0.00    +0.000 OA
ATOM      4  H   UNL     1       2.293   8.042  20.073  0.00  0.00    +0.000 HD
ENDROOT
BRANCH   1  11
ATOM      5  C   UNL     1       2.432   3.008  18.253  0.00  0.00    +0.000 A 
ATOM      6  N   UNL     1       3.296   2.304  17.491  0.00  0.00    +0.000 NA
ATOM      7  N   UNL     1       4.134   3.219  17.001  0.00  0.00    +0.000 N 
ATOM      8  C   UNL     1       3.874   4.497  17.407  0.00  0.00    +0.000 A 
ATOM      9  C   UNL     1       4.533   5.692  17.135  0.00  0.00    +0.000 A 
ATOM     10  C   UNL     1       4.017   6.857  17.709  0.00  0.00    +0.000 A 
ATOM     11  C   UNL     1       2.873   6.839  18.507  0.00  0.00    +0.000 A 
ATOM     12  C   UNL     1       2.227   5.609  18.763  0.00  0.00    +0.000 A 
ATOM     13  C   UNL     1       2.745   4.410  18.213  0.00  0.00    +0.000 A 
ATOM     14  H   UNL     1       4.883   2.911  16.387  0.00  0.00    +0.000 HD
BRANCH   5  15
ATOM     15  C   UNL     1       1.352   2.343  19.000  0.00  0.00    +0.000 C 
ATOM     16  O   UNL     1       0.235   2.133  18.537  0.00  0.00    +0.000 OA
BRANCH  15  18
ATOM     17  C   UNL     1       1.335   2.911  21.299  0.00  0.00    +0.000 C 
ATOM     18  O   UNL     1       1.730   2.003  20.272  0.00  0.00    +0.000 OA
ENDBRANCH  15  18
ENDBRANCH   5  15
ENDBRANCH   1  11
BRANCH   2  19
ATOM     19  C   UNL     1       1.246  10.199  19.239  0.00  0.00    +0.000 A 
ATOM     20  C   UNL     1       0.520   9.784  20.375  0.00  0.00    +0.000 A 
ATOM     21  C   UNL     1      -0.064  10.701  21.260  0.00  0.00    +0.000 A 
ATOM     22  C   UNL     1      -0.830  10.271  22.354  0.00  0.00    +0.000 A 
ATOM     23  C   UNL     1      -1.428  11.197  23.210  0.00  0.00    +0.000 A 
ATOM     24  C   UNL     1      -1.249  12.559  22.991  0.00  0.00    +0.000 A 
ATOM     25  C   UNL     1      -0.471  12.998  21.919  0.00  0.00    +0.000 A 
ATOM     26  C   UNL     1       0.125  12.078  21.039  0.00  0.00    +0.000 A 
ATOM     27  C   UNL     1       0.910  12.489  19.951  0.00  0.00    +0.000 A 
ATOM     28  C   UNL     1       1.468  11.570  19.040  0.00  0.00    +0.000 A 
BRANCH  28  29
ATOM     29  O   UNL     1       2.233  12.204  18.099  0.00  0.00    +0.000 OA
ATOM     30  C   UNL     1       2.702  13.517  18.364  0.00  0.00    +0.000 C 
ENDBRANCH  28  29
ENDBRANCH   2  19
TORSDOF 5
ENDMDL
MODEL 3
REMARK VINA RESULT:      -8.5      1.180      1.291
REMARK  Name = 
REMARK  7 active torsions:
REMARK  status: ('A' for Active; 'I' for Inactive)
REMARK    1  A    between atoms: C_1  and  O_2
REMARK    2  A    between atoms: O_2  and  C_3
REMARK    3  A    between atoms: C_3  and  C_5
REMARK    4  A    between atoms: C_11  and  N_12
REMARK    5  A    between atoms: C_13  and  C_15
REMARK    6  A    between atoms: C_24  and  O_25
REMARK    7  A    between atoms: O_25  and  C_26
REMARK                            x       y       z     vdW  Elec       q    Type
REMARK                         _______ _______ _______ _____ _____    ______ ____
ROOT
ATOM      1  N   UNL     1       1.948   7.590  18.767  0.00  0.00    +0.000 N 
ATOM      2  C   UNL     1       1.604   7.850  20.095  0.00  0.00    +0.000 C 
ATOM      3  O   UNL     1       1.762   7.090  21.040  0.00  0.00    +0.000 OA
ATOM      4  H   UNL     1       1.714   8.290  18.074  0.00  0.00    +0.000 HD
ENDROOT
BRANCH   1  11
ATOM      5  C   UNL     1       5.965   5.095  16.936  0.00  0.00    +0.000 A 
ATOM      6  N   UNL     1       6.058   3.790  16.597  0.00  0.00    +0.000 NA
ATOM      7  N   UNL     1       4.843   3.295  16.835  0.00  0.00    +0.000 N 
ATOM      8  C   UNL     1       3.944   4.208  17.309  0.00  0.00    +0.000 A 
ATOM      9  C   UNL     1       2.598   4.076  17.640  0.00  0.00    +0.000 A 
ATOM     10  C   UNL     1       1.935   5.214  18.105  0.00  0.00    +0.000 A 
ATOM     11  C   UNL     1       2.590   6.436  18.256  0.00  0.00    +0.000 A 
ATOM     12  C   UNL     1       3.957   6.537  17.912  0.00  0.00    +0.000 A 
ATOM     13  C   UNL     1       4.646   5.402  17.415  0.00  0.00    +0.000 A 
ATOM     14  H   UNL     1       4.676   2.309  16.650  0.00  0.00    +0.000 HD
BRANCH   5  15
ATOM     15  C   UNL     1       7.110   6.008  16.786  0.00  0.00    +0.000 C 
ATOM     16  O   UNL     1       7.734   6.150  15.739  0.00  0.00    +0.000 OA
BRANCH  15  18
ATOM     17  C   UNL     1       7.812   5.843  19.042  0.00  0.00    +0.000 C 
ATOM     18  O   UNL     1       7.408   6.667  17.950  0.00  0.00    +0.000 OA
ENDBRANCH  15  18
ENDBRANCH   5  15
ENDBRANCH   1  11
BRANCH   2  19
ATOM     19  C   UNL     1       0.947   9.172  20.327  0.00  0.00    +0.000 A 
ATOM     20  C   UNL     1       0.260   9.321  21.551  0.00  0.00    +0.000 A 
ATOM     21  C   UNL     1      -0.416  10.502  21.884  0.00  0.00    +0.000 A 
ATOM     22  C   UNL     1      -1.141  10.614  23.081  0.00  0.00    +0.000 A 
ATOM     23  C   UNL     1      -1.832  11.787  23.386  0.00  0.00    +0.000 A 
ATOM     24  C   UNL     1      -1.789  12.865  22.507  0.00  0.00    +0.000 A 
ATOM     25  C   UNL     1      -1.054  12.773  21.325  0.00  0.00    +0.000 A 
ATOM     26  C   UNL     1      -0.365  11.593  20.997  0.00  0.00    +0.000 A 
ATOM     27  C   UNL     1       0.381  11.470  19.814  0.00  0.00    +0.000 A 
ATOM     28  C   UNL     1       1.032  10.271  19.460  0.00  0.00    +0.000 A 
BRANCH  28  29
ATOM     29  O   UNL     1       1.735  10.412  18.294  0.00  0.00    +0.000 OA
ATOM     30  C   UNL     1       2.366  11.652  18.017  0.00  0.00    +0.000 C 
ENDBRANCH  28  29
ENDBRANCH   2  19
TORSDOF 5
ENDMDL
MODEL 4
REMARK VINA RESULT:      -8.4      2.463      3.561
REMARK  Name = 
REMARK  7 active torsions:
REMARK  status: ('A' for Active; 'I' for Inactive)
REMARK    1  A    between atoms: C_1  and  O_2
REMARK    2  A    between atoms: O_2  and  C_3
REMARK    3  A    between atoms: C_3  and  C_5
REMARK    4  A    between atoms: C_11  and  N_12
REMARK    5  A    between atoms: C_13  and  C_15
REMARK    6  A    between atoms: C_24  and  O_25
REMARK    7  A    between atoms: O_25  and  C_26
REMARK                            x       y       z     vdW  Elec       q    Type
REMARK                         _______ _______ _______ _____ _____    ______ ____
ROOT
ATOM      1  N   UNL     1       1.953   8.193  18.837  0.00  0.00    +0.000 N 
ATOM      2  C   UNL     1       1.482   8.425  20.131  0.00  0.00    +0.000 C 
ATOM      3  O   UNL     1       1.540   7.641  21.068  0.00  0.00    +0.000 OA
ATOM      4  H   UNL     1       1.793   8.912  18.142  0.00  0.00    +0.000 HD
ENDROOT
BRANCH   1  11
ATOM      5  C   UNL     1       2.488   3.187  18.228  0.00  0.00    +0.000 A 
ATOM      6  N   UNL     1       3.448   2.524  17.547  0.00  0.00    +0.000 NA
ATOM      7  N   UNL     1       4.247   3.483  17.076  0.00  0.00    +0.000 N 
ATOM      8  C   UNL     1       3.870   4.750  17.416  0.00  0.00    +0.000 A 
ATOM      9  C   UNL     1       4.457   5.982  17.140  0.00  0.00    +0.000 A 
ATOM     10  C   UNL     1       3.823   7.123  17.636  0.00  0.00    +0.000 A 
ATOM     11  C   UNL     1       2.634   7.047  18.363  0.00  0.00    +0.000 A 
ATOM     12  C   UNL     1       2.064   5.781  18.626  0.00  0.00    +0.000 A 
ATOM     13  C   UNL     1       2.701   4.606  18.154  0.00  0.00    +0.000 A 
ATOM     14  H   UNL     1       5.054   3.211  16.521  0.00  0.00    +0.000 HD
BRANCH   5  15
ATOM     15  C   UNL     1       1.414   2.469  18.933  0.00  0.00    +0.000 C 
ATOM     16  O   UNL     1       0.310   2.247  18.443  0.00  0.00    +0.000 OA
BRANCH  15  18
ATOM     17  C   UNL     1       1.408   2.994  21.242  0.00  0.00    +0.000 C 
ATOM     18  O   UNL     1       1.778   2.094  20.199  0.00  0.00    +0.000 OA
ENDBRANCH  15  18
ENDBRANCH   5  15
ENDBRANCH   1  11
BRANCH   2  19
ATOM     19  C   UNL     1       0.814   9.747  20.330  0.00  0.00    +0.000 A 
ATOM     20  C   UNL     1       0.072   9.898  21.521  0.00  0.00    +0.000 A 
ATOM     21  C   UNL     1      -0.619  11.080  21.820  0.00  0.00    +0.000 A 
ATOM     22  C   UNL     1      -1.398  11.193  22.982  0.00  0.00    +0.000 A 
ATOM     23  C   UNL     1      -2.103  12.367  23.253  0.00  0.00    +0.000 A 
ATOM     24  C   UNL     1      -2.020  13.443  22.375  0.00  0.00    +0.000 A 
ATOM     25  C   UNL     1      -1.231  13.349  21.227  0.00  0.00    +0.000 A 
ATOM     26  C   UNL     1      -0.528  12.168  20.934  0.00  0.00    +0.000 A 
ATOM     27  C   UNL     1       0.272  12.044  19.786  0.00  0.00    +0.000 A 
ATOM     28  C   UNL     1       0.939  10.845  19.465  0.00  0.00    +0.000 A 
BRANCH  28  29
ATOM     29  O   UNL     1       1.694  10.983  18.333  0.00  0.00    +0.000 OA
ATOM     30  C   UNL     1       2.444  12.174  18.147  0.00  0.00    +0.000 C 
ENDBRANCH  28  29
ENDBRANCH   2  19
TORSDOF 5
ENDMDL
MODEL 5
REMARK VINA RESULT:      -8.4      3.397      9.150
REMARK  Name = 
REMARK  7 active torsions:
REMARK  status: ('A' for Active; 'I' for Inactive)
REMARK    1  A    between atoms: C_1  and  O_2
REMARK    2  A    between atoms: O_2  and  C_3
REMARK    3  A    between atoms: C_3  and  C_5
REMARK    4  A    between atoms: C_11  and  N_12
REMARK    5  A    between atoms: C_13  and  C_15
REMARK    6  A    between atoms: C_24  and  O_25
REMARK    7  A    between atoms: O_25  and  C_26
REMARK                            x       y       z     vdW  Elec       q    Type
REMARK                         _______ _______ _______ _____ _____    ______ ____
ROOT
ATOM      1  N   UNL     1       1.738   8.596  17.854  0.00  0.00    +0.000 N 
ATOM      2  C   UNL     1       2.234   7.628  18.730  0.00  0.00    +0.000 C 
ATOM      3  O   UNL     1       2.150   7.651  19.949  0.00  0.00    +0.000 OA
ATOM      4  H   UNL     1       1.923   8.476  16.866  0.00  0.00    +0.000 HD
ENDROOT
BRANCH   1  11
ATOM      5  C   UNL     1      -2.552  11.280  18.182  0.00  0.00    +0.000 A 
ATOM      6  N   UNL     1      -2.731  12.513  18.703  0.00  0.00    +0.000 NA
ATOM      7  N   UNL     1      -1.515  12.887  19.104  0.00  0.00    +0.000 N 
ATOM      8  C   UNL     1      -0.535  11.965  18.868  0.00  0.00    +0.000 A 
ATOM      9  C   UNL     1       0.834  12.007  19.116  0.00  0.00    +0.000 A 
ATOM     10  C   UNL     1       1.588  10.887  18.754  0.00  0.00    +0.000 A 
ATOM     11  C   UNL     1       0.999   9.757  18.187  0.00  0.00    +0.000 A 
ATOM     12  C   UNL     1      -0.393   9.746  17.949  0.00  0.00    +0.000 A 
ATOM     13  C   UNL     1      -1.176  10.880  18.285  0.00  0.00    +0.000 A 
ATOM     14  H   UNL     1      -1.407  13.800  19.537  0.00  0.00    +0.000 HD
BRANCH   5  15
ATOM     15  C   UNL     1      -3.672  10.526  17.595  0.00  0.00    +0.000 C 
ATOM     16  O   UNL     1      -4.805  10.513  18.069  0.00  0.00    +0.000 OA
BRANCH  15  18
ATOM     17  C   UNL     1      -3.353  10.558  15.249  0.00  0.00    +0.000 C 
ATOM     18  O   UNL     1      -3.304   9.830  16.474  0.00  0.00    +0.000 OA
ENDBRANCH  15  18
ENDBRANCH   5  15
ENDBRANCH   1  11
BRANCH   2  19
ATOM     19  C   UNL     1       2.964   6.501  18.073  0.00  0.00    +0.000 A 
ATOM     20  C   UNL     1       4.190   6.827  17.455  0.00  0.00    +0.000 A 
ATOM     21  C   UNL     1       4.963   5.868  16.787  0.00  0.00    +0.000 A 
ATOM     22  C   UNL     1       6.152   6.221  16.130  0.00  0.00    +0.000 A 
ATOM     23  C   UNL     1       6.897   5.260  15.445  0.00  0.00    +0.000 A 
ATOM     24  C   UNL     1       6.470   3.936  15.426  0.00  0.00    +0.000 A 
ATOM     25  C   UNL     1       5.300   3.570  16.094  0.00  0.00    +0.000 A 
ATOM     26  C   UNL     1       4.532   4.529  16.775  0.00  0.00    +0.000 A 
ATOM     27  C   UNL     1       3.350   4.192  17.453  0.00  0.00    +0.000 A 
ATOM     28  C   UNL     1       2.553   5.160  18.096  0.00  0.00    +0.000 A 
BRANCH  28  29
ATOM     29  O   UNL     1       1.485   4.585  18.729  0.00  0.00    +0.000 OA
ATOM     30  C   UNL     1       1.687   3.956  19.985  0.00  0.00    +0.000 C 
ENDBRANCH  28  29
ENDBRANCH   2  19
TORSDOF 5
ENDMDL
MODEL 6
REMARK VINA RESULT:      -8.4      3.287      9.072
REMARK  Name = 
REMARK  7 active torsions:
REMARK  status: ('A' for Active; 'I' for Inactive)
REMARK    1  A    between atoms: C_1  and  O_2
REMARK    2  A    between atoms: O_2  and  C_3
REMARK    3  A    between atoms: C_3  and  C_5
REMARK    4  A    between atoms: C_11  and  N_12
REMARK    5  A    between atoms: C_13  and  C_15
REMARK    6  A    between atoms: C_24  and  O_25
REMARK    7  A    between atoms: O_25  and  C_26
REMARK                            x       y       z     vdW  Elec       q    Type
REMARK                         _______ _______ _______ _____ _____    ______ ____
ROOT
ATOM      1  N   UNL     1       1.284   8.820  19.462  0.00  0.00    +0.000 N 
ATOM      2  C   UNL     1       2.096   8.763  18.327  0.00  0.00    +0.000 C 
ATOM      3  O   UNL     1       2.216   9.641  17.485  0.00  0.00    +0.000 OA
ATOM      4  H   UNL     1       1.240   7.998  20.052  0.00  0.00    +0.000 HD
ENDROOT
BRANCH   1  11
ATOM      5  C   UNL     1      -2.766  11.856  19.159  0.00  0.00    +0.000 A 
ATOM      6  N   UNL     1      -3.117  12.869  19.981  0.00  0.00    +0.000 NA
ATOM      7  N   UNL     1      -2.146  12.911  20.895  0.00  0.00    +0.000 N 
ATOM      8  C   UNL     1      -1.163  11.981  20.716  0.00  0.00    +0.000 A 
ATOM      9  C   UNL     1       0.006  11.739  21.434  0.00  0.00    +0.000 A 
ATOM     10  C   UNL     1       0.826  10.697  20.995  0.00  0.00    +0.000 A 
ATOM     11  C   UNL     1       0.489   9.908  19.895  0.00  0.00    +0.000 A 
ATOM     12  C   UNL     1      -0.704  10.179  19.189  0.00  0.00    +0.000 A 
ATOM     13  C   UNL     1      -1.542  11.247  19.599  0.00  0.00    +0.000 A 
ATOM     14  H   UNL     1      -2.202  13.611  21.630  0.00  0.00    +0.000 HD
BRANCH   5  15
ATOM     15  C   UNL     1      -3.582  11.504  17.986  0.00  0.00    +0.000 C 
ATOM     16  O   UNL     1      -4.769  11.197  18.051  0.00  0.00    +0.000 OA
BRANCH  15  18
ATOM     17  C   UNL     1      -2.922  10.362  16.020  0.00  0.00    +0.000 C 
ATOM     18  O   UNL     1      -2.865  11.541  16.820  0.00  0.00    +0.000 OA
ENDBRANCH  15  18
ENDBRANCH   5  15
ENDBRANCH   1  11
BRANCH   2  19
ATOM     19  C   UNL     1       2.833   7.475  18.146  0.00  0.00    +0.000 A 
ATOM     20  C   UNL     1       3.737   7.422  17.063  0.00  0.00    +0.000 A 
ATOM     21  C   UNL     1       4.475   6.268  16.769  0.00  0.00    +0.000 A 
ATOM     22  C   UNL     1       5.328   6.213  15.655  0.00  0.00    +0.000 A 
ATOM     23  C   UNL     1       6.036   5.048  15.359  0.00  0.00    +0.000 A 
ATOM     24  C   UNL     1       5.912   3.934  16.184  0.00  0.00    +0.000 A 
ATOM     25  C   UNL     1       5.084   3.984  17.306  0.00  0.00    +0.000 A 
ATOM     26  C   UNL     1       4.354   5.146  17.609  0.00  0.00    +0.000 A 
ATOM     27  C   UNL     1       3.511   5.225  18.729  0.00  0.00    +0.000 A 
ATOM     28  C   UNL     1       2.740   6.371  19.006  0.00  0.00    +0.000 A 
BRANCH  28  29
ATOM     29  O   UNL     1       2.042   6.231  20.175  0.00  0.00    +0.000 OA
ATOM     30  C   UNL     1       1.885   4.935  20.731  0.00  0.00    +0.000 C 
ENDBRANCH  28  29
ENDBRANCH   2  19
TORSDOF 5
ENDMDL
MODEL 7
REMARK VINA RESULT:      -8.3      2.497      3.021
REMARK  Name = 
REMARK  7 active torsions:
REMARK  status: ('A' for Active; 'I' for Inactive)
REMARK    1  A    between atoms: C_1  and  O_2
REMARK    2  A    between atoms: O_2  and  C_3
REMARK    3  A    between atoms: C_3  and  C_5
REMARK    4  A    between atoms: C_11  and  N_12
REMARK    5  A    between atoms: C_13  and  C_15
REMARK    6  A    between atoms: C_24  and  O_25
REMARK    7  A    between atoms: O_25  and  C_26
REMARK                            x       y       z     vdW  Elec       q    Type
REMARK                         _______ _______ _______ _____ _____    ______ ____
ROOT
ATOM      1  N   UNL     1       1.829   7.475  19.091  0.00  0.00    +0.000 N 
ATOM      2  C   UNL     1       1.725   8.560  18.218  0.00  0.00    +0.000 C 
ATOM      3  O   UNL     1       2.520   8.852  17.337  0.00  0.00    +0.000 OA
ATOM      4  H   UNL     1       1.123   7.379  19.810  0.00  0.00    +0.000 HD
ENDROOT
BRANCH   1  11
ATOM      5  C   UNL     1       6.274   5.517  17.633  0.00  0.00    +0.000 A 
ATOM      6  N   UNL     1       6.863   4.375  18.048  0.00  0.00    +0.000 NA
ATOM      7  N   UNL     1       6.003   3.855  18.925  0.00  0.00    +0.000 N 
ATOM      8  C   UNL     1       4.868   4.592  19.108  0.00  0.00    +0.000 A 
ATOM      9  C   UNL     1       3.750   4.362  19.905  0.00  0.00    +0.000 A 
ATOM     10  C   UNL     1       2.731   5.318  19.876  0.00  0.00    +0.000 A 
ATOM     11  C   UNL     1       2.829   6.473  19.100  0.00  0.00    +0.000 A 
ATOM     12  C   UNL     1       3.978   6.677  18.303  0.00  0.00    +0.000 A 
ATOM     13  C   UNL     1       5.014   5.709  18.296  0.00  0.00    +0.000 A 
ATOM     14  H   UNL     1       6.243   2.976  19.376  0.00  0.00    +0.000 HD
BRANCH   5  15
ATOM     15  C   UNL     1       6.906   6.381  16.622  0.00  0.00    +0.000 C 
ATOM     16  O   UNL     1       7.395   5.959  15.578  0.00  0.00    +0.000 OA
BRANCH  15  18
ATOM     17  C   UNL     1       7.957   8.110  17.852  0.00  0.00    +0.000 C 
ATOM     18  O   UNL     1       6.900   7.702  16.985  0.00  0.00    +0.000 OA
ENDBRANCH  15  18
ENDBRANCH   5  15
ENDBRANCH   1  11
BRANCH   2  19
ATOM     19  C   UNL     1       0.539   9.441  18.449  0.00  0.00    +0.000 A 
ATOM     20  C   UNL     1      -0.485   9.374  17.480  0.00  0.00    +0.000 A 
ATOM     21  C   UNL     1      -1.641  10.162  17.566  0.00  0.00    +0.000 A 
ATOM     22  C   UNL     1      -2.623  10.124  16.564  0.00  0.00    +0.000 A 
ATOM     23  C   UNL     1      -3.756  10.935  16.650  0.00  0.00    +0.000 A 
ATOM     24  C   UNL     1      -3.924  11.777  17.745  0.00  0.00    +0.000 A 
ATOM     25  C   UNL     1      -2.964  11.807  18.757  0.00  0.00    +0.000 A 
ATOM     26  C   UNL     1      -1.811  11.007  18.678  0.00  0.00    +0.000 A 
ATOM     27  C   UNL     1      -0.827  11.018  19.678  0.00  0.00    +0.000 A 
ATOM     28  C   UNL     1       0.352  10.253  19.577  0.00  0.00    +0.000 A 
BRANCH  28  29
ATOM     29  O   UNL     1       1.131  10.387  20.695  0.00  0.00    +0.000 OA
ATOM     30  C   UNL     1       0.784   9.664  21.865  0.00  0.00    +0.000 C 
ENDBRANCH  28  29
ENDBRANCH   2  19
TORSDOF 5
ENDMDL
MODEL 8
REMARK VINA RESULT:      -8.3      3.053      8.937
REMARK  Name = 
REMARK  7 active torsions:
REMARK  status: ('A' for Active; 'I' for Inactive)
REMARK    1  A    between atoms: C_1  and  O_2
REMARK    2  A    between atoms: O_2  and  C_3
REMARK    3  A    between atoms: C_3  and  C_5
REMARK    4  A    between atoms: C_11  and  N_12
REMARK    5  A    between atoms: C_13  and  C_15
REMARK    6  A    between atoms: C_24  and  O_25
REMARK    7  A    between atoms: O_25  and  C_26
REMARK                            x       y       z     vdW  Elec       q    Type
REMARK                         _______ _______ _______ _____ _____    ______ ____
ROOT
ATOM      1  N   UNL     1       2.028   7.737  19.519  0.00  0.00    +0.000 N 
ATOM      2  C   UNL     1       2.098   6.353  19.696  0.00  0.00    +0.000 C 
ATOM      3  O   UNL     1       1.584   5.718  20.605  0.00  0.00    +0.000 OA
ATOM      4  H   UNL     1       2.545   8.140  18.748  0.00  0.00    +0.000 HD
ENDROOT
BRANCH   1  11
ATOM      5  C   UNL     1      -0.979  11.774  20.130  0.00  0.00    +0.000 A 
ATOM      6  N   UNL     1      -1.469  12.288  21.280  0.00  0.00    +0.000 NA
ATOM      7  N   UNL     1      -0.971  11.502  22.236  0.00  0.00    +0.000 N 
ATOM      8  C   UNL     1      -0.168  10.497  21.780  0.00  0.00    +0.000 A 
ATOM      9  C   UNL     1       0.542   9.514  22.465  0.00  0.00    +0.000 A 
ATOM     10  C   UNL     1       1.289   8.611  21.704  0.00  0.00    +0.000 A 
ATOM     11  C   UNL     1       1.313   8.668  20.310  0.00  0.00    +0.000 A 
ATOM     12  C   UNL     1       0.582   9.678  19.645  0.00  0.00    +0.000 A 
ATOM     13  C   UNL     1      -0.164  10.621  20.396  0.00  0.00    +0.000 A 
ATOM     14  H   UNL     1      -1.212  11.704  23.203  0.00  0.00    +0.000 HD
BRANCH   5  15
ATOM     15  C   UNL     1      -1.281  12.389  18.827  0.00  0.00    +0.000 C 
ATOM     16  O   UNL     1      -0.593  13.268  18.315  0.00  0.00    +0.000 OA
BRANCH  15  18
ATOM     17  C   UNL     1      -2.227  10.857  17.289  0.00  0.00    +0.000 C 
ATOM     18  O   UNL     1      -2.421  11.882  18.262  0.00  0.00    +0.000 OA
ENDBRANCH  15  18
ENDBRANCH   5  15
ENDBRANCH   1  11
BRANCH   2  19
ATOM     19  C   UNL     1       2.923   5.631  18.681  0.00  0.00    +0.000 A 
ATOM     20  C   UNL     1       4.220   6.140  18.454  0.00  0.00    +0.000 A 
ATOM     21  C   UNL     1       5.088   5.568  17.514  0.00  0.00    +0.000 A 
ATOM     22  C   UNL     1       6.353   6.121  17.261  0.00  0.00    +0.000 A 
ATOM     23  C   UNL     1       7.195   5.557  16.301  0.00  0.00    +0.000 A 
ATOM     24  C   UNL     1       6.788   4.425  15.601  0.00  0.00    +0.000 A 
ATOM     25  C   UNL     1       5.541   3.855  15.860  0.00  0.00    +0.000 A 
ATOM     26  C   UNL     1       4.676   4.420  16.813  0.00  0.00    +0.000 A 
ATOM     27  C   UNL     1       3.415   3.870  17.093  0.00  0.00    +0.000 A 
ATOM     28  C   UNL     1       2.527   4.463  18.011  0.00  0.00    +0.000 A 
BRANCH  28  29
ATOM     29  O   UNL     1       1.387   3.719  18.154  0.00  0.00    +0.000 OA
ATOM     30  C   UNL     1       1.454   2.487  18.856  0.00  0.00    +0.000 C 
ENDBRANCH  28  29
ENDBRANCH   2  19
TORSDOF 5
ENDMDL
MODEL 9
REMARK VINA RESULT:      -8.3      3.531      8.629
REMARK  Name = 
REMARK  7 active torsions:
REMARK  status: ('A' for Active; 'I' for Inactive)
REMARK    1  A    between atoms: C_1  and  O_2
REMARK    2  A    between atoms: O_2  and  C_3
REMARK    3  A    between atoms: C_3  and  C_5
REMARK    4  A    between atoms: C_11  and  N_12
REMARK    5  A    between atoms: C_13  and  C_15
REMARK    6  A    between atoms: C_24  and  O_25
REMARK    7  A    between atoms: O_25  and  C_26
REMARK                            x       y       z     vdW  Elec       q    Type
REMARK                         _______ _______ _______ _____ _____    ______ ____
ROOT
ATOM      1  N   UNL     1       1.463   9.088  18.202  0.00  0.00    +0.000 N 
ATOM      2  C   UNL     1       1.876   8.191  19.190  0.00  0.00    +0.000 C 
ATOM      3  O   UNL     1       1.734   8.335  20.396  0.00  0.00    +0.000 OA
ATOM      4  H   UNL     1       1.690   8.866  17.240  0.00  0.00    +0.000 HD
ENDROOT
BRANCH   1  11
ATOM      5  C   UNL     1       1.213  14.078  19.068  0.00  0.00    +0.000 A 
ATOM      6  N   UNL     1       0.118  14.869  19.099  0.00  0.00    +0.000 NA
ATOM      7  N   UNL     1      -0.901  14.040  18.865  0.00  0.00    +0.000 N 
ATOM      8  C   UNL     1      -0.538  12.736  18.689  0.00  0.00    +0.000 A 
ATOM      9  C   UNL     1      -1.307  11.598  18.457  0.00  0.00    +0.000 A 
ATOM     10  C   UNL     1      -0.633  10.383  18.318  0.00  0.00    +0.000 A 
ATOM     11  C   UNL     1       0.759  10.302  18.384  0.00  0.00    +0.000 A 
ATOM     12  C   UNL     1       1.510  11.475  18.619  0.00  0.00    +0.000 A 
ATOM     13  C   UNL     1       0.848  12.717  18.788  0.00  0.00    +0.000 A 
ATOM     14  H   UNL     1      -1.842  14.424  18.841  0.00  0.00    +0.000 HD
BRANCH   5  15
ATOM     15  C   UNL     1       2.558  14.622  19.314  0.00  0.00    +0.000 C 
ATOM     16  O   UNL     1       3.369  14.109  20.080  0.00  0.00    +0.000 OA
BRANCH  15  18
ATOM     17  C   UNL     1       3.527  15.610  17.393  0.00  0.00    +0.000 C 
ATOM     18  O   UNL     1       2.795  15.771  18.607  0.00  0.00    +0.000 OA
ENDBRANCH  15  18
ENDBRANCH   5  15
ENDBRANCH   1  11
BRANCH   2  19
ATOM     19  C   UNL     1       2.588   6.979  18.682  0.00  0.00    +0.000 A 
ATOM     20  C   UNL     1       3.531   7.195  17.654  0.00  0.00    +0.000 A 
ATOM     21  C   UNL     1       4.252   6.142  17.075  0.00  0.00    +0.000 A 
ATOM     22  C   UNL     1       5.144   6.368  16.015  0.00  0.00    +0.000 A 
ATOM     23  C   UNL     1       5.835   5.305  15.430  0.00  0.00    +0.000 A 
ATOM     24  C   UNL     1       5.653   4.013  15.911  0.00  0.00    +0.000 A 
ATOM     25  C   UNL     1       4.785   3.780  16.979  0.00  0.00    +0.000 A 
ATOM     26  C   UNL     1       4.071   4.837  17.568  0.00  0.00    +0.000 A 
ATOM     27  C   UNL     1       3.189   4.634  18.641  0.00  0.00    +0.000 A 
ATOM     28  C   UNL     1       2.436   5.685  19.201  0.00  0.00    +0.000 A 
BRANCH  28  29
ATOM     29  O   UNL     1       1.690   5.253  20.264  0.00  0.00    +0.000 OA
ATOM     30  C   UNL     1       1.080   3.973  20.200  0.00  0.00    +0.000 C 
ENDBRANCH  28  29
ENDBRANCH   2  19
TORSDOF 5
ENDMDL
