MODEL 1
REMARK VINA RESULT:      -8.4      0.000      0.000
REMARK  Name = 
REMARK  6 active torsions:
REMARK  status: ('A' for Active; 'I' for Inactive)
REMARK    1  A    between atoms: C_2  and  C_11
REMARK    2  A    between atoms: N_3  and  C_4
REMARK    3  A    between atoms: C_4  and  C_5
REMARK    4  A    between atoms: C_15  and  C_17
REMARK    5  A    between atoms: N_19  and  C_20
REMARK    6  A    between atoms: C_27  and  C_28
REMARK                            x       y       z     vdW  Elec       q    Type
REMARK                         _______ _______ _______ _____ _____    ______ ____
ROOT
ATOM      1  C   UNL     1       2.928   6.680  18.918  0.00  0.00    +0.000 C 
ATOM      2  C   UNL     1       2.417   6.804  20.361  0.00  0.00    +0.000 C 
ATOM      3  C   UNL     1       1.102   7.573  20.472  0.00  0.00    +0.000 C 
ATOM      4  N   UNL     1       1.166   8.826  19.727  0.00  0.00    +0.000 N 
ATOM      5  C   UNL     1       0.765  10.002  20.368  0.00  0.00    +0.000 C 
ATOM      6  O   UNL     1       0.388   9.991  21.535  0.00  0.00    +0.000 OA
ATOM      7  C   UNL     1       1.450   8.651  18.303  0.00  0.00    +0.000 C 
ATOM      8  C   UNL     1       2.815   7.995  18.140  0.00  0.00    +0.000 C 
ENDROOT
BRANCH   5   9
ATOM      9  C   UNL     1       0.816  11.259  19.633  0.00  0.00    +0.000 A 
ATOM     10  C   UNL     1       1.811  12.214  19.691  0.00  0.00    +0.000 A 
ATOM     11  N   UNL     1       1.450  13.242  18.862  0.00  0.00    +0.000 N 
ATOM     12  N   UNL     1       0.208  13.060  18.362  0.00  0.00    +0.000 NA
ATOM     13  C   UNL     1      -0.192  11.857  18.813  0.00  0.00    +0.000 A 
BRANCH  11  14
ATOM     14  C   UNL     1       2.222  14.392  18.536  0.00  0.00    +0.000 A 
ATOM     15  C   UNL     1       1.662  15.678  18.599  0.00  0.00    +0.000 A 
ATOM     16  C   UNL     1       2.432  16.795  18.265  0.00  0.00    +0.000 A 
ATOM     17  C   UNL     1       3.758  16.636  17.866  0.00  0.00    +0.000 A 
ATOM     18  C   UNL     1       4.321  15.362  17.810  0.00  0.00    +0.000 A 
ATOM     19  C   UNL     1       3.561  14.242  18.151  0.00  0.00    +0.000 A 
ENDBRANCH  11  14
BRANCH  13  20
ATOM     20  C   UNL     1      -1.518  11.339  18.456  0.00  0.00    +0.000 A 
ATOM     21  C   UNL     1      -2.693  11.938  18.932  0.00  0.00    +0.000 A 
ATOM     22  C   UNL     1      -3.948  11.468  18.529  0.00  0.00    +0.000 A 
ATOM     23  C   UNL     1      -4.041  10.380  17.666  0.00  0.00    +0.000 A 
ATOM     24  C   UNL     1      -2.883   9.754  17.210  0.00  0.00    +0.000 A 
ATOM     25  C   UNL     1      -1.630  10.230  17.603  0.00  0.00    +0.000 A 
ENDBRANCH  13  20
ENDBRANCH   5   9
BRANCH   1  27
ATOM     26  O   UNL     1       1.180   5.685  17.565  0.00  0.00    +0.000 OA
ATOM     27  C   UNL     1       2.228   5.541  18.187  0.00  0.00    +0.000 C 
ATOM     28  N   UNL     1       2.767   4.288  18.282  0.00  0.00    +0.000 N 
ATOM     29  H   UNL     1       2.264   3.598  17.736  0.00  0.00    +0.000 HD
BRANCH  28  30
ATOM     30  C   UNL     1       4.094   3.943  18.749  0.00  0.00    +0.000 C 
BRANCH  30  31
ATOM     31  C   UNL     1       5.169   4.195  17.719  0.00  0.00    +0.000 A 
ATOM     32  C   UNL     1       6.433   4.652  18.127  0.00  0.00    +0.000 A 
ATOM     33  C   UNL     1       7.458   4.841  17.197  0.00  0.00    +0.000 A 
ATOM     34  C   UNL     1       7.235   4.573  15.848  0.00  0.00    +0.000 A 
ATOM     35  C   UNL     1       5.985   4.126  15.427  0.00  0.00    +0.000 A 
ATOM     36  C   UNL     1       4.959   3.934  16.356  0.00  0.00    +0.000 A 
ENDBRANCH  30  31
ENDBRANCH  28  30
ENDBRANCH   1  27
TORSDOF 6
ENDMDL
MODEL 2
REMARK VINA RESULT:      -8.4      0.176      1.164
REMARK  Name = 
REMARK  6 active torsions:
REMARK  status: ('A' for Active; 'I' for Inactive)
REMARK    1  A    between atoms: C_2  and  C_11
REMARK    2  A    between atoms: N_3  and  C_4
REMARK    3  A    between atoms: C_4  and  C_5
REMARK    4  A    between atoms: C_15  and  C_17
REMARK    5  A    between atoms: N_19  and  C_20
REMARK    6  A    between atoms: C_27  and  C_28
REMARK                            x       y       z     vdW  Elec       q    Type
REMARK                         _______ _______ _______ _____ _____    ______ ____
ROOT
ATOM      1  C   UNL     1       2.970   6.682  18.938  0.00  0.00    +0.000 C 
ATOM      2  C   UNL     1       2.410   6.798  20.363  0.00  0.00    +0.000 C 
ATOM      3  C   UNL     1       1.088   7.561  20.432  0.00  0.00    +0.000 C 
ATOM      4  N   UNL     1       1.171   8.817  19.694  0.00  0.00    +0.000 N 
ATOM      5  C   UNL     1       0.743   9.989  20.325  0.00  0.00    +0.000 C 
ATOM      6  O   UNL     1       0.327   9.972  21.478  0.00  0.00    +0.000 OA
ATOM      7  C   UNL     1       1.504   8.649  18.280  0.00  0.00    +0.000 C 
ATOM      8  C   UNL     1       2.877   7.999  18.160  0.00  0.00    +0.000 C 
ENDROOT
BRANCH   5   9
ATOM      9  C   UNL     1       0.813  11.249  19.596  0.00  0.00    +0.000 A 
ATOM     10  C   UNL     1       1.811  12.199  19.676  0.00  0.00    +0.000 A 
ATOM     11  N   UNL     1       1.470  13.232  18.845  0.00  0.00    +0.000 N 
ATOM     12  N   UNL     1       0.236  13.057  18.322  0.00  0.00    +0.000 NA
ATOM     13  C   UNL     1      -0.176  11.854  18.760  0.00  0.00    +0.000 A 
BRANCH  11  14
ATOM     14  C   UNL     1       2.252  14.380  18.539  0.00  0.00    +0.000 A 
ATOM     15  C   UNL     1       1.705  15.670  18.622  0.00  0.00    +0.000 A 
ATOM     16  C   UNL     1       2.485  16.785  18.307  0.00  0.00    +0.000 A 
ATOM     17  C   UNL     1       3.809  16.620  17.906  0.00  0.00    +0.000 A 
ATOM     18  C   UNL     1       4.361  15.343  17.830  0.00  0.00    +0.000 A 
ATOM     19  C   UNL     1       3.590  14.224  18.152  0.00  0.00    +0.000 A 
ENDBRANCH  11  14
BRANCH  13  20
ATOM     20  C   UNL     1      -1.498  11.344  18.376  0.00  0.00    +0.000 A 
ATOM     21  C   UNL     1      -1.640  10.222  17.547  0.00  0.00    +0.000 A 
ATOM     22  C   UNL     1      -2.908   9.714  17.243  0.00  0.00    +0.000 A 
ATOM     23  C   UNL     1      -4.047  10.337  17.745  0.00  0.00    +0.000 A 
ATOM     24  C   UNL     1      -3.923  11.471  18.545  0.00  0.00    +0.000 A 
ATOM     25  C   UNL     1      -2.658  11.972  18.857  0.00  0.00    +0.000 A 
ENDBRANCH  13  20
ENDBRANCH   5   9
BRANCH   1  27
ATOM     26  O   UNL     1       1.224   5.660  17.600  0.00  0.00    +0.000 OA
ATOM     27  C   UNL     1       2.300   5.542  18.179  0.00  0.00    +0.000 C 
ATOM     28  N   UNL     1       2.902   4.314  18.199  0.00  0.00    +0.000 N 
ATOM     29  H   UNL     1       2.414   3.625  17.640  0.00  0.00    +0.000 HD
BRANCH  28  30
ATOM     30  C   UNL     1       4.260   4.017  18.605  0.00  0.00    +0.000 C 
BRANCH  30  31
ATOM     31  C   UNL     1       5.266   4.206  17.495  0.00  0.00    +0.000 A 
ATOM     32  C   UNL     1       4.872   4.028  16.159  0.00  0.00    +0.000 A 
ATOM     33  C   UNL     1       5.771   4.249  15.114  0.00  0.00    +0.000 A 
ATOM     34  C   UNL     1       7.075   4.656  15.389  0.00  0.00    +0.000 A 
ATOM     35  C   UNL     1       7.483   4.830  16.709  0.00  0.00    +0.000 A 
ATOM     36  C   UNL     1       6.584   4.610  17.756  0.00  0.00    +0.000 A 
ENDBRANCH  30  31
ENDBRANCH  28  30
ENDBRANCH   1  27
TORSDOF 6
ENDMDL
MODEL 3
REMARK VINA RESULT:      -8.3      0.123      1.155
REMARK  Name = 
REMARK  6 active torsions:
REMARK  status: ('A' for Active; 'I' for Inactive)
REMARK    1  A    between atoms: C_2  and  C_11
REMARK    2  A    between atoms: N_3  and  C_4
REMARK    3  A    between atoms: C_4  and  C_5
REMARK    4  A    between atoms: C_15  and  C_17
REMARK    5  A    between atoms: N_19  and  C_20
REMARK    6  A    between atoms: C_27  and  C_28
REMARK                            x       y       z     vdW  Elec       q    Type
REMARK                         _______ _______ _______ _____ _____    ______ ____
ROOT
ATOM      1  C   UNL     1       2.910   6.683  18.971  0.00  0.00    +0.000 C 
ATOM      2  C   UNL     1       2.360   6.803  20.400  0.00  0.00    +0.000 C 
ATOM      3  C   UNL     1       1.045   7.577  20.478  0.00  0.00    +0.000 C 
ATOM      4  N   UNL     1       1.133   8.832  19.740  0.00  0.00    +0.000 N 
ATOM      5  C   UNL     1       0.719  10.007  20.373  0.00  0.00    +0.000 C 
ATOM      6  O   UNL     1       0.310   9.993  21.530  0.00  0.00    +0.000 OA
ATOM      7  C   UNL     1       1.456   8.662  18.324  0.00  0.00    +0.000 C 
ATOM      8  C   UNL     1       2.822   8.001  18.195  0.00  0.00    +0.000 C 
ENDROOT
BRANCH   5   9
ATOM      9  C   UNL     1       0.794  11.267  19.644  0.00  0.00    +0.000 A 
ATOM     10  C   UNL     1       1.787  12.222  19.739  0.00  0.00    +0.000 A 
ATOM     11  N   UNL     1       1.454  13.252  18.902  0.00  0.00    +0.000 N 
ATOM     12  N   UNL     1       0.228  13.071  18.361  0.00  0.00    +0.000 NA
ATOM     13  C   UNL     1      -0.186  11.867  18.794  0.00  0.00    +0.000 A 
BRANCH  11  14
ATOM     14  C   UNL     1       2.235  14.403  18.605  0.00  0.00    +0.000 A 
ATOM     15  C   UNL     1       3.497  14.282  18.001  0.00  0.00    +0.000 A 
ATOM     16  C   UNL     1       4.255  15.423  17.727  0.00  0.00    +0.000 A 
ATOM     17  C   UNL     1       3.763  16.685  18.055  0.00  0.00    +0.000 A 
ATOM     18  C   UNL     1       2.508  16.811  18.647  0.00  0.00    +0.000 A 
ATOM     19  C   UNL     1       1.740  15.677  18.916  0.00  0.00    +0.000 A 
ENDBRANCH  11  14
BRANCH  13  20
ATOM     20  C   UNL     1      -1.499  11.351  18.391  0.00  0.00    +0.000 A 
ATOM     21  C   UNL     1      -1.625  10.211  17.585  0.00  0.00    +0.000 A 
ATOM     22  C   UNL     1      -2.887   9.699  17.264  0.00  0.00    +0.000 A 
ATOM     23  C   UNL     1      -4.036  10.335  17.725  0.00  0.00    +0.000 A 
ATOM     24  C   UNL     1      -3.927  11.488  18.500  0.00  0.00    +0.000 A 
ATOM     25  C   UNL     1      -2.668  11.992  18.830  0.00  0.00    +0.000 A 
ENDBRANCH  13  20
ENDBRANCH   5   9
BRANCH   1  27
ATOM     26  O   UNL     1       1.166   5.685  17.615  0.00  0.00    +0.000 OA
ATOM     27  C   UNL     1       2.226   5.549  18.217  0.00  0.00    +0.000 C 
ATOM     28  N   UNL     1       2.797   4.307  18.268  0.00  0.00    +0.000 N 
ATOM     29  H   UNL     1       2.303   3.621  17.709  0.00  0.00    +0.000 HD
BRANCH  28  30
ATOM     30  C   UNL     1       4.139   3.981  18.705  0.00  0.00    +0.000 C 
BRANCH  30  31
ATOM     31  C   UNL     1       5.184   4.224  17.642  0.00  0.00    +0.000 A 
ATOM     32  C   UNL     1       6.481   4.611  18.016  0.00  0.00    +0.000 A 
ATOM     33  C   UNL     1       7.477   4.790  17.053  0.00  0.00    +0.000 A 
ATOM     34  C   UNL     1       7.191   4.580  15.706  0.00  0.00    +0.000 A 
ATOM     35  C   UNL     1       5.908   4.203  15.319  0.00  0.00    +0.000 A 
ATOM     36  C   UNL     1       4.911   4.022  16.280  0.00  0.00    +0.000 A 
ENDBRANCH  30  31
ENDBRANCH  28  30
ENDBRANCH   1  27
TORSDOF 6
ENDMDL
MODEL 4
REMARK VINA RESULT:      -8.1      0.572      1.054
REMARK  Name = 
REMARK  6 active torsions:
REMARK  status: ('A' for Active; 'I' for Inactive)
REMARK    1  A    between atoms: C_2  and  C_11
REMARK    2  A    between atoms: N_3  and  C_4
REMARK    3  A    between atoms: C_4  and  C_5
REMARK    4  A    between atoms: C_15  and  C_17
REMARK    5  A    between atoms: N_19  and  C_20
REMARK    6  A    between atoms: C_27  and  C_28
REMARK                            x       y       z     vdW  Elec       q    Type
REMARK                         _______ _______ _______ _____ _____    ______ ____
ROOT
ATOM      1  C   UNL     1       2.982   6.646  19.147  0.00  0.00    +0.000 C 
ATOM      2  C   UNL     1       2.358   6.773  20.544  0.00  0.00    +0.000 C 
ATOM      3  C   UNL     1       1.027   7.524  20.545  0.00  0.00    +0.000 C 
ATOM      4  N   UNL     1       1.130   8.771  19.795  0.00  0.00    +0.000 N 
ATOM      5  C   UNL     1       0.663   9.946  20.391  0.00  0.00    +0.000 C 
ATOM      6  O   UNL     1       0.196   9.939  21.525  0.00  0.00    +0.000 OA
ATOM      7  C   UNL     1       1.528   8.589  18.400  0.00  0.00    +0.000 C 
ATOM      8  C   UNL     1       2.911   7.953  18.350  0.00  0.00    +0.000 C 
ENDROOT
BRANCH   5   9
ATOM      9  C   UNL     1       0.753  11.198  19.651  0.00  0.00    +0.000 A 
ATOM     10  C   UNL     1       1.766  12.134  19.723  0.00  0.00    +0.000 A 
ATOM     11  N   UNL     1       1.441  13.164  18.882  0.00  0.00    +0.000 N 
ATOM     12  N   UNL     1       0.206  13.003  18.359  0.00  0.00    +0.000 NA
ATOM     13  C   UNL     1      -0.226  11.810  18.808  0.00  0.00    +0.000 A 
BRANCH  11  14
ATOM     14  C   UNL     1       2.241  14.296  18.566  0.00  0.00    +0.000 A 
ATOM     15  C   UNL     1       3.580  14.146  18.170  0.00  0.00    +0.000 A 
ATOM     16  C   UNL     1       4.354  15.271  17.873  0.00  0.00    +0.000 A 
ATOM     17  C   UNL     1       3.801  16.546  17.971  0.00  0.00    +0.000 A 
ATOM     18  C   UNL     1       2.470  16.700  18.354  0.00  0.00    +0.000 A 
ATOM     19  C   UNL     1       1.687  15.581  18.644  0.00  0.00    +0.000 A 
ENDBRANCH  11  14
BRANCH  13  20
ATOM     20  C   UNL     1      -1.555  11.317  18.428  0.00  0.00    +0.000 A 
ATOM     21  C   UNL     1      -2.728  11.928  18.894  0.00  0.00    +0.000 A 
ATOM     22  C   UNL     1      -3.983  11.482  18.469  0.00  0.00    +0.000 A 
ATOM     23  C   UNL     1      -4.081  10.404  17.594  0.00  0.00    +0.000 A 
ATOM     24  C   UNL     1      -2.926   9.765  17.147  0.00  0.00    +0.000 A 
ATOM     25  C   UNL     1      -1.672  10.218  17.562  0.00  0.00    +0.000 A 
ENDBRANCH  13  20
ENDBRANCH   5   9
BRANCH   1  27
ATOM     26  O   UNL     1       1.321   5.596  17.726  0.00  0.00    +0.000 OA
ATOM     27  C   UNL     1       2.358   5.490  18.373  0.00  0.00    +0.000 C 
ATOM     28  N   UNL     1       2.955   4.263  18.458  0.00  0.00    +0.000 N 
ATOM     29  H   UNL     1       2.502   3.562  17.885  0.00  0.00    +0.000 HD
BRANCH  28  30
ATOM     30  C   UNL     1       4.285   3.973  18.954  0.00  0.00    +0.000 C 
BRANCH  30  31
ATOM     31  C   UNL     1       5.359   4.802  18.291  0.00  0.00    +0.000 A 
ATOM     32  C   UNL     1       6.359   5.402  19.073  0.00  0.00    +0.000 A 
ATOM     33  C   UNL     1       7.392   6.129  18.476  0.00  0.00    +0.000 A 
ATOM     34  C   UNL     1       7.441   6.262  17.090  0.00  0.00    +0.000 A 
ATOM     35  C   UNL     1       6.452   5.679  16.302  0.00  0.00    +0.000 A 
ATOM     36  C   UNL     1       5.420   4.950  16.897  0.00  0.00    +0.000 A 
ENDBRANCH  30  31
ENDBRANCH  28  30
ENDBRANCH   1  27
TORSDOF 6
ENDMDL
MODEL 5
REMARK VINA RESULT:      -8.0      3.440      6.178
REMARK  Name = 
REMARK  6 active torsions:
REMARK  status: ('A' for Active; 'I' for Inactive)
REMARK    1  A    between atoms: C_2  and  C_11
REMARK    2  A    between atoms: N_3  and  C_4
REMARK    3  A    between atoms: C_4  and  C_5
REMARK    4  A    between atoms: C_15  and  C_17
REMARK    5  A    between atoms: N_19  and  C_20
REMARK    6  A    between atoms: C_27  and  C_28
REMARK                            x       y       z     vdW  Elec       q    Type
REMARK                         _______ _______ _______ _____ _____    ______ ____
ROOT
ATOM      1  C   UNL     1       0.777   9.297  19.869  0.00  0.00    +0.000 C 
ATOM      2  C   UNL     1       1.427  10.658  19.579  0.00  0.00    +0.000 C 
ATOM      3  C   UNL     1       1.019  11.746  20.572  0.00  0.00    +0.000 C 
ATOM      4  N   UNL     1      -0.428  11.775  20.749  0.00  0.00    +0.000 N 
ATOM      5  C   UNL     1      -1.086  13.004  20.648  0.00  0.00    +0.000 C 
ATOM      6  O   UNL     1      -0.470  14.034  20.394  0.00  0.00    +0.000 OA
ATOM      7  C   UNL     1      -0.989  10.513  21.231  0.00  0.00    +0.000 C 
ATOM      8  C   UNL     1      -0.713   9.418  20.209  0.00  0.00    +0.000 C 
ENDROOT
BRANCH   5   9
ATOM      9  C   UNL     1      -2.531  13.049  20.831  0.00  0.00    +0.000 A 
ATOM     10  C   UNL     1      -3.212  13.452  21.962  0.00  0.00    +0.000 A 
ATOM     11  N   UNL     1      -4.551  13.316  21.713  0.00  0.00    +0.000 N 
ATOM     12  N   UNL     1      -4.772  12.725  20.518  0.00  0.00    +0.000 NA
ATOM     13  C   UNL     1      -3.557  12.562  19.963  0.00  0.00    +0.000 A 
BRANCH  11  14
ATOM     14  C   UNL     1      -5.624  13.705  22.561  0.00  0.00    +0.000 A 
ATOM     15  C   UNL     1      -6.353  12.750  23.288  0.00  0.00    +0.000 A 
ATOM     16  C   UNL     1      -7.411  13.150  24.107  0.00  0.00    +0.000 A 
ATOM     17  C   UNL     1      -7.749  14.498  24.204  0.00  0.00    +0.000 A 
ATOM     18  C   UNL     1      -7.024  15.452  23.492  0.00  0.00    +0.000 A 
ATOM     19  C   UNL     1      -5.959  15.061  22.677  0.00  0.00    +0.000 A 
ENDBRANCH  11  14
BRANCH  13  20
ATOM     20  C   UNL     1      -3.429  11.937  18.641  0.00  0.00    +0.000 A 
ATOM     21  C   UNL     1      -4.545  11.444  17.950  0.00  0.00    +0.000 A 
ATOM     22  C   UNL     1      -4.410  10.909  16.665  0.00  0.00    +0.000 A 
ATOM     23  C   UNL     1      -3.155  10.838  16.067  0.00  0.00    +0.000 A 
ATOM     24  C   UNL     1      -2.032  11.294  16.754  0.00  0.00    +0.000 A 
ATOM     25  C   UNL     1      -2.168  11.839  18.033  0.00  0.00    +0.000 A 
ENDBRANCH  13  20
ENDBRANCH   5   9
BRANCH   1  27
ATOM     26  O   UNL     1       1.477   8.855  22.147  0.00  0.00    +0.000 OA
ATOM     27  C   UNL     1       1.535   8.551  20.960  0.00  0.00    +0.000 C 
ATOM     28  N   UNL     1       2.367   7.533  20.584  0.00  0.00    +0.000 N 
ATOM     29  H   UNL     1       2.801   7.065  21.371  0.00  0.00    +0.000 HD
BRANCH  28  30
ATOM     30  C   UNL     1       2.401   6.865  19.299  0.00  0.00    +0.000 C 
BRANCH  30  31
ATOM     31  C   UNL     1       1.914   5.437  19.359  0.00  0.00    +0.000 A 
ATOM     32  C   UNL     1       1.942   4.642  18.202  0.00  0.00    +0.000 A 
ATOM     33  C   UNL     1       1.546   3.303  18.247  0.00  0.00    +0.000 A 
ATOM     34  C   UNL     1       1.121   2.741  19.448  0.00  0.00    +0.000 A 
ATOM     35  C   UNL     1       1.082   3.519  20.603  0.00  0.00    +0.000 A 
ATOM     36  C   UNL     1       1.479   4.857  20.560  0.00  0.00    +0.000 A 
ENDBRANCH  30  31
ENDBRANCH  28  30
ENDBRANCH   1  27
TORSDOF 6
ENDMDL
MODEL 6
REMARK VINA RESULT:      -8.0      2.880      9.274
REMARK  Name = 
REMARK  6 active torsions:
REMARK  status: ('A' for Active; 'I' for Inactive)
REMARK    1  A    between atoms: C_2  and  C_11
REMARK    2  A    between atoms: N_3  and  C_4
REMARK    3  A    between atoms: C_4  and  C_5
REMARK    4  A    between atoms: C_15  and  C_17
REMARK    5  A    between atoms: N_19  and  C_20
REMARK    6  A    between atoms: C_27  and  C_28
REMARK                            x       y       z     vdW  Elec       q    Type
REMARK                         _______ _______ _______ _____ _____    ______ ____
ROOT
ATOM      1  C   UNL     1      -3.334  11.424  18.433  0.00  0.00    +0.000 C 
ATOM      2  C   UNL     1      -2.356  12.599  18.574  0.00  0.00    +0.000 C 
ATOM      3  C   UNL     1      -1.061  12.405  17.787  0.00  0.00    +0.000 C 
ATOM      4  N   UNL     1      -0.488  11.088  18.042  0.00  0.00    +0.000 N 
ATOM      5  C   UNL     1       0.866  11.005  18.379  0.00  0.00    +0.000 C 
ATOM      6  O   UNL     1       1.556  12.014  18.482  0.00  0.00    +0.000 OA
ATOM      7  C   UNL     1      -1.379   9.980  17.696  0.00  0.00    +0.000 C 
ATOM      8  C   UNL     1      -2.638  10.063  18.549  0.00  0.00    +0.000 C 
ENDROOT
BRANCH   5   9
ATOM      9  C   UNL     1       1.453   9.694  18.628  0.00  0.00    +0.000 A 
ATOM     10  C   UNL     1       2.039   8.858  17.699  0.00  0.00    +0.000 A 
ATOM     11  N   UNL     1       2.436   7.723  18.353  0.00  0.00    +0.000 N 
ATOM     12  N   UNL     1       2.024   7.726  19.640  0.00  0.00    +0.000 NA
ATOM     13  C   UNL     1       1.431   8.919  19.829  0.00  0.00    +0.000 A 
BRANCH  11  14
ATOM     14  C   UNL     1       3.172   6.634  17.810  0.00  0.00    +0.000 A 
ATOM     15  C   UNL     1       2.710   5.314  17.940  0.00  0.00    +0.000 A 
ATOM     16  C   UNL     1       3.452   4.256  17.410  0.00  0.00    +0.000 A 
ATOM     17  C   UNL     1       4.654   4.506  16.751  0.00  0.00    +0.000 A 
ATOM     18  C   UNL     1       5.113   5.815  16.611  0.00  0.00    +0.000 A 
ATOM     19  C   UNL     1       4.373   6.878  17.131  0.00  0.00    +0.000 A 
ENDBRANCH  11  14
BRANCH  13  20
ATOM     20  C   UNL     1       0.859   9.258  21.137  0.00  0.00    +0.000 A 
ATOM     21  C   UNL     1      -0.373   9.919  21.252  0.00  0.00    +0.000 A 
ATOM     22  C   UNL     1      -0.930  10.177  22.508  0.00  0.00    +0.000 A 
ATOM     23  C   UNL     1      -0.252   9.801  23.664  0.00  0.00    +0.000 A 
ATOM     24  C   UNL     1       0.989   9.173  23.567  0.00  0.00    +0.000 A 
ATOM     25  C   UNL     1       1.540   8.905  22.312  0.00  0.00    +0.000 A 
ENDBRANCH  13  20
ENDBRANCH   5   9
BRANCH   1  27
ATOM     26  O   UNL     1      -3.790  10.991  16.092  0.00  0.00    +0.000 OA
ATOM     27  C   UNL     1      -4.133  11.530  17.140  0.00  0.00    +0.000 C 
ATOM     28  N   UNL     1      -5.252  12.315  17.138  0.00  0.00    +0.000 N 
ATOM     29  H   UNL     1      -5.745  12.300  16.253  0.00  0.00    +0.000 HD
BRANCH  28  30
ATOM     30  C   UNL     1      -5.955  12.834  18.293  0.00  0.00    +0.000 C 
BRANCH  30  31
ATOM     31  C   UNL     1      -6.613  11.755  19.120  0.00  0.00    +0.000 A 
ATOM     32  C   UNL     1      -6.668  10.439  18.633  0.00  0.00    +0.000 A 
ATOM     33  C   UNL     1      -7.224   9.415  19.404  0.00  0.00    +0.000 A 
ATOM     34  C   UNL     1      -7.729   9.692  20.672  0.00  0.00    +0.000 A 
ATOM     35  C   UNL     1      -7.688  10.993  21.166  0.00  0.00    +0.000 A 
ATOM     36  C   UNL     1      -7.131  12.018  20.398  0.00  0.00    +0.000 A 
ENDBRANCH  30  31
ENDBRANCH  28  30
ENDBRANCH   1  27
TORSDOF 6
ENDMDL
MODEL 7
REMARK VINA RESULT:      -7.8      3.201      5.992
REMARK  Name = 
REMARK  6 active torsions:
REMARK  status: ('A' for Active; 'I' for Inactive)
REMARK    1  A    between atoms: C_2  and  C_11
REMARK    2  A    between atoms: N_3  and  C_4
REMARK    3  A    between atoms: C_4  and  C_5
REMARK    4  A    between atoms: C_15  and  C_17
REMARK    5  A    between atoms: N_19  and  C_20
REMARK    6  A    between atoms: C_27  and  C_28
REMARK                            x       y       z     vdW  Elec       q    Type
REMARK                         _______ _______ _______ _____ _____    ______ ____
ROOT
ATOM      1  C   UNL     1       0.917   8.987  19.363  0.00  0.00    +0.000 C 
ATOM      2  C   UNL     1       1.502  10.353  18.976  0.00  0.00    +0.000 C 
ATOM      3  C   UNL     1       1.074  11.481  19.914  0.00  0.00    +0.000 C 
ATOM      4  N   UNL     1      -0.369  11.462  20.128  0.00  0.00    +0.000 N 
ATOM      5  C   UNL     1      -1.080  12.656  19.971  0.00  0.00    +0.000 C 
ATOM      6  O   UNL     1      -0.514  13.692  19.641  0.00  0.00    +0.000 OA
ATOM      7  C   UNL     1      -0.865  10.210  20.697  0.00  0.00    +0.000 C 
ATOM      8  C   UNL     1      -0.568   9.067  19.735  0.00  0.00    +0.000 C 
ENDROOT
BRANCH   5   9
ATOM      9  C   UNL     1      -2.521  12.653  20.190  0.00  0.00    +0.000 A 
ATOM     10  C   UNL     1      -3.187  13.033  21.338  0.00  0.00    +0.000 A 
ATOM     11  N   UNL     1      -4.526  12.853  21.122  0.00  0.00    +0.000 N 
ATOM     12  N   UNL     1      -4.757  12.255  19.932  0.00  0.00    +0.000 NA
ATOM     13  C   UNL     1      -3.552  12.132  19.348  0.00  0.00    +0.000 A 
BRANCH  11  14
ATOM     14  C   UNL     1      -5.591  13.207  21.996  0.00  0.00    +0.000 A 
ATOM     15  C   UNL     1      -6.868  12.645  21.843  0.00  0.00    +0.000 A 
ATOM     16  C   UNL     1      -7.905  13.012  22.705  0.00  0.00    +0.000 A 
ATOM     17  C   UNL     1      -7.675  13.941  23.718  0.00  0.00    +0.000 A 
ATOM     18  C   UNL     1      -6.407  14.496  23.880  0.00  0.00    +0.000 A 
ATOM     19  C   UNL     1      -5.364  14.127  23.029  0.00  0.00    +0.000 A 
ENDBRANCH  11  14
BRANCH  13  20
ATOM     20  C   UNL     1      -3.436  11.512  18.023  0.00  0.00    +0.000 A 
ATOM     21  C   UNL     1      -2.378  10.648  17.706  0.00  0.00    +0.000 A 
ATOM     22  C   UNL     1      -2.320  10.018  16.458  0.00  0.00    +0.000 A 
ATOM     23  C   UNL     1      -3.304  10.264  15.505  0.00  0.00    +0.000 A 
ATOM     24  C   UNL     1      -4.344  11.145  15.794  0.00  0.00    +0.000 A 
ATOM     25  C   UNL     1      -4.409  11.766  17.043  0.00  0.00    +0.000 A 
ENDBRANCH  13  20
ENDBRANCH   5   9
BRANCH   1  27
ATOM     26  O   UNL     1       1.741   8.752  21.631  0.00  0.00    +0.000 OA
ATOM     27  C   UNL     1       1.732   8.339  20.475  0.00  0.00    +0.000 C 
ATOM     28  N   UNL     1       2.539   7.283  20.151  0.00  0.00    +0.000 N 
ATOM     29  H   UNL     1       3.014   6.887  20.952  0.00  0.00    +0.000 HD
BRANCH  28  30
ATOM     30  C   UNL     1       2.500   6.500  18.933  0.00  0.00    +0.000 C 
BRANCH  30  31
ATOM     31  C   UNL     1       2.064   5.072  19.160  0.00  0.00    +0.000 A 
ATOM     32  C   UNL     1       1.549   4.691  20.409  0.00  0.00    +0.000 A 
ATOM     33  C   UNL     1       1.090   3.389  20.625  0.00  0.00    +0.000 A 
ATOM     34  C   UNL     1       1.137   2.453  19.595  0.00  0.00    +0.000 A 
ATOM     35  C   UNL     1       1.652   2.814  18.352  0.00  0.00    +0.000 A 
ATOM     36  C   UNL     1       2.109   4.115  18.134  0.00  0.00    +0.000 A 
ENDBRANCH  30  31
ENDBRANCH  28  30
ENDBRANCH   1  27
TORSDOF 6
ENDMDL
MODEL 8
REMARK VINA RESULT:      -7.8      0.860      1.481
REMARK  Name = 
REMARK  6 active torsions:
REMARK  status: ('A' for Active; 'I' for Inactive)
REMARK    1  A    between atoms: C_2  and  C_11
REMARK    2  A    between atoms: N_3  and  C_4
REMARK    3  A    between atoms: C_4  and  C_5
REMARK    4  A    between atoms: C_15  and  C_17
REMARK    5  A    between atoms: N_19  and  C_20
REMARK    6  A    between atoms: C_27  and  C_28
REMARK                            x       y       z     vdW  Elec       q    Type
REMARK                         _______ _______ _______ _____ _____    ______ ____
ROOT
ATOM      1  C   UNL     1       3.401   6.660  18.742  0.00  0.00    +0.000 C 
ATOM      2  C   UNL     1       2.683   6.632  20.099  0.00  0.00    +0.000 C 
ATOM      3  C   UNL     1       1.305   7.290  20.067  0.00  0.00    +0.000 C 
ATOM      4  N   UNL     1       1.365   8.598  19.425  0.00  0.00    +0.000 N 
ATOM      5  C   UNL     1       0.779   9.687  20.077  0.00  0.00    +0.000 C 
ATOM      6  O   UNL     1       0.244   9.557  21.173  0.00  0.00    +0.000 OA
ATOM      7  C   UNL     1       1.861   8.558  18.050  0.00  0.00    +0.000 C 
ATOM      8  C   UNL     1       3.287   8.020  18.045  0.00  0.00    +0.000 C 
ENDROOT
BRANCH   5   9
ATOM      9  C   UNL     1       0.826  10.999  19.443  0.00  0.00    +0.000 A 
ATOM     10  C   UNL     1       1.834  11.936  19.549  0.00  0.00    +0.000 A 
ATOM     11  N   UNL     1       1.464  13.030  18.814  0.00  0.00    +0.000 N 
ATOM     12  N   UNL     1       0.206  12.901  18.337  0.00  0.00    +0.000 NA
ATOM     13  C   UNL     1      -0.196  11.670  18.702  0.00  0.00    +0.000 A 
BRANCH  11  14
ATOM     14  C   UNL     1       2.240  14.194  18.560  0.00  0.00    +0.000 A 
ATOM     15  C   UNL     1       3.525  14.097  18.002  0.00  0.00    +0.000 A 
ATOM     16  C   UNL     1       4.278  15.251  17.769  0.00  0.00    +0.000 A 
ATOM     17  C   UNL     1       3.756  16.502  18.090  0.00  0.00    +0.000 A 
ATOM     18  C   UNL     1       2.478  16.606  18.635  0.00  0.00    +0.000 A 
ATOM     19  C   UNL     1       1.716  15.458  18.863  0.00  0.00    +0.000 A 
ENDBRANCH  11  14
BRANCH  13  20
ATOM     20  C   UNL     1      -1.538  11.196  18.341  0.00  0.00    +0.000 A 
ATOM     21  C   UNL     1      -2.694  11.821  18.831  0.00  0.00    +0.000 A 
ATOM     22  C   UNL     1      -3.962  11.393  18.426  0.00  0.00    +0.000 A 
ATOM     23  C   UNL     1      -4.090  10.321  17.547  0.00  0.00    +0.000 A 
ATOM     24  C   UNL     1      -2.951   9.669  17.077  0.00  0.00    +0.000 A 
ATOM     25  C   UNL     1      -1.684  10.103  17.473  0.00  0.00    +0.000 A 
ENDBRANCH  13  20
ENDBRANCH   5   9
BRANCH   1  27
ATOM     26  O   UNL     1       1.728   5.223  17.735  0.00  0.00    +0.000 OA
ATOM     27  C   UNL     1       2.911   5.533  17.841  0.00  0.00    +0.000 C 
ATOM     28  N   UNL     1       3.844   4.795  17.167  0.00  0.00    +0.000 N 
ATOM     29  H   UNL     1       3.434   4.094  16.563  0.00  0.00    +0.000 HD
BRANCH  28  30
ATOM     30  C   UNL     1       5.238   5.132  16.962  0.00  0.00    +0.000 C 
BRANCH  30  31
ATOM     31  C   UNL     1       5.728   4.809  15.571  0.00  0.00    +0.000 A 
ATOM     32  C   UNL     1       7.027   5.177  15.185  0.00  0.00    +0.000 A 
ATOM     33  C   UNL     1       7.519   4.842  13.922  0.00  0.00    +0.000 A 
ATOM     34  C   UNL     1       6.721   4.130  13.029  0.00  0.00    +0.000 A 
ATOM     35  C   UNL     1       5.428   3.764  13.394  0.00  0.00    +0.000 A 
ATOM     36  C   UNL     1       4.935   4.097  14.657  0.00  0.00    +0.000 A 
ENDBRANCH  30  31
ENDBRANCH  28  30
ENDBRANCH   1  27
TORSDOF 6
ENDMDL
MODEL 9
REMARK VINA RESULT:      -7.7      3.202      5.972
REMARK  Name = 
REMARK  6 active torsions:
REMARK  status: ('A' for Active; 'I' for Inactive)
REMARK    1  A    between atoms: C_2  and  C_11
REMARK    2  A    between atoms: N_3  and  C_4
REMARK    3  A    between atoms: C_4  and  C_5
REMARK    4  A    between atoms: C_15  and  C_17
REMARK    5  A    between atoms: N_19  and  C_20
REMARK    6  A    between atoms: C_27  and  C_28
REMARK                            x       y       z     vdW  Elec       q    Type
REMARK                         _______ _______ _______ _____ _____    ______ ____
ROOT
ATOM      1  C   UNL     1       0.835   9.028  19.291  0.00  0.00    +0.000 C 
ATOM      2  C   UNL     1       1.395  10.391  18.858  0.00  0.00    +0.000 C 
ATOM      3  C   UNL     1       0.980  11.535  19.781  0.00  0.00    +0.000 C 
ATOM      4  N   UNL     1      -0.456  11.507  20.035  0.00  0.00    +0.000 N 
ATOM      5  C   UNL     1      -1.184  12.689  19.871  0.00  0.00    +0.000 C 
ATOM      6  O   UNL     1      -0.638  13.724  19.503  0.00  0.00    +0.000 OA
ATOM      7  C   UNL     1      -0.922  10.263  20.646  0.00  0.00    +0.000 C 
ATOM      8  C   UNL     1      -0.640   9.102  19.702  0.00  0.00    +0.000 C 
ENDROOT
BRANCH   5   9
ATOM      9  C   UNL     1      -2.618  12.677  20.130  0.00  0.00    +0.000 A 
ATOM     10  C   UNL     1      -3.255  13.065  21.291  0.00  0.00    +0.000 A 
ATOM     11  N   UNL     1      -4.599  12.871  21.114  0.00  0.00    +0.000 N 
ATOM     12  N   UNL     1      -4.857  12.258  19.937  0.00  0.00    +0.000 NA
ATOM     13  C   UNL     1      -3.667  12.138  19.321  0.00  0.00    +0.000 A 
BRANCH  11  14
ATOM     14  C   UNL     1      -5.642  13.225  22.013  0.00  0.00    +0.000 A 
ATOM     15  C   UNL     1      -5.469  14.259  22.948  0.00  0.00    +0.000 A 
ATOM     16  C   UNL     1      -6.502  14.587  23.830  0.00  0.00    +0.000 A 
ATOM     17  C   UNL     1      -7.706  13.887  23.787  0.00  0.00    +0.000 A 
ATOM     18  C   UNL     1      -7.887  12.866  22.856  0.00  0.00    +0.000 A 
ATOM     19  C   UNL     1      -6.863  12.539  21.964  0.00  0.00    +0.000 A 
ENDBRANCH  11  14
BRANCH  13  20
ATOM     20  C   UNL     1      -3.582  11.504  18.000  0.00  0.00    +0.000 A 
ATOM     21  C   UNL     1      -4.519  11.775  16.993  0.00  0.00    +0.000 A 
ATOM     22  C   UNL     1      -4.384  11.209  15.721  0.00  0.00    +0.000 A 
ATOM     23  C   UNL     1      -3.326  10.346  15.450  0.00  0.00    +0.000 A 
ATOM     24  C   UNL     1      -2.405  10.041  16.451  0.00  0.00    +0.000 A 
ATOM     25  C   UNL     1      -2.533  10.615  17.717  0.00  0.00    +0.000 A 
ENDBRANCH  13  20
ENDBRANCH   5   9
BRANCH   1  27
ATOM     26  O   UNL     1       1.677   8.815  21.555  0.00  0.00    +0.000 OA
ATOM     27  C   UNL     1       1.688   8.414  20.395  0.00  0.00    +0.000 C 
ATOM     28  N   UNL     1       2.549   7.406  20.058  0.00  0.00    +0.000 N 
ATOM     29  H   UNL     1       3.047   7.028  20.854  0.00  0.00    +0.000 HD
BRANCH  28  30
ATOM     30  C   UNL     1       2.550   6.635  18.832  0.00  0.00    +0.000 C 
BRANCH  30  31
ATOM     31  C   UNL     1       2.186   5.185  19.045  0.00  0.00    +0.000 A 
ATOM     32  C   UNL     1       1.605   4.782  20.258  0.00  0.00    +0.000 A 
ATOM     33  C   UNL     1       1.212   3.456  20.456  0.00  0.00    +0.000 A 
ATOM     34  C   UNL     1       1.390   2.517  19.443  0.00  0.00    +0.000 A 
ATOM     35  C   UNL     1       1.971   2.899  18.237  0.00  0.00    +0.000 A 
ATOM     36  C   UNL     1       2.363   4.225  18.036  0.00  0.00    +0.000 A 
ENDBRANCH  30  31
ENDBRANCH  28  30
ENDBRANCH   1  27
TORSDOF 6
ENDMDL
