MODEL 1
REMARK VINA RESULT:      -9.1      0.000      0.000
REMARK  Name = 
REMARK  5 active torsions:
REMARK  status: ('A' for Active; 'I' for Inactive)
REMARK    1  A    between atoms: C_2  and  C_18
REMARK    2  A    between atoms: N_3  and  C_4
REMARK    3  A    between atoms: C_8  and  S_9
REMARK    4  A    between atoms: S_9  and  N_12
REMARK    5  A    between atoms: C_22  and  N_23
REMARK                            x       y       z     vdW  Elec       q    Type
REMARK                         _______ _______ _______ _____ _____    ______ ____
ROOT
ATOM      1  O   UNL     1       2.231   8.072  18.679  0.00  0.00    +0.000 OA
ATOM      2  C   UNL     1       2.219   7.292  19.627  0.00  0.00    +0.000 C 
ATOM      3  N   UNL     1       1.619   7.506  20.860  0.00  0.00    +0.000 N 
ATOM      4  H   UNL     1       1.836   6.857  21.607  0.00  0.00    +0.000 HD
ENDROOT
BRANCH   3   5
ATOM      5  C   UNL     1       0.906   8.679  21.222  0.00  0.00    +0.000 A 
ATOM      6  C   UNL     1       0.606   9.000  22.551  0.00  0.00    +0.000 A 
ATOM      7  C   UNL     1      -0.197  10.096  22.873  0.00  0.00    +0.000 A 
ATOM      8  C   UNL     1      -0.670  10.930  21.870  0.00  0.00    +0.000 A 
ATOM      9  C   UNL     1      -0.292  10.685  20.548  0.00  0.00    +0.000 A 
ATOM     10  C   UNL     1       0.465   9.546  20.214  0.00  0.00    +0.000 A 
BRANCH   9  11
ATOM     11  S   UNL     1      -0.869  11.786  19.270  0.00  0.00    +0.000 S 
ATOM     12  O   UNL     1      -1.530  12.894  19.934  0.00  0.00    +0.000 OA
ATOM     13  O   UNL     1       0.229  12.011  18.355  0.00  0.00    +0.000 OA
BRANCH  11  14
ATOM     14  N   UNL     1      -2.044  10.891  18.461  0.00  0.00    +0.000 NA
ATOM     15  C   UNL     1      -1.662  10.063  17.302  0.00  0.00    +0.000 C 
ATOM     16  C   UNL     1      -2.619  10.484  16.198  0.00  0.00    +0.000 C 
ATOM     17  C   UNL     1      -3.889  10.831  16.951  0.00  0.00    +0.000 C 
ATOM     18  C   UNL     1      -3.389  11.465  18.244  0.00  0.00    +0.000 C 
ENDBRANCH  11  14
ENDBRANCH   9  11
ENDBRANCH   3   5
BRANCH   2  19
ATOM     19  C   UNL     1       2.988   6.031  19.445  0.00  0.00    +0.000 A 
ATOM     20  C   UNL     1       2.550   4.908  20.163  0.00  0.00    +0.000 A 
ATOM     21  C   UNL     1       3.250   3.705  20.099  0.00  0.00    +0.000 A 
ATOM     22  C   UNL     1       4.394   3.611  19.310  0.00  0.00    +0.000 A 
ATOM     23  C   UNL     1       4.843   4.726  18.585  0.00  0.00    +0.000 A 
ATOM     24  C   UNL     1       4.145   5.949  18.663  0.00  0.00    +0.000 A 
BRANCH  23  25
ATOM     25  N   UNL     1       5.996   4.626  17.770  0.00  0.00    +0.000 N 
ATOM     26  C   UNL     1       6.121   4.774  16.411  0.00  0.00    +0.000 A 
ATOM     27  N   UNL     1       7.380   4.627  16.072  0.00  0.00    +0.000 NA
ATOM     28  N   UNL     1       8.053   4.383  17.238  0.00  0.00    +0.000 NA
ATOM     29  N   UNL     1       7.226   4.383  18.276  0.00  0.00    +0.000 NA
ENDBRANCH  23  25
ENDBRANCH   2  19
TORSDOF 5
ENDMDL
MODEL 2
REMARK VINA RESULT:      -9.0      3.230      9.050
REMARK  Name = 
REMARK  5 active torsions:
REMARK  status: ('A' for Active; 'I' for Inactive)
REMARK    1  A    between atoms: C_2  and  C_18
REMARK    2  A    between atoms: N_3  and  C_4
REMARK    3  A    between atoms: C_8  and  S_9
REMARK    4  A    between atoms: S_9  and  N_12
REMARK    5  A    between atoms: C_22  and  N_23
REMARK                            x       y       z     vdW  Elec       q    Type
REMARK                         _______ _______ _______ _____ _____    ______ ____
ROOT
ATOM      1  O   UNL     1       1.601   8.172  17.773  0.00  0.00    +0.000 OA
ATOM      2  C   UNL     1       1.852   7.898  18.943  0.00  0.00    +0.000 C 
ATOM      3  N   UNL     1       2.511   6.765  19.399  0.00  0.00    +0.000 N 
ATOM      4  H   UNL     1       2.495   6.581  20.395  0.00  0.00    +0.000 HD
ENDROOT
BRANCH   3   5
ATOM      5  C   UNL     1       3.014   5.730  18.567  0.00  0.00    +0.000 A 
ATOM      6  C   UNL     1       2.510   4.425  18.600  0.00  0.00    +0.000 A 
ATOM      7  C   UNL     1       3.099   3.397  17.859  0.00  0.00    +0.000 A 
ATOM      8  C   UNL     1       4.172   3.670  17.023  0.00  0.00    +0.000 A 
ATOM      9  C   UNL     1       4.619   4.988  16.898  0.00  0.00    +0.000 A 
ATOM     10  C   UNL     1       4.069   6.013  17.691  0.00  0.00    +0.000 A 
BRANCH   9  11
ATOM     11  S   UNL     1       5.972   5.337  15.790  0.00  0.00    +0.000 S 
ATOM     12  O   UNL     1       6.303   4.091  15.123  0.00  0.00    +0.000 OA
ATOM     13  O   UNL     1       5.624   6.521  15.034  0.00  0.00    +0.000 OA
BRANCH  11  14
ATOM     14  N   UNL     1       7.248   5.731  16.816  0.00  0.00    +0.000 NA
ATOM     15  C   UNL     1       7.607   4.820  17.918  0.00  0.00    +0.000 C 
ATOM     16  C   UNL     1       7.625   5.703  19.155  0.00  0.00    +0.000 C 
ATOM     17  C   UNL     1       8.092   7.043  18.619  0.00  0.00    +0.000 C 
ATOM     18  C   UNL     1       7.447   7.133  17.240  0.00  0.00    +0.000 C 
ENDBRANCH  11  14
ENDBRANCH   9  11
ENDBRANCH   3   5
BRANCH   2  19
ATOM     19  C   UNL     1       1.328   8.847  19.962  0.00  0.00    +0.000 A 
ATOM     20  C   UNL     1       1.238   8.379  21.283  0.00  0.00    +0.000 A 
ATOM     21  C   UNL     1       0.701   9.181  22.286  0.00  0.00    +0.000 A 
ATOM     22  C   UNL     1       0.252  10.464  21.982  0.00  0.00    +0.000 A 
ATOM     23  C   UNL     1       0.337  10.946  20.666  0.00  0.00    +0.000 A 
ATOM     24  C   UNL     1       0.865  10.129  19.646  0.00  0.00    +0.000 A 
BRANCH  23  25
ATOM     25  N   UNL     1      -0.104  12.256  20.360  0.00  0.00    +0.000 N 
ATOM     26  C   UNL     1       0.329  13.117  19.382  0.00  0.00    +0.000 A 
ATOM     27  N   UNL     1      -0.377  14.222  19.433  0.00  0.00    +0.000 NA
ATOM     28  N   UNL     1      -1.265  14.049  20.461  0.00  0.00    +0.000 NA
ATOM     29  N   UNL     1      -1.112  12.860  21.029  0.00  0.00    +0.000 NA
ENDBRANCH  23  25
ENDBRANCH   2  19
TORSDOF 5
ENDMDL
MODEL 3
REMARK VINA RESULT:      -9.0      3.439      8.804
REMARK  Name = 
REMARK  5 active torsions:
REMARK  status: ('A' for Active; 'I' for Inactive)
REMARK    1  A    between atoms: C_2  and  C_18
REMARK    2  A    between atoms: N_3  and  C_4
REMARK    3  A    between atoms: C_8  and  S_9
REMARK    4  A    between atoms: S_9  and  N_12
REMARK    5  A    between atoms: C_22  and  N_23
REMARK                            x       y       z     vdW  Elec       q    Type
REMARK                         _______ _______ _______ _____ _____    ______ ____
ROOT
ATOM      1  O   UNL     1       1.758   6.189  20.919  0.00  0.00    +0.000 OA
ATOM      2  C   UNL     1       1.775   7.118  20.117  0.00  0.00    +0.000 C 
ATOM      3  N   UNL     1       2.287   7.083  18.828  0.00  0.00    +0.000 N 
ATOM      4  H   UNL     1       2.397   7.964  18.341  0.00  0.00    +0.000 HD
ENDROOT
BRANCH   3   5
ATOM      5  C   UNL     1       2.874   5.942  18.220  0.00  0.00    +0.000 A 
ATOM      6  C   UNL     1       2.407   4.642  18.447  0.00  0.00    +0.000 A 
ATOM      7  C   UNL     1       3.073   3.527  17.932  0.00  0.00    +0.000 A 
ATOM      8  C   UNL     1       4.191   3.696  17.128  0.00  0.00    +0.000 A 
ATOM      9  C   UNL     1       4.607   4.990  16.805  0.00  0.00    +0.000 A 
ATOM     10  C   UNL     1       3.976   6.113  17.373  0.00  0.00    +0.000 A 
BRANCH   9  11
ATOM     11  S   UNL     1       6.020   5.198  15.737  0.00  0.00    +0.000 S 
ATOM     12  O   UNL     1       6.331   3.891  15.189  0.00  0.00    +0.000 OA
ATOM     13  O   UNL     1       5.753   6.327  14.872  0.00  0.00    +0.000 OA
BRANCH  11  14
ATOM     14  N   UNL     1       7.265   5.629  16.787  0.00  0.00    +0.000 NA
ATOM     15  C   UNL     1       7.614   4.739  17.909  0.00  0.00    +0.000 C 
ATOM     16  C   UNL     1       7.587   5.639  19.134  0.00  0.00    +0.000 C 
ATOM     17  C   UNL     1       8.041   6.981  18.591  0.00  0.00    +0.000 C 
ATOM     18  C   UNL     1       7.428   7.040  17.196  0.00  0.00    +0.000 C 
ENDBRANCH  11  14
ENDBRANCH   9  11
ENDBRANCH   3   5
BRANCH   2  19
ATOM     19  C   UNL     1       1.261   8.422  20.618  0.00  0.00    +0.000 A 
ATOM     20  C   UNL     1       0.774   8.453  21.934  0.00  0.00    +0.000 A 
ATOM     21  C   UNL     1       0.218   9.616  22.459  0.00  0.00    +0.000 A 
ATOM     22  C   UNL     1       0.146  10.765  21.675  0.00  0.00    +0.000 A 
ATOM     23  C   UNL     1       0.631  10.750  20.357  0.00  0.00    +0.000 A 
ATOM     24  C   UNL     1       1.178   9.568  19.819  0.00  0.00    +0.000 A 
BRANCH  23  25
ATOM     25  N   UNL     1       0.574  11.922  19.566  0.00  0.00    +0.000 N 
ATOM     26  C   UNL     1      -0.423  12.860  19.463  0.00  0.00    +0.000 A 
ATOM     27  N   UNL     1      -0.047  13.804  18.632  0.00  0.00    +0.000 NA
ATOM     28  N   UNL     1       1.205  13.450  18.209  0.00  0.00    +0.000 NA
ATOM     29  N   UNL     1       1.596  12.313  18.770  0.00  0.00    +0.000 NA
ENDBRANCH  23  25
ENDBRANCH   2  19
TORSDOF 5
ENDMDL
MODEL 4
REMARK VINA RESULT:      -9.0      3.479      9.121
REMARK  Name = 
REMARK  5 active torsions:
REMARK  status: ('A' for Active; 'I' for Inactive)
REMARK    1  A    between atoms: C_2  and  C_18
REMARK    2  A    between atoms: N_3  and  C_4
REMARK    3  A    between atoms: C_8  and  S_9
REMARK    4  A    between atoms: S_9  and  N_12
REMARK    5  A    between atoms: C_22  and  N_23
REMARK                            x       y       z     vdW  Elec       q    Type
REMARK                         _______ _______ _______ _____ _____    ______ ____
ROOT
ATOM      1  O   UNL     1       2.390   8.791  16.884  0.00  0.00    +0.000 OA
ATOM      2  C   UNL     1       2.235   8.742  18.101  0.00  0.00    +0.000 C 
ATOM      3  N   UNL     1       2.462   7.642  18.915  0.00  0.00    +0.000 N 
ATOM      4  H   UNL     1       2.126   7.685  19.870  0.00  0.00    +0.000 HD
ENDROOT
BRANCH   3   5
ATOM      5  C   UNL     1       2.927   6.379  18.461  0.00  0.00    +0.000 A 
ATOM      6  C   UNL     1       2.378   5.170  18.902  0.00  0.00    +0.000 A 
ATOM      7  C   UNL     1       2.929   3.941  18.532  0.00  0.00    +0.000 A 
ATOM      8  C   UNL     1       4.009   3.897  17.663  0.00  0.00    +0.000 A 
ATOM      9  C   UNL     1       4.501   5.090  17.129  0.00  0.00    +0.000 A 
ATOM     10  C   UNL     1       3.989   6.333  17.549  0.00  0.00    +0.000 A 
BRANCH   9  11
ATOM     11  S   UNL     1       5.863   5.023  15.979  0.00  0.00    +0.000 S 
ATOM     12  O   UNL     1       6.073   3.624  15.657  0.00  0.00    +0.000 OA
ATOM     13  O   UNL     1       5.611   6.000  14.943  0.00  0.00    +0.000 OA
BRANCH  11  14
ATOM     14  N   UNL     1       7.185   5.550  16.881  0.00  0.00    +0.000 NA
ATOM     15  C   UNL     1       7.667   4.737  18.013  0.00  0.00    +0.000 C 
ATOM     16  C   UNL     1       7.724   5.705  19.183  0.00  0.00    +0.000 C 
ATOM     17  C   UNL     1       8.079   7.026  18.527  0.00  0.00    +0.000 C 
ATOM     18  C   UNL     1       7.336   6.986  17.195  0.00  0.00    +0.000 C 
ENDBRANCH  11  14
ENDBRANCH   9  11
ENDBRANCH   3   5
BRANCH   2  19
ATOM     19  C   UNL     1       1.678   9.966  18.738  0.00  0.00    +0.000 A 
ATOM     20  C   UNL     1       2.003  11.197  18.147  0.00  0.00    +0.000 A 
ATOM     21  C   UNL     1       1.575  12.394  18.716  0.00  0.00    +0.000 A 
ATOM     22  C   UNL     1       0.812  12.374  19.880  0.00  0.00    +0.000 A 
ATOM     23  C   UNL     1       0.478  11.150  20.482  0.00  0.00    +0.000 A 
ATOM     24  C   UNL     1       0.925   9.938  19.917  0.00  0.00    +0.000 A 
BRANCH  23  25
ATOM     25  N   UNL     1      -0.313  11.128  21.656  0.00  0.00    +0.000 N 
ATOM     26  C   UNL     1      -1.431  11.859  21.970  0.00  0.00    +0.000 A 
ATOM     27  N   UNL     1      -1.866  11.499  23.155  0.00  0.00    +0.000 NA
ATOM     28  N   UNL     1      -1.005  10.528  23.589  0.00  0.00    +0.000 NA
ATOM     29  N   UNL     1      -0.060  10.291  22.688  0.00  0.00    +0.000 NA
ENDBRANCH  23  25
ENDBRANCH   2  19
TORSDOF 5
ENDMDL
MODEL 5
REMARK VINA RESULT:      -8.8      3.517      9.035
REMARK  Name = 
REMARK  5 active torsions:
REMARK  status: ('A' for Active; 'I' for Inactive)
REMARK    1  A    between atoms: C_2  and  C_18
REMARK    2  A    between atoms: N_3  and  C_4
REMARK    3  A    between atoms: C_8  and  S_9
REMARK    4  A    between atoms: S_9  and  N_12
REMARK    5  A    between atoms: C_22  and  N_23
REMARK                            x       y       z     vdW  Elec       q    Type
REMARK                         _______ _______ _______ _____ _____    ______ ____
ROOT
ATOM      1  O   UNL     1       2.056   8.997  17.264  0.00  0.00    +0.000 OA
ATOM      2  C   UNL     1       1.881   8.787  18.461  0.00  0.00    +0.000 C 
ATOM      3  N   UNL     1       2.163   7.609  19.139  0.00  0.00    +0.000 N 
ATOM      4  H   UNL     1       1.806   7.512  20.082  0.00  0.00    +0.000 HD
ENDROOT
BRANCH   3   5
ATOM      5  C   UNL     1       2.717   6.445  18.545  0.00  0.00    +0.000 A 
ATOM      6  C   UNL     1       2.296   5.153  18.882  0.00  0.00    +0.000 A 
ATOM      7  C   UNL     1       2.936   4.021  18.372  0.00  0.00    +0.000 A 
ATOM      8  C   UNL     1       3.977   4.160  17.465  0.00  0.00    +0.000 A 
ATOM      9  C   UNL     1       4.339   5.440  17.037  0.00  0.00    +0.000 A 
ATOM     10  C   UNL     1       3.738   6.584  17.597  0.00  0.00    +0.000 A 
BRANCH   9  11
ATOM     11  S   UNL     1       5.649   5.609  15.840  0.00  0.00    +0.000 S 
ATOM     12  O   UNL     1       5.790   4.322  15.184  0.00  0.00    +0.000 OA
ATOM     13  O   UNL     1       5.396   6.812  15.078  0.00  0.00    +0.000 OA
BRANCH  11  14
ATOM     14  N   UNL     1       7.026   5.866  16.776  0.00  0.00    +0.000 NA
ATOM     15  C   UNL     1       7.473   4.824  17.718  0.00  0.00    +0.000 C 
ATOM     16  C   UNL     1       7.627   5.548  19.045  0.00  0.00    +0.000 C 
ATOM     17  C   UNL     1       8.063   6.941  18.634  0.00  0.00    +0.000 C 
ATOM     18  C   UNL     1       7.290   7.204  17.346  0.00  0.00    +0.000 C 
ENDBRANCH  11  14
ENDBRANCH   9  11
ENDBRANCH   3   5
BRANCH   2  19
ATOM     19  C   UNL     1       1.234   9.885  19.229  0.00  0.00    +0.000 A 
ATOM     20  C   UNL     1       0.482   9.519  20.356  0.00  0.00    +0.000 A 
ATOM     21  C   UNL     1      -0.206  10.478  21.095  0.00  0.00    +0.000 A 
ATOM     22  C   UNL     1      -0.146  11.817  20.717  0.00  0.00    +0.000 A 
ATOM     23  C   UNL     1       0.603  12.199  19.593  0.00  0.00    +0.000 A 
ATOM     24  C   UNL     1       1.287  11.226  18.834  0.00  0.00    +0.000 A 
BRANCH  23  25
ATOM     25  N   UNL     1       0.679  13.562  19.219  0.00  0.00    +0.000 N 
ATOM     26  C   UNL     1      -0.324  14.492  19.098  0.00  0.00    +0.000 A 
ATOM     27  N   UNL     1       0.194  15.648  18.755  0.00  0.00    +0.000 NA
ATOM     28  N   UNL     1       1.543  15.436  18.659  0.00  0.00    +0.000 NA
ATOM     29  N   UNL     1       1.851  14.177  18.941  0.00  0.00    +0.000 NA
ENDBRANCH  23  25
ENDBRANCH   2  19
TORSDOF 5
ENDMDL
MODEL 6
REMARK VINA RESULT:      -8.8      2.214      3.484
REMARK  Name = 
REMARK  5 active torsions:
REMARK  status: ('A' for Active; 'I' for Inactive)
REMARK    1  A    between atoms: C_2  and  C_18
REMARK    2  A    between atoms: N_3  and  C_4
REMARK    3  A    between atoms: C_8  and  S_9
REMARK    4  A    between atoms: S_9  and  N_12
REMARK    5  A    between atoms: C_22  and  N_23
REMARK                            x       y       z     vdW  Elec       q    Type
REMARK                         _______ _______ _______ _____ _____    ______ ____
ROOT
ATOM      1  O   UNL     1       2.177   9.299  17.210  0.00  0.00    +0.000 OA
ATOM      2  C   UNL     1       1.968   8.649  18.231  0.00  0.00    +0.000 C 
ATOM      3  N   UNL     1       1.083   8.978  19.248  0.00  0.00    +0.000 N 
ATOM      4  H   UNL     1       1.140   8.448  20.110  0.00  0.00    +0.000 HD
ENDROOT
BRANCH   3   5
ATOM      5  C   UNL     1       0.259  10.134  19.263  0.00  0.00    +0.000 A 
ATOM      6  C   UNL     1      -0.861  10.272  18.435  0.00  0.00    +0.000 A 
ATOM      7  C   UNL     1      -1.587  11.465  18.384  0.00  0.00    +0.000 A 
ATOM      8  C   UNL     1      -1.238  12.527  19.206  0.00  0.00    +0.000 A 
ATOM      9  C   UNL     1      -0.189  12.367  20.115  0.00  0.00    +0.000 A 
ATOM     10  C   UNL     1       0.583  11.189  20.124  0.00  0.00    +0.000 A 
BRANCH   9  11
ATOM     11  S   UNL     1       0.225  13.721  21.198  0.00  0.00    +0.000 S 
ATOM     12  O   UNL     1       1.590  13.505  21.640  0.00  0.00    +0.000 OA
ATOM     13  O   UNL     1      -0.162  14.947  20.535  0.00  0.00    +0.000 OA
BRANCH  11  14
ATOM     14  N   UNL     1      -0.789  13.505  22.526  0.00  0.00    +0.000 NA
ATOM     15  C   UNL     1      -1.150  12.141  22.955  0.00  0.00    +0.000 C 
ATOM     16  C   UNL     1      -2.667  12.154  23.034  0.00  0.00    +0.000 C 
ATOM     17  C   UNL     1      -2.983  13.576  23.456  0.00  0.00    +0.000 C 
ATOM     18  C   UNL     1      -1.934  14.416  22.735  0.00  0.00    +0.000 C 
ENDBRANCH  11  14
ENDBRANCH   9  11
ENDBRANCH   3   5
BRANCH   2  19
ATOM     19  C   UNL     1       2.807   7.434  18.414  0.00  0.00    +0.000 A 
ATOM     20  C   UNL     1       2.475   6.584  19.480  0.00  0.00    +0.000 A 
ATOM     21  C   UNL     1       3.245   5.459  19.760  0.00  0.00    +0.000 A 
ATOM     22  C   UNL     1       4.356   5.167  18.972  0.00  0.00    +0.000 A 
ATOM     23  C   UNL     1       4.701   6.007  17.901  0.00  0.00    +0.000 A 
ATOM     24  C   UNL     1       3.931   7.156  17.628  0.00  0.00    +0.000 A 
BRANCH  23  25
ATOM     25  N   UNL     1       5.820   5.701  17.090  0.00  0.00    +0.000 N 
ATOM     26  C   UNL     1       6.353   4.480  16.761  0.00  0.00    +0.000 A 
ATOM     27  N   UNL     1       7.375   4.655  15.957  0.00  0.00    +0.000 NA
ATOM     28  N   UNL     1       7.483   6.008  15.781  0.00  0.00    +0.000 NA
ATOM     29  N   UNL     1       6.543   6.654  16.459  0.00  0.00    +0.000 NA
ENDBRANCH  23  25
ENDBRANCH   2  19
TORSDOF 5
ENDMDL
MODEL 7
REMARK VINA RESULT:      -8.8      3.061      3.713
REMARK  Name = 
REMARK  5 active torsions:
REMARK  status: ('A' for Active; 'I' for Inactive)
REMARK    1  A    between atoms: C_2  and  C_18
REMARK    2  A    between atoms: N_3  and  C_4
REMARK    3  A    between atoms: C_8  and  S_9
REMARK    4  A    between atoms: S_9  and  N_12
REMARK    5  A    between atoms: C_22  and  N_23
REMARK                            x       y       z     vdW  Elec       q    Type
REMARK                         _______ _______ _______ _____ _____    ______ ____
ROOT
ATOM      1  O   UNL     1       2.083   8.994  17.222  0.00  0.00    +0.000 OA
ATOM      2  C   UNL     1       2.036   8.463  18.328  0.00  0.00    +0.000 C 
ATOM      3  N   UNL     1       1.337   8.925  19.433  0.00  0.00    +0.000 N 
ATOM      4  H   UNL     1       1.527   8.488  20.327  0.00  0.00    +0.000 HD
ENDROOT
BRANCH   3   5
ATOM      5  C   UNL     1       0.544  10.103  19.457  0.00  0.00    +0.000 A 
ATOM      6  C   UNL     1      -0.795  10.119  19.046  0.00  0.00    +0.000 A 
ATOM      7  C   UNL     1      -1.518  11.312  18.967  0.00  0.00    +0.000 A 
ATOM      8  C   UNL     1      -0.932  12.508  19.353  0.00  0.00    +0.000 A 
ATOM      9  C   UNL     1       0.368  12.493  19.866  0.00  0.00    +0.000 A 
ATOM     10  C   UNL     1       1.120  11.304  19.889  0.00  0.00    +0.000 A 
BRANCH   9  11
ATOM     11  S   UNL     1       1.100  14.029  20.401  0.00  0.00    +0.000 S 
ATOM     12  O   UNL     1       0.026  14.843  20.939  0.00  0.00    +0.000 OA
ATOM     13  O   UNL     1       2.264  13.706  21.196  0.00  0.00    +0.000 OA
BRANCH  11  14
ATOM     14  N   UNL     1       1.629  14.748  18.972  0.00  0.00    +0.000 NA
ATOM     15  C   UNL     1       2.661  14.080  18.158  0.00  0.00    +0.000 C 
ATOM     16  C   UNL     1       3.724  15.145  17.939  0.00  0.00    +0.000 C 
ATOM     17  C   UNL     1       2.923  16.432  17.888  0.00  0.00    +0.000 C 
ATOM     18  C   UNL     1       1.810  16.213  18.908  0.00  0.00    +0.000 C 
ENDBRANCH  11  14
ENDBRANCH   9  11
ENDBRANCH   3   5
BRANCH   2  19
ATOM     19  C   UNL     1       2.875   7.247  18.504  0.00  0.00    +0.000 A 
ATOM     20  C   UNL     1       2.521   6.372  19.543  0.00  0.00    +0.000 A 
ATOM     21  C   UNL     1       3.290   5.243  19.815  0.00  0.00    +0.000 A 
ATOM     22  C   UNL     1       4.420   4.973  19.048  0.00  0.00    +0.000 A 
ATOM     23  C   UNL     1       4.786   5.838  18.004  0.00  0.00    +0.000 A 
ATOM     24  C   UNL     1       4.018   6.990  17.738  0.00  0.00    +0.000 A 
BRANCH  23  25
ATOM     25  N   UNL     1       5.924   5.554  17.212  0.00  0.00    +0.000 N 
ATOM     26  C   UNL     1       6.804   4.504  17.291  0.00  0.00    +0.000 A 
ATOM     27  N   UNL     1       7.701   4.616  16.340  0.00  0.00    +0.000 NA
ATOM     28  N   UNL     1       7.376   5.755  15.655  0.00  0.00    +0.000 NA
ATOM     29  N   UNL     1       6.299   6.332  16.171  0.00  0.00    +0.000 NA
ENDBRANCH  23  25
ENDBRANCH   2  19
TORSDOF 5
ENDMDL
MODEL 8
REMARK VINA RESULT:      -8.7      1.321      1.423
REMARK  Name = 
REMARK  5 active torsions:
REMARK  status: ('A' for Active; 'I' for Inactive)
REMARK    1  A    between atoms: C_2  and  C_18
REMARK    2  A    between atoms: N_3  and  C_4
REMARK    3  A    between atoms: C_8  and  S_9
REMARK    4  A    between atoms: S_9  and  N_12
REMARK    5  A    between atoms: C_22  and  N_23
REMARK                            x       y       z     vdW  Elec       q    Type
REMARK                         _______ _______ _______ _____ _____    ______ ____
ROOT
ATOM      1  O   UNL     1       1.750   6.293  20.778  0.00  0.00    +0.000 OA
ATOM      2  C   UNL     1       2.041   6.756  19.678  0.00  0.00    +0.000 C 
ATOM      3  N   UNL     1       1.762   8.038  19.226  0.00  0.00    +0.000 N 
ATOM      4  H   UNL     1       1.900   8.229  18.240  0.00  0.00    +0.000 HD
ENDROOT
BRANCH   3   5
ATOM      5  C   UNL     1       1.091   9.036  19.981  0.00  0.00    +0.000 A 
ATOM      6  C   UNL     1       1.148   9.090  21.378  0.00  0.00    +0.000 A 
ATOM      7  C   UNL     1       0.385  10.008  22.104  0.00  0.00    +0.000 A 
ATOM      8  C   UNL     1      -0.408  10.932  21.440  0.00  0.00    +0.000 A 
ATOM      9  C   UNL     1      -0.394  10.960  20.043  0.00  0.00    +0.000 A 
ATOM     10  C   UNL     1       0.324   9.996  19.310  0.00  0.00    +0.000 A 
BRANCH   9  11
ATOM     11  S   UNL     1      -1.384  12.179  19.196  0.00  0.00    +0.000 S 
ATOM     12  O   UNL     1      -2.047  12.966  20.218  0.00  0.00    +0.000 OA
ATOM     13  O   UNL     1      -0.548  12.804  18.195  0.00  0.00    +0.000 OA
BRANCH  11  14
ATOM     14  N   UNL     1      -2.557  11.269  18.400  0.00  0.00    +0.000 NA
ATOM     15  C   UNL     1      -2.289  10.760  17.042  0.00  0.00    +0.000 C 
ATOM     16  C   UNL     1      -3.483  11.216  16.220  0.00  0.00    +0.000 C 
ATOM     17  C   UNL     1      -4.626  11.186  17.217  0.00  0.00    +0.000 C 
ATOM     18  C   UNL     1      -3.983  11.634  18.526  0.00  0.00    +0.000 C 
ENDBRANCH  11  14
ENDBRANCH   9  11
ENDBRANCH   3   5
BRANCH   2  19
ATOM     19  C   UNL     1       2.690   5.816  18.725  0.00  0.00    +0.000 A 
ATOM     20  C   UNL     1       2.021   4.610  18.463  0.00  0.00    +0.000 A 
ATOM     21  C   UNL     1       2.589   3.648  17.631  0.00  0.00    +0.000 A 
ATOM     22  C   UNL     1       3.831   3.883  17.048  0.00  0.00    +0.000 A 
ATOM     23  C   UNL     1       4.512   5.085  17.299  0.00  0.00    +0.000 A 
ATOM     24  C   UNL     1       3.946   6.053  18.155  0.00  0.00    +0.000 A 
BRANCH  23  25
ATOM     25  N   UNL     1       5.767   5.331  16.692  0.00  0.00    +0.000 N 
ATOM     26  C   UNL     1       6.513   4.525  15.869  0.00  0.00    +0.000 A 
ATOM     27  N   UNL     1       7.602   5.162  15.509  0.00  0.00    +0.000 NA
ATOM     28  N   UNL     1       7.536   6.386  16.118  0.00  0.00    +0.000 NA
ATOM     29  N   UNL     1       6.426   6.503  16.835  0.00  0.00    +0.000 NA
ENDBRANCH  23  25
ENDBRANCH   2  19
TORSDOF 5
ENDMDL
MODEL 9
REMARK VINA RESULT:      -8.7      3.594      8.860
REMARK  Name = 
REMARK  5 active torsions:
REMARK  status: ('A' for Active; 'I' for Inactive)
REMARK    1  A    between atoms: C_2  and  C_18
REMARK    2  A    between atoms: N_3  and  C_4
REMARK    3  A    between atoms: C_8  and  S_9
REMARK    4  A    between atoms: S_9  and  N_12
REMARK    5  A    between atoms: C_22  and  N_23
REMARK                            x       y       z     vdW  Elec       q    Type
REMARK                         _______ _______ _______ _____ _____    ______ ____
ROOT
ATOM      1  O   UNL     1       1.790   8.125  20.064  0.00  0.00    +0.000 OA
ATOM      2  C   UNL     1       1.706   8.585  18.929  0.00  0.00    +0.000 C 
ATOM      3  N   UNL     1       2.387   8.136  17.807  0.00  0.00    +0.000 N 
ATOM      4  H   UNL     1       2.360   8.715  16.976  0.00  0.00    +0.000 HD
ENDROOT
BRANCH   3   5
ATOM      5  C   UNL     1       3.300   7.048  17.794  0.00  0.00    +0.000 A 
ATOM      6  C   UNL     1       4.687   7.228  17.733  0.00  0.00    +0.000 A 
ATOM      7  C   UNL     1       5.558   6.143  17.603  0.00  0.00    +0.000 A 
ATOM      8  C   UNL     1       5.058   4.849  17.589  0.00  0.00    +0.000 A 
ATOM      9  C   UNL     1       3.686   4.647  17.756  0.00  0.00    +0.000 A 
ATOM     10  C   UNL     1       2.801   5.740  17.824  0.00  0.00    +0.000 A 
BRANCH   9  11
ATOM     11  S   UNL     1       3.057   2.979  17.780  0.00  0.00    +0.000 S 
ATOM     12  O   UNL     1       1.991   2.916  16.797  0.00  0.00    +0.000 OA
ATOM     13  O   UNL     1       4.190   2.082  17.713  0.00  0.00    +0.000 OA
BRANCH  11  14
ATOM     14  N   UNL     1       2.363   2.827  19.307  0.00  0.00    +0.000 NA
ATOM     15  C   UNL     1       0.949   3.196  19.506  0.00  0.00    +0.000 C 
ATOM     16  C   UNL     1       0.967   4.156  20.684  0.00  0.00    +0.000 C 
ATOM     17  C   UNL     1       2.116   3.648  21.532  0.00  0.00    +0.000 C 
ATOM     18  C   UNL     1       3.146   3.175  20.511  0.00  0.00    +0.000 C 
ENDBRANCH  11  14
ENDBRANCH   9  11
ENDBRANCH   3   5
BRANCH   2  19
ATOM     19  C   UNL     1       0.841   9.786  18.774  0.00  0.00    +0.000 A 
ATOM     20  C   UNL     1       1.250  10.956  19.432  0.00  0.00    +0.000 A 
ATOM     21  C   UNL     1       0.467  12.106  19.390  0.00  0.00    +0.000 A 
ATOM     22  C   UNL     1      -0.734  12.102  18.684  0.00  0.00    +0.000 A 
ATOM     23  C   UNL     1      -1.155  10.939  18.019  0.00  0.00    +0.000 A 
ATOM     24  C   UNL     1      -0.372   9.769  18.075  0.00  0.00    +0.000 A 
BRANCH  23  25
ATOM     25  N   UNL     1      -2.367  10.939  17.287  0.00  0.00    +0.000 N 
ATOM     26  C   UNL     1      -3.610  11.392  17.655  0.00  0.00    +0.000 A 
ATOM     27  N   UNL     1      -4.445  11.226  16.656  0.00  0.00    +0.000 NA
ATOM     28  N   UNL     1      -3.712  10.660  15.648  0.00  0.00    +0.000 NA
ATOM     29  N   UNL     1      -2.449  10.484  16.017  0.00  0.00    +0.000 NA
ENDBRANCH  23  25
ENDBRANCH   2  19
TORSDOF 5
ENDMDL
