MODEL 1
REMARK VINA RESULT:      -7.5      0.000      0.000
REMARK  Name = 
REMARK  3 active torsions:
REMARK  status: ('A' for Active; 'I' for Inactive)
REMARK    1  A    between atoms: C_2  and  C_4
REMARK    2  A    between atoms: C_10  and  C_12
REMARK    3  A    between atoms: C_15  and  N_16
REMARK                            x       y       z     vdW  Elec       q    Type
REMARK                         _______ _______ _______ _____ _____    ______ ____
ROOT
ATOM      1  C   UNL     1       3.281   5.492  17.952  0.00  0.00    +0.000 A 
ATOM      2  C   UNL     1       2.845   5.259  19.251  0.00  0.00    +0.000 A 
ATOM      3  C   UNL     1       2.249   6.283  19.967  0.00  0.00    +0.000 A 
ATOM      4  C   UNL     1       2.169   7.574  19.429  0.00  0.00    +0.000 A 
ATOM      5  C   UNL     1       2.662   7.846  18.154  0.00  0.00    +0.000 A 
ATOM      6  C   UNL     1       3.239   6.790  17.417  0.00  0.00    +0.000 A 
ENDROOT
BRANCH   4   7
ATOM      7  N   UNL     1       1.597   8.551  20.283  0.00  0.00    +0.000 N 
ATOM      8  C   UNL     1       0.959   8.183  21.461  0.00  0.00    +0.000 A 
ATOM      9  N   UNL     1      -0.119   8.888  21.691  0.00  0.00    +0.000 NA
ATOM     10  C   UNL     1      -0.119   9.831  20.697  0.00  0.00    +0.000 A 
ATOM     11  C   UNL     1      -1.110  10.780  20.412  0.00  0.00    +0.000 A 
ATOM     12  C   UNL     1      -0.874  11.704  19.391  0.00  0.00    +0.000 A 
ATOM     13  C   UNL     1       0.334  11.696  18.697  0.00  0.00    +0.000 A 
ATOM     14  C   UNL     1       1.307  10.712  18.916  0.00  0.00    +0.000 A 
ATOM     15  C   UNL     1       1.036   9.757  19.910  0.00  0.00    +0.000 A 
ENDBRANCH   4   7
BRANCH   1  22
ATOM     16  C   UNL     1       6.306   4.872  17.245  0.00  0.00    +0.000 C 
ATOM     17  C   UNL     1       7.305   5.421  16.196  0.00  0.00    +0.000 C 
ATOM     18  O   UNL     1       7.556   4.466  15.154  0.00  0.00    +0.000 OA
ATOM     19  C   UNL     1       6.340   4.172  14.450  0.00  0.00    +0.000 C 
ATOM     20  C   UNL     1       5.287   3.600  15.401  0.00  0.00    +0.000 C 
ATOM     21  N   UNL     1       5.039   4.512  16.526  0.00  0.00    +0.000 N 
ATOM     22  C   UNL     1       3.810   4.336  17.179  0.00  0.00    +0.000 C 
ATOM     23  O   UNL     1       3.090   3.352  17.034  0.00  0.00    +0.000 OA
BRANCH  16  25
ATOM     24  N   UNL     1       6.579   7.192  18.046  0.00  0.00    +0.000 N 
ATOM     25  C   UNL     1       6.333   5.893  18.404  0.00  0.00    +0.000 C 
ATOM     26  O   UNL     1       6.196   5.603  19.587  0.00  0.00    +0.000 OA
ATOM     27  H   UNL     1       6.622   7.882  18.777  0.00  0.00    +0.000 HD
ATOM     28  H   UNL     1       6.692   7.499  17.099  0.00  0.00    +0.000 HD
ENDBRANCH  16  25
ENDBRANCH   1  22
TORSDOF 3
ENDMDL
MODEL 2
REMARK VINA RESULT:      -7.4      0.449      1.051
REMARK  Name = 
REMARK  3 active torsions:
REMARK  status: ('A' for Active; 'I' for Inactive)
REMARK    1  A    between atoms: C_2  and  C_4
REMARK    2  A    between atoms: C_10  and  C_12
REMARK    3  A    between atoms: C_15  and  N_16
REMARK                            x       y       z     vdW  Elec       q    Type
REMARK                         _______ _______ _______ _____ _____    ______ ____
ROOT
ATOM      1  C   UNL     1       3.293   5.002  18.143  0.00  0.00    +0.000 A 
ATOM      2  C   UNL     1       3.109   6.257  17.573  0.00  0.00    +0.000 A 
ATOM      3  C   UNL     1       2.639   7.300  18.353  0.00  0.00    +0.000 A 
ATOM      4  C   UNL     1       2.259   7.079  19.683  0.00  0.00    +0.000 A 
ATOM      5  C   UNL     1       2.371   5.812  20.254  0.00  0.00    +0.000 A 
ATOM      6  C   UNL     1       2.880   4.761  19.463  0.00  0.00    +0.000 A 
ENDROOT
BRANCH   4   7
ATOM      7  N   UNL     1       1.733   8.210  20.357  0.00  0.00    +0.000 N 
ATOM      8  C   UNL     1       1.162   8.088  21.617  0.00  0.00    +0.000 A 
ATOM      9  N   UNL     1       0.098   8.834  21.763  0.00  0.00    +0.000 NA
ATOM     10  C   UNL     1       0.041   9.562  20.603  0.00  0.00    +0.000 A 
ATOM     11  C   UNL     1      -0.967  10.445  20.191  0.00  0.00    +0.000 A 
ATOM     12  C   UNL     1      -0.791  11.147  18.996  0.00  0.00    +0.000 A 
ATOM     13  C   UNL     1       0.376  10.991  18.251  0.00  0.00    +0.000 A 
ATOM     14  C   UNL     1       1.363  10.060  18.607  0.00  0.00    +0.000 A 
ATOM     15  C   UNL     1       1.150   9.323  19.784  0.00  0.00    +0.000 A 
ENDBRANCH   4   7
BRANCH   1  22
ATOM     16  C   UNL     1       6.342   4.709  17.337  0.00  0.00    +0.000 C 
ATOM     17  C   UNL     1       7.256   5.401  16.295  0.00  0.00    +0.000 C 
ATOM     18  O   UNL     1       7.567   4.527  15.200  0.00  0.00    +0.000 OA
ATOM     19  C   UNL     1       6.366   4.153  14.509  0.00  0.00    +0.000 C 
ATOM     20  C   UNL     1       5.398   3.437  15.453  0.00  0.00    +0.000 C 
ATOM     21  N   UNL     1       5.096   4.265  16.629  0.00  0.00    +0.000 N 
ATOM     22  C   UNL     1       3.907   3.941  17.300  0.00  0.00    +0.000 C 
ATOM     23  O   UNL     1       3.279   2.902  17.121  0.00  0.00    +0.000 OA
BRANCH  16  25
ATOM     24  N   UNL     1       6.366   7.005  18.246  0.00  0.00    +0.000 N 
ATOM     25  C   UNL     1       6.305   5.670  18.546  0.00  0.00    +0.000 C 
ATOM     26  O   UNL     1       6.272   5.310  19.717  0.00  0.00    +0.000 OA
ATOM     27  H   UNL     1       6.362   7.660  19.009  0.00  0.00    +0.000 HD
ATOM     28  H   UNL     1       6.387   7.367  17.312  0.00  0.00    +0.000 HD
ENDBRANCH  16  25
ENDBRANCH   1  22
TORSDOF 3
ENDMDL
MODEL 3
REMARK VINA RESULT:      -7.2      4.070      8.530
REMARK  Name = 
REMARK  3 active torsions:
REMARK  status: ('A' for Active; 'I' for Inactive)
REMARK    1  A    between atoms: C_2  and  C_4
REMARK    2  A    between atoms: C_10  and  C_12
REMARK    3  A    between atoms: C_15  and  N_16
REMARK                            x       y       z     vdW  Elec       q    Type
REMARK                         _______ _______ _______ _____ _____    ______ ____
ROOT
ATOM      1  C   UNL     1      -0.304  10.438  19.438  0.00  0.00    +0.000 A 
ATOM      2  C   UNL     1       0.348  10.122  18.252  0.00  0.00    +0.000 A 
ATOM      3  C   UNL     1       1.218   9.046  18.215  0.00  0.00    +0.000 A 
ATOM      4  C   UNL     1       1.518   8.333  19.383  0.00  0.00    +0.000 A 
ATOM      5  C   UNL     1       0.927   8.677  20.598  0.00  0.00    +0.000 A 
ATOM      6  C   UNL     1       0.017   9.754  20.622  0.00  0.00    +0.000 A 
ENDROOT
BRANCH   4   7
ATOM      7  N   UNL     1       2.472   7.295  19.230  0.00  0.00    +0.000 N 
ATOM      8  C   UNL     1       3.361   7.295  18.163  0.00  0.00    +0.000 A 
ATOM      9  N   UNL     1       3.554   6.099  17.669  0.00  0.00    +0.000 NA
ATOM     10  C   UNL     1       2.866   5.272  18.519  0.00  0.00    +0.000 A 
ATOM     11  C   UNL     1       2.655   3.893  18.392  0.00  0.00    +0.000 A 
ATOM     12  C   UNL     1       1.982   3.225  19.417  0.00  0.00    +0.000 A 
ATOM     13  C   UNL     1       1.561   3.914  20.552  0.00  0.00    +0.000 A 
ATOM     14  C   UNL     1       1.697   5.305  20.666  0.00  0.00    +0.000 A 
ATOM     15  C   UNL     1       2.329   5.973  19.605  0.00  0.00    +0.000 A 
ENDBRANCH   4   7
BRANCH   1  22
ATOM     16  C   UNL     1       0.035  13.409  20.481  0.00  0.00    +0.000 C 
ATOM     17  C   UNL     1       0.009  14.073  21.881  0.00  0.00    +0.000 C 
ATOM     18  O   UNL     1      -1.187  14.843  22.078  0.00  0.00    +0.000 OA
ATOM     19  C   UNL     1      -2.340  13.992  22.005  0.00  0.00    +0.000 C 
ATOM     20  C   UNL     1      -2.418  13.300  20.642  0.00  0.00    +0.000 C 
ATOM     21  N   UNL     1      -1.188  12.549  20.359  0.00  0.00    +0.000 N 
ATOM     22  C   UNL     1      -1.316  11.528  19.405  0.00  0.00    +0.000 C 
ATOM     23  O   UNL     1      -2.278  11.410  18.652  0.00  0.00    +0.000 OA
BRANCH  16  25
ATOM     24  N   UNL     1       2.040  12.999  19.099  0.00  0.00    +0.000 N 
ATOM     25  C   UNL     1       1.463  12.838  20.330  0.00  0.00    +0.000 C 
ATOM     26  O   UNL     1       2.063  12.232  21.210  0.00  0.00    +0.000 OA
ATOM     27  H   UNL     1       2.963  12.624  18.959  0.00  0.00    +0.000 HD
ATOM     28  H   UNL     1       1.609  13.491  18.339  0.00  0.00    +0.000 HD
ENDBRANCH  16  25
ENDBRANCH   1  22
TORSDOF 3
ENDMDL
MODEL 4
REMARK VINA RESULT:      -7.0      2.299      3.941
REMARK  Name = 
REMARK  3 active torsions:
REMARK  status: ('A' for Active; 'I' for Inactive)
REMARK    1  A    between atoms: C_2  and  C_4
REMARK    2  A    between atoms: C_10  and  C_12
REMARK    3  A    between atoms: C_15  and  N_16
REMARK                            x       y       z     vdW  Elec       q    Type
REMARK                         _______ _______ _______ _____ _____    ______ ____
ROOT
ATOM      1  C   UNL     1       3.257   6.499  18.904  0.00  0.00    +0.000 A 
ATOM      2  C   UNL     1       2.904   7.381  17.889  0.00  0.00    +0.000 A 
ATOM      3  C   UNL     1       2.014   8.409  18.156  0.00  0.00    +0.000 A 
ATOM      4  C   UNL     1       1.397   8.508  19.409  0.00  0.00    +0.000 A 
ATOM      5  C   UNL     1       1.686   7.593  20.420  0.00  0.00    +0.000 A 
ATOM      6  C   UNL     1       2.616   6.567  20.151  0.00  0.00    +0.000 A 
ENDROOT
BRANCH   4   7
ATOM      7  N   UNL     1       0.458   9.563  19.539  0.00  0.00    +0.000 N 
ATOM      8  C   UNL     1       0.494  10.659  18.687  0.00  0.00    +0.000 A 
ATOM      9  N   UNL     1       0.245  11.785  19.304  0.00  0.00    +0.000 NA
ATOM     10  C   UNL     1      -0.089  11.400  20.577  0.00  0.00    +0.000 A 
ATOM     11  C   UNL     1      -0.346  12.221  21.683  0.00  0.00    +0.000 A 
ATOM     12  C   UNL     1      -0.744  11.620  22.880  0.00  0.00    +0.000 A 
ATOM     13  C   UNL     1      -0.909  10.239  22.956  0.00  0.00    +0.000 A 
ATOM     14  C   UNL     1      -0.587   9.395  21.884  0.00  0.00    +0.000 A 
ATOM     15  C   UNL     1      -0.139  10.007  20.702  0.00  0.00    +0.000 A 
ENDBRANCH   4   7
BRANCH   1  22
ATOM     16  C   UNL     1       2.842   3.392  18.449  0.00  0.00    +0.000 C 
ATOM     17  C   UNL     1       2.608   2.184  19.391  0.00  0.00    +0.000 C 
ATOM     18  O   UNL     1       3.770   1.345  19.473  0.00  0.00    +0.000 OA
ATOM     19  C   UNL     1       4.875   2.082  20.017  0.00  0.00    +0.000 C 
ATOM     20  C   UNL     1       5.202   3.294  19.141  0.00  0.00    +0.000 C 
ATOM     21  N   UNL     1       4.024   4.155  18.969  0.00  0.00    +0.000 N 
ATOM     22  C   UNL     1       4.301   5.482  18.605  0.00  0.00    +0.000 C 
ATOM     23  O   UNL     1       5.392   5.867  18.195  0.00  0.00    +0.000 OA
BRANCH  16  25
ATOM     24  N   UNL     1       0.651   4.043  19.384  0.00  0.00    +0.000 N 
ATOM     25  C   UNL     1       1.452   4.044  18.274  0.00  0.00    +0.000 C 
ATOM     26  O   UNL     1       1.030   4.504  17.219  0.00  0.00    +0.000 OA
ATOM     27  H   UNL     1      -0.268   4.443  19.302  0.00  0.00    +0.000 HD
ATOM     28  H   UNL     1       0.936   3.690  20.279  0.00  0.00    +0.000 HD
ENDBRANCH  16  25
ENDBRANCH   1  22
TORSDOF 3
ENDMDL
MODEL 5
REMARK VINA RESULT:      -6.9      4.058      8.458
REMARK  Name = 
REMARK  3 active torsions:
REMARK  status: ('A' for Active; 'I' for Inactive)
REMARK    1  A    between atoms: C_2  and  C_4
REMARK    2  A    between atoms: C_10  and  C_12
REMARK    3  A    between atoms: C_15  and  N_16
REMARK                            x       y       z     vdW  Elec       q    Type
REMARK                         _______ _______ _______ _____ _____    ______ ____
ROOT
ATOM      1  C   UNL     1      -0.496  10.569  19.197  0.00  0.00    +0.000 A 
ATOM      2  C   UNL     1       0.003   9.954  20.339  0.00  0.00    +0.000 A 
ATOM      3  C   UNL     1       1.023   9.025  20.226  0.00  0.00    +0.000 A 
ATOM      4  C   UNL     1       1.490   8.631  18.965  0.00  0.00    +0.000 A 
ATOM      5  C   UNL     1       0.955   9.185  17.803  0.00  0.00    +0.000 A 
ATOM      6  C   UNL     1      -0.062  10.154  17.927  0.00  0.00    +0.000 A 
ENDROOT
BRANCH   4   7
ATOM      7  N   UNL     1       2.490   7.626  18.978  0.00  0.00    +0.000 N 
ATOM      8  C   UNL     1       3.419   7.531  17.950  0.00  0.00    +0.000 A 
ATOM      9  N   UNL     1       3.680   6.292  17.621  0.00  0.00    +0.000 NA
ATOM     10  C   UNL     1       2.995   5.549  18.547  0.00  0.00    +0.000 A 
ATOM     11  C   UNL     1       2.846   4.156  18.592  0.00  0.00    +0.000 A 
ATOM     12  C   UNL     1       2.162   3.594  19.673  0.00  0.00    +0.000 A 
ATOM     13  C   UNL     1       1.670   4.403  20.695  0.00  0.00    +0.000 A 
ATOM     14  C   UNL     1       1.744   5.802  20.633  0.00  0.00    +0.000 A 
ATOM     15  C   UNL     1       2.389   6.358  19.515  0.00  0.00    +0.000 A 
ENDBRANCH   4   7
BRANCH   1  22
ATOM     16  C   UNL     1       0.030  13.627  19.833  0.00  0.00    +0.000 C 
ATOM     17  C   UNL     1       0.396  14.417  21.115  0.00  0.00    +0.000 C 
ATOM     18  O   UNL     1      -0.714  15.191  21.593  0.00  0.00    +0.000 OA
ATOM     19  C   UNL     1      -1.806  14.327  21.940  0.00  0.00    +0.000 C 
ATOM     20  C   UNL     1      -2.259  13.512  20.727  0.00  0.00    +0.000 C 
ATOM     21  N   UNL     1      -1.142  12.748  20.155  0.00  0.00    +0.000 N 
ATOM     22  C   UNL     1      -1.510  11.643  19.374  0.00  0.00    +0.000 C 
ATOM     23  O   UNL     1      -2.648  11.447  18.955  0.00  0.00    +0.000 OA
BRANCH  16  25
ATOM     24  N   UNL     1       1.568  13.149  17.961  0.00  0.00    +0.000 N 
ATOM     25  C   UNL     1       1.369  13.057  19.312  0.00  0.00    +0.000 C 
ATOM     26  O   UNL     1       2.208  12.507  20.015  0.00  0.00    +0.000 OA
ATOM     27  H   UNL     1       2.421  12.772  17.583  0.00  0.00    +0.000 HD
ATOM     28  H   UNL     1       0.927  13.593  17.330  0.00  0.00    +0.000 HD
ENDBRANCH  16  25
ENDBRANCH   1  22
TORSDOF 3
ENDMDL
MODEL 6
REMARK VINA RESULT:      -6.8      4.247      8.523
REMARK  Name = 
REMARK  3 active torsions:
REMARK  status: ('A' for Active; 'I' for Inactive)
REMARK    1  A    between atoms: C_2  and  C_4
REMARK    2  A    between atoms: C_10  and  C_12
REMARK    3  A    between atoms: C_15  and  N_16
REMARK                            x       y       z     vdW  Elec       q    Type
REMARK                         _______ _______ _______ _____ _____    ______ ____
ROOT
ATOM      1  C   UNL     1       0.072   9.832  21.661  0.00  0.00    +0.000 A 
ATOM      2  C   UNL     1       1.316  10.031  21.074  0.00  0.00    +0.000 A 
ATOM      3  C   UNL     1       1.955   8.972  20.451  0.00  0.00    +0.000 A 
ATOM      4  C   UNL     1       1.404   7.685  20.491  0.00  0.00    +0.000 A 
ATOM      5  C   UNL     1       0.190   7.451  21.135  0.00  0.00    +0.000 A 
ATOM      6  C   UNL     1      -0.471   8.539  21.740  0.00  0.00    +0.000 A 
ENDROOT
BRANCH   4   7
ATOM      7  N   UNL     1       2.184   6.674  19.874  0.00  0.00    +0.000 N 
ATOM      8  C   UNL     1       2.955   6.952  18.753  0.00  0.00    +0.000 A 
ATOM      9  N   UNL     1       2.930   5.985  17.872  0.00  0.00    +0.000 NA
ATOM     10  C   UNL     1       2.220   4.989  18.491  0.00  0.00    +0.000 A 
ATOM     11  C   UNL     1       1.807   3.765  17.949  0.00  0.00    +0.000 A 
ATOM     12  C   UNL     1       1.152   2.855  18.782  0.00  0.00    +0.000 A 
ATOM     13  C   UNL     1       0.945   3.151  20.127  0.00  0.00    +0.000 A 
ATOM     14  C   UNL     1       1.284   4.398  20.671  0.00  0.00    +0.000 A 
ATOM     15  C   UNL     1       1.896   5.325  19.810  0.00  0.00    +0.000 A 
ENDBRANCH   4   7
BRANCH   1  22
ATOM     16  C   UNL     1      -1.269  12.205  20.048  0.00  0.00    +0.000 C 
ATOM     17  C   UNL     1      -0.725  13.461  19.320  0.00  0.00    +0.000 C 
ATOM     18  O   UNL     1      -1.024  14.663  20.045  0.00  0.00    +0.000 OA
ATOM     19  C   UNL     1      -0.398  14.632  21.336  0.00  0.00    +0.000 C 
ATOM     20  C   UNL     1      -0.887  13.431  22.148  0.00  0.00    +0.000 C 
ATOM     21  N   UNL     1      -0.664  12.174  21.421  0.00  0.00    +0.000 N 
ATOM     22  C   UNL     1      -0.630  11.020  22.218  0.00  0.00    +0.000 C 
ATOM     23  O   UNL     1      -1.012  10.979  23.384  0.00  0.00    +0.000 OA
BRANCH  16  25
ATOM     24  N   UNL     1      -0.020  11.151  18.196  0.00  0.00    +0.000 N 
ATOM     25  C   UNL     1      -1.091  11.046  19.043  0.00  0.00    +0.000 C 
ATOM     26  O   UNL     1      -1.857  10.095  18.939  0.00  0.00    +0.000 OA
ATOM     27  H   UNL     1       0.117  10.423  17.516  0.00  0.00    +0.000 HD
ATOM     28  H   UNL     1       0.649  11.897  18.232  0.00  0.00    +0.000 HD
ENDBRANCH  16  25
ENDBRANCH   1  22
TORSDOF 3
ENDMDL
MODEL 7
REMARK VINA RESULT:      -6.8      2.239      3.835
REMARK  Name = 
REMARK  3 active torsions:
REMARK  status: ('A' for Active; 'I' for Inactive)
REMARK    1  A    between atoms: C_2  and  C_4
REMARK    2  A    between atoms: C_10  and  C_12
REMARK    3  A    between atoms: C_15  and  N_16
REMARK                            x       y       z     vdW  Elec       q    Type
REMARK                         _______ _______ _______ _____ _____    ______ ____
ROOT
ATOM      1  C   UNL     1       3.429   6.532  18.639  0.00  0.00    +0.000 A 
ATOM      2  C   UNL     1       2.869   6.677  19.903  0.00  0.00    +0.000 A 
ATOM      3  C   UNL     1       1.867   7.611  20.104  0.00  0.00    +0.000 A 
ATOM      4  C   UNL     1       1.481   8.474  19.070  0.00  0.00    +0.000 A 
ATOM      5  C   UNL     1       2.079   8.391  17.813  0.00  0.00    +0.000 A 
ATOM      6  C   UNL     1       3.077   7.416  17.607  0.00  0.00    +0.000 A 
ENDROOT
BRANCH   4   7
ATOM      7  N   UNL     1       0.492   9.429  19.417  0.00  0.00    +0.000 N 
ATOM      8  C   UNL     1       0.430  10.658  18.774  0.00  0.00    +0.000 A 
ATOM      9  N   UNL     1       0.146  11.640  19.590  0.00  0.00    +0.000 NA
ATOM     10  C   UNL     1      -0.109  11.017  20.784  0.00  0.00    +0.000 A 
ATOM     11  C   UNL     1      -0.362  11.613  22.027  0.00  0.00    +0.000 A 
ATOM     12  C   UNL     1      -0.672  10.788  23.111  0.00  0.00    +0.000 A 
ATOM     13  C   UNL     1      -0.756   9.407  22.945  0.00  0.00    +0.000 A 
ATOM     14  C   UNL     1      -0.436   8.786  21.730  0.00  0.00    +0.000 A 
ATOM     15  C   UNL     1      -0.076   9.624  20.661  0.00  0.00    +0.000 A 
ENDBRANCH   4   7
BRANCH   1  22
ATOM     16  C   UNL     1       2.862   3.418  18.509  0.00  0.00    +0.000 C 
ATOM     17  C   UNL     1       2.581   2.326  19.571  0.00  0.00    +0.000 C 
ATOM     18  O   UNL     1       3.702   1.444  19.732  0.00  0.00    +0.000 OA
ATOM     19  C   UNL     1       4.846   2.178  20.190  0.00  0.00    +0.000 C 
ATOM     20  C   UNL     1       5.221   3.277  19.193  0.00  0.00    +0.000 C 
ATOM     21  N   UNL     1       4.084   4.173  18.941  0.00  0.00    +0.000 N 
ATOM     22  C   UNL     1       4.420   5.440  18.441  0.00  0.00    +0.000 C 
ATOM     23  O   UNL     1       5.524   5.728  17.987  0.00  0.00    +0.000 OA
BRANCH  16  25
ATOM     24  N   UNL     1       0.707   4.253  19.382  0.00  0.00    +0.000 N 
ATOM     25  C   UNL     1       1.503   4.116  18.276  0.00  0.00    +0.000 C 
ATOM     26  O   UNL     1       1.098   4.497  17.184  0.00  0.00    +0.000 OA
ATOM     27  H   UNL     1      -0.193   4.686  19.264  0.00  0.00    +0.000 HD
ATOM     28  H   UNL     1       0.980   3.970  20.304  0.00  0.00    +0.000 HD
ENDBRANCH  16  25
ENDBRANCH   1  22
TORSDOF 3
ENDMDL
MODEL 8
REMARK VINA RESULT:      -6.5      2.319      3.845
REMARK  Name = 
REMARK  3 active torsions:
REMARK  status: ('A' for Active; 'I' for Inactive)
REMARK    1  A    between atoms: C_2  and  C_4
REMARK    2  A    between atoms: C_10  and  C_12
REMARK    3  A    between atoms: C_15  and  N_16
REMARK                            x       y       z     vdW  Elec       q    Type
REMARK                         _______ _______ _______ _____ _____    ______ ____
ROOT
ATOM      1  C   UNL     1       3.163   6.880  18.660  0.00  0.00    +0.000 A 
ATOM      2  C   UNL     1       2.740   7.702  17.622  0.00  0.00    +0.000 A 
ATOM      3  C   UNL     1       1.821   8.705  17.877  0.00  0.00    +0.000 A 
ATOM      4  C   UNL     1       1.244   8.837  19.147  0.00  0.00    +0.000 A 
ATOM      5  C   UNL     1       1.605   7.979  20.184  0.00  0.00    +0.000 A 
ATOM      6  C   UNL     1       2.565   6.979  19.926  0.00  0.00    +0.000 A 
ENDROOT
BRANCH   4   7
ATOM      7  N   UNL     1       0.270   9.861  19.265  0.00  0.00    +0.000 N 
ATOM      8  C   UNL     1      -0.844   9.885  18.436  0.00  0.00    +0.000 A 
ATOM      9  N   UNL     1      -1.161  11.095  18.053  0.00  0.00    +0.000 NA
ATOM     10  C   UNL     1      -0.302  11.901  18.754  0.00  0.00    +0.000 A 
ATOM     11  C   UNL     1      -0.142  13.289  18.642  0.00  0.00    +0.000 A 
ATOM     12  C   UNL     1       0.744  13.930  19.511  0.00  0.00    +0.000 A 
ATOM     13  C   UNL     1       1.426  13.205  20.485  0.00  0.00    +0.000 A 
ATOM     14  C   UNL     1       1.336  11.808  20.567  0.00  0.00    +0.000 A 
ATOM     15  C   UNL     1       0.481  11.169  19.654  0.00  0.00    +0.000 A 
ENDBRANCH   4   7
BRANCH   1  22
ATOM     16  C   UNL     1       2.872   3.733  18.445  0.00  0.00    +0.000 C 
ATOM     17  C   UNL     1       2.752   2.585  19.480  0.00  0.00    +0.000 C 
ATOM     18  O   UNL     1       3.955   1.806  19.547  0.00  0.00    +0.000 OA
ATOM     19  C   UNL     1       5.054   2.627  19.969  0.00  0.00    +0.000 C 
ATOM     20  C   UNL     1       5.270   3.787  18.995  0.00  0.00    +0.000 C 
ATOM     21  N   UNL     1       4.044   4.582  18.838  0.00  0.00    +0.000 N 
ATOM     22  C   UNL     1       4.235   5.890  18.368  0.00  0.00    +0.000 C 
ATOM     23  O   UNL     1       5.281   6.293  17.865  0.00  0.00    +0.000 OA
BRANCH  16  25
ATOM     24  N   UNL     1       0.702   4.329  19.463  0.00  0.00    +0.000 N 
ATOM     25  C   UNL     1       1.444   4.309  18.313  0.00  0.00    +0.000 C 
ATOM     26  O   UNL     1       0.947   4.693  17.261  0.00  0.00    +0.000 OA
ATOM     27  H   UNL     1      -0.239   4.681  19.411  0.00  0.00    +0.000 HD
ATOM     28  H   UNL     1       1.049   4.038  20.358  0.00  0.00    +0.000 HD
ENDBRANCH  16  25
ENDBRANCH   1  22
TORSDOF 3
ENDMDL
MODEL 9
REMARK VINA RESULT:      -6.5      4.131      8.427
REMARK  Name = 
REMARK  3 active torsions:
REMARK  status: ('A' for Active; 'I' for Inactive)
REMARK    1  A    between atoms: C_2  and  C_4
REMARK    2  A    between atoms: C_10  and  C_12
REMARK    3  A    between atoms: C_15  and  N_16
REMARK                            x       y       z     vdW  Elec       q    Type
REMARK                         _______ _______ _______ _____ _____    ______ ____
ROOT
ATOM      1  C   UNL     1       0.461   9.801  21.266  0.00  0.00    +0.000 A 
ATOM      2  C   UNL     1       0.214   8.498  21.682  0.00  0.00    +0.000 A 
ATOM      3  C   UNL     1       0.932   7.454  21.124  0.00  0.00    +0.000 A 
ATOM      4  C   UNL     1       1.834   7.690  20.079  0.00  0.00    +0.000 A 
ATOM      5  C   UNL     1       2.047   8.981  19.600  0.00  0.00    +0.000 A 
ATOM      6  C   UNL     1       1.335  10.044  20.194  0.00  0.00    +0.000 A 
ENDROOT
BRANCH   4   7
ATOM      7  N   UNL     1       2.460   6.533  19.548  0.00  0.00    +0.000 N 
ATOM      8  C   UNL     1       3.177   6.591  18.360  0.00  0.00    +0.000 A 
ATOM      9  N   UNL     1       2.991   5.538  17.607  0.00  0.00    +0.000 NA
ATOM     10  C   UNL     1       2.225   4.706  18.381  0.00  0.00    +0.000 A 
ATOM     11  C   UNL     1       1.650   3.481  18.017  0.00  0.00    +0.000 A 
ATOM     12  C   UNL     1       0.961   2.753  18.991  0.00  0.00    +0.000 A 
ATOM     13  C   UNL     1       0.879   3.225  20.299  0.00  0.00    +0.000 A 
ATOM     14  C   UNL     1       1.383   4.480  20.667  0.00  0.00    +0.000 A 
ATOM     15  C   UNL     1       2.029   5.226  19.666  0.00  0.00    +0.000 A 
ENDBRANCH   4   7
BRANCH   1  22
ATOM     16  C   UNL     1      -1.379  12.038  19.983  0.00  0.00    +0.000 C 
ATOM     17  C   UNL     1      -1.103  13.352  19.210  0.00  0.00    +0.000 C 
ATOM     18  O   UNL     1      -1.392  14.507  20.011  0.00  0.00    +0.000 OA
ATOM     19  C   UNL     1      -0.548  14.528  21.171  0.00  0.00    +0.000 C 
ATOM     20  C   UNL     1      -0.761  13.272  22.020  0.00  0.00    +0.000 C 
ATOM     21  N   UNL     1      -0.542  12.054  21.228  0.00  0.00    +0.000 N 
ATOM     22  C   UNL     1      -0.250  10.901  21.972  0.00  0.00    +0.000 C 
ATOM     23  O   UNL     1      -0.414  10.807  23.184  0.00  0.00    +0.000 OA
BRANCH  16  25
ATOM     24  N   UNL     1      -0.444  11.181  17.864  0.00  0.00    +0.000 N 
ATOM     25  C   UNL     1      -1.264  10.915  18.928  0.00  0.00    +0.000 C 
ATOM     26  O   UNL     1      -1.882   9.857  18.971  0.00  0.00    +0.000 OA
ATOM     27  H   UNL     1      -0.358  10.480  17.148  0.00  0.00    +0.000 HD
ATOM     28  H   UNL     1       0.096  12.021  17.771  0.00  0.00    +0.000 HD
ENDBRANCH  16  25
ENDBRANCH   1  22
TORSDOF 3
ENDMDL
