MODEL 1
REMARK VINA RESULT:      -7.8      0.000      0.000
REMARK  Name = 
REMARK  7 active torsions:
REMARK  status: ('A' for Active; 'I' for Inactive)
REMARK    1  A    between atoms: C_2  and  C_20
REMARK    2  A    between atoms: N_3  and  C_4
REMARK    3  A    between atoms: C_8  and  C_9
REMARK    4  A    between atoms: C_9  and  N_10
REMARK    5  A    between atoms: C_11  and  C_13
REMARK    6  A    between atoms: C_15  and  C_16
REMARK    7  A    between atoms: C_16  and  O_18
REMARK                            x       y       z     vdW  Elec       q    Type
REMARK                         _______ _______ _______ _____ _____    ______ ____
ROOT
ATOM      1  C   UNL     1       1.718   5.215  20.492  0.00  0.00    +0.000 A 
ATOM      2  C   UNL     1       0.754   4.404  19.883  0.00  0.00    +0.000 A 
ATOM      3  C   UNL     1       1.068   3.136  19.400  0.00  0.00    +0.000 A 
ATOM      4  C   UNL     1       2.375   2.673  19.473  0.00  0.00    +0.000 A 
ATOM      5  C   UNL     1       3.387   3.489  19.996  0.00  0.00    +0.000 A 
ATOM      6  C   UNL     1       3.047   4.755  20.525  0.00  0.00    +0.000 A 
ENDROOT
BRANCH   1   9
ATOM      7  O   UNL     1       2.060   7.800  19.264  0.00  0.00    +0.000 OA
ATOM      8  C   UNL     1       1.651   7.696  20.421  0.00  0.00    +0.000 C 
ATOM      9  N   UNL     1       1.393   6.485  21.047  0.00  0.00    +0.000 N 
ATOM     10  H   UNL     1       0.818   6.495  21.879  0.00  0.00    +0.000 HD
BRANCH   8  11
ATOM     11  C   UNL     1       1.332   8.962  21.232  0.00  0.00    +0.000 C 
ATOM     12  C   UNL     1       0.247   8.603  22.272  0.00  0.00    +0.000 C 
ATOM     13  C   UNL     1      -0.270   9.796  23.061  0.00  0.00    +0.000 C 
ATOM     14  C   UNL     1      -0.764  10.890  22.126  0.00  0.00    +0.000 C 
ATOM     15  C   UNL     1       0.333  11.307  21.153  0.00  0.00    +0.000 C 
ATOM     16  C   UNL     1       0.865  10.122  20.342  0.00  0.00    +0.000 C 
ENDBRANCH   8  11
ENDBRANCH   1   9
BRANCH   5  17
ATOM     17  C   UNL     1       4.816   3.006  19.939  0.00  0.00    +0.000 C 
BRANCH  17  18
ATOM     18  N   UNL     1       5.515   3.420  18.747  0.00  0.00    +0.000 N 
ATOM     19  C   UNL     1       6.356   4.507  18.787  0.00  0.00    +0.000 C 
ATOM     20  O   UNL     1       6.600   5.153  19.799  0.00  0.00    +0.000 OA
ATOM     21  H   UNL     1       5.333   2.945  17.873  0.00  0.00    +0.000 HD
BRANCH  19  22
ATOM     22  C   UNL     1       7.007   4.846  17.494  0.00  0.00    +0.000 C 
ATOM     23  C   UNL     1       7.165   6.298  17.109  0.00  0.00    +0.000 C 
ATOM     24  C   UNL     1       6.181   5.434  16.358  0.00  0.00    +0.000 C 
BRANCH  24  25
ATOM     25  C   UNL     1       6.471   5.070  14.952  0.00  0.00    +0.000 C 
ATOM     26  O   UNL     1       7.454   5.477  14.355  0.00  0.00    +0.000 OA
BRANCH  25  27
ATOM     27  O   UNL     1       5.516   4.302  14.382  0.00  0.00    +0.000 OA
ATOM     28  H   UNL     1       4.758   4.125  14.969  0.00  0.00    +0.000 HD
ENDBRANCH  25  27
ENDBRANCH  24  25
ENDBRANCH  19  22
ENDBRANCH  17  18
ENDBRANCH   5  17
TORSDOF 7
ENDMDL
MODEL 2
REMARK VINA RESULT:      -7.5      4.447      7.825
REMARK  Name = 
REMARK  7 active torsions:
REMARK  status: ('A' for Active; 'I' for Inactive)
REMARK    1  A    between atoms: C_2  and  C_20
REMARK    2  A    between atoms: N_3  and  C_4
REMARK    3  A    between atoms: C_8  and  C_9
REMARK    4  A    between atoms: C_9  and  N_10
REMARK    5  A    between atoms: C_11  and  C_13
REMARK    6  A    between atoms: C_15  and  C_16
REMARK    7  A    between atoms: C_16  and  O_18
REMARK                            x       y       z     vdW  Elec       q    Type
REMARK                         _______ _______ _______ _____ _____    ______ ____
ROOT
ATOM      1  C   UNL     1       7.747   7.847  17.874  0.00  0.00    +0.000 A 
ATOM      2  C   UNL     1       8.288   7.010  18.857  0.00  0.00    +0.000 A 
ATOM      3  C   UNL     1       7.711   5.779  19.162  0.00  0.00    +0.000 A 
ATOM      4  C   UNL     1       6.546   5.382  18.519  0.00  0.00    +0.000 A 
ATOM      5  C   UNL     1       5.926   6.231  17.592  0.00  0.00    +0.000 A 
ATOM      6  C   UNL     1       6.545   7.457  17.258  0.00  0.00    +0.000 A 
ENDROOT
BRANCH   1   9
ATOM      7  O   UNL     1       9.102   9.707  19.611  0.00  0.00    +0.000 OA
ATOM      8  C   UNL     1       8.940   9.957  18.416  0.00  0.00    +0.000 C 
ATOM      9  N   UNL     1       8.365   9.077  17.510  0.00  0.00    +0.000 N 
ATOM     10  H   UNL     1       8.513   9.249  16.525  0.00  0.00    +0.000 HD
BRANCH   8  11
ATOM     11  C   UNL     1       9.452  11.287  17.841  0.00  0.00    +0.000 C 
ATOM     12  C   UNL     1      10.898  11.500  18.344  0.00  0.00    +0.000 C 
ATOM     13  C   UNL     1      11.490  12.848  17.966  0.00  0.00    +0.000 C 
ATOM     14  C   UNL     1      10.589  13.984  18.427  0.00  0.00    +0.000 C 
ATOM     15  C   UNL     1       9.182  13.823  17.862  0.00  0.00    +0.000 C 
ATOM     16  C   UNL     1       8.562  12.474  18.237  0.00  0.00    +0.000 C 
ENDBRANCH   8  11
ENDBRANCH   1   9
BRANCH   5  17
ATOM     17  C   UNL     1       4.593   5.826  17.012  0.00  0.00    +0.000 C 
BRANCH  17  18
ATOM     18  N   UNL     1       3.860   4.903  17.845  0.00  0.00    +0.000 N 
ATOM     19  C   UNL     1       2.787   5.346  18.580  0.00  0.00    +0.000 C 
ATOM     20  O   UNL     1       2.360   6.494  18.555  0.00  0.00    +0.000 OA
ATOM     21  H   UNL     1       4.181   3.948  17.930  0.00  0.00    +0.000 HD
BRANCH  19  22
ATOM     22  C   UNL     1       2.122   4.307  19.411  0.00  0.00    +0.000 C 
ATOM     23  C   UNL     1       1.088   4.729  20.428  0.00  0.00    +0.000 C 
ATOM     24  C   UNL     1       2.427   4.215  20.900  0.00  0.00    +0.000 C 
BRANCH  24  25
ATOM     25  C   UNL     1       2.493   2.897  21.573  0.00  0.00    +0.000 C 
ATOM     26  O   UNL     1       3.493   2.198  21.556  0.00  0.00    +0.000 OA
BRANCH  25  27
ATOM     27  O   UNL     1       1.329   2.522  22.148  0.00  0.00    +0.000 OA
ATOM     28  H   UNL     1       1.386   1.670  22.620  0.00  0.00    +0.000 HD
ENDBRANCH  25  27
ENDBRANCH  24  25
ENDBRANCH  19  22
ENDBRANCH  17  18
ENDBRANCH   5  17
TORSDOF 7
ENDMDL
MODEL 3
REMARK VINA RESULT:      -7.4      1.661      2.323
REMARK  Name = 
REMARK  7 active torsions:
REMARK  status: ('A' for Active; 'I' for Inactive)
REMARK    1  A    between atoms: C_2  and  C_20
REMARK    2  A    between atoms: N_3  and  C_4
REMARK    3  A    between atoms: C_8  and  C_9
REMARK    4  A    between atoms: C_9  and  N_10
REMARK    5  A    between atoms: C_11  and  C_13
REMARK    6  A    between atoms: C_15  and  C_16
REMARK    7  A    between atoms: C_16  and  O_18
REMARK                            x       y       z     vdW  Elec       q    Type
REMARK                         _______ _______ _______ _____ _____    ______ ____
ROOT
ATOM      1  C   UNL     1       2.585   5.937  19.485  0.00  0.00    +0.000 A 
ATOM      2  C   UNL     1       1.711   5.080  18.808  0.00  0.00    +0.000 A 
ATOM      3  C   UNL     1       2.183   4.032  18.020  0.00  0.00    +0.000 A 
ATOM      4  C   UNL     1       3.550   3.852  17.856  0.00  0.00    +0.000 A 
ATOM      5  C   UNL     1       4.457   4.743  18.447  0.00  0.00    +0.000 A 
ATOM      6  C   UNL     1       3.967   5.774  19.281  0.00  0.00    +0.000 A 
ENDROOT
BRANCH   1   9
ATOM      7  O   UNL     1       1.693   8.571  18.727  0.00  0.00    +0.000 OA
ATOM      8  C   UNL     1       1.763   8.241  19.911  0.00  0.00    +0.000 C 
ATOM      9  N   UNL     1       2.112   6.970  20.344  0.00  0.00    +0.000 N 
ATOM     10  H   UNL     1       1.888   6.716  21.296  0.00  0.00    +0.000 HD
BRANCH   8  11
ATOM     11  C   UNL     1       1.387   9.253  21.005  0.00  0.00    +0.000 C 
ATOM     12  C   UNL     1       0.587   8.502  22.095  0.00  0.00    +0.000 C 
ATOM     13  C   UNL     1       0.026   9.407  23.181  0.00  0.00    +0.000 C 
ATOM     14  C   UNL     1      -0.809  10.525  22.576  0.00  0.00    +0.000 C 
ATOM     15  C   UNL     1       0.004  11.322  21.562  0.00  0.00    +0.000 C 
ATOM     16  C   UNL     1       0.574  10.432  20.454  0.00  0.00    +0.000 C 
ENDBRANCH   8  11
ENDBRANCH   1   9
BRANCH   5  17
ATOM     17  C   UNL     1       5.927   4.597  18.140  0.00  0.00    +0.000 C 
BRANCH  17  18
ATOM     18  N   UNL     1       6.189   4.037  16.836  0.00  0.00    +0.000 N 
ATOM     19  C   UNL     1       6.807   4.800  15.874  0.00  0.00    +0.000 C 
ATOM     20  O   UNL     1       7.205   5.945  16.051  0.00  0.00    +0.000 OA
ATOM     21  H   UNL     1       5.859   3.106  16.619  0.00  0.00    +0.000 HD
BRANCH  19  22
ATOM     22  C   UNL     1       7.009   4.120  14.567  0.00  0.00    +0.000 C 
ATOM     23  C   UNL     1       7.595   4.901  13.415  0.00  0.00    +0.000 C 
ATOM     24  C   UNL     1       6.142   4.496  13.373  0.00  0.00    +0.000 C 
BRANCH  24  25
ATOM     25  C   UNL     1       5.711   3.463  12.402  0.00  0.00    +0.000 C 
ATOM     26  O   UNL     1       4.539   3.264  12.128  0.00  0.00    +0.000 OA
BRANCH  25  27
ATOM     27  O   UNL     1       6.730   2.729  11.903  0.00  0.00    +0.000 OA
ATOM     28  H   UNL     1       6.523   2.306  11.049  0.00  0.00    +0.000 HD
ENDBRANCH  25  27
ENDBRANCH  24  25
ENDBRANCH  19  22
ENDBRANCH  17  18
ENDBRANCH   5  17
TORSDOF 7
ENDMDL
MODEL 4
REMARK VINA RESULT:      -7.4      0.821      1.008
REMARK  Name = 
REMARK  7 active torsions:
REMARK  status: ('A' for Active; 'I' for Inactive)
REMARK    1  A    between atoms: C_2  and  C_20
REMARK    2  A    between atoms: N_3  and  C_4
REMARK    3  A    between atoms: C_8  and  C_9
REMARK    4  A    between atoms: C_9  and  N_10
REMARK    5  A    between atoms: C_11  and  C_13
REMARK    6  A    between atoms: C_15  and  C_16
REMARK    7  A    between atoms: C_16  and  O_18
REMARK                            x       y       z     vdW  Elec       q    Type
REMARK                         _______ _______ _______ _____ _____    ______ ____
ROOT
ATOM      1  C   UNL     1       1.767   5.345  20.577  0.00  0.00    +0.000 A 
ATOM      2  C   UNL     1       0.819   4.341  20.350  0.00  0.00    +0.000 A 
ATOM      3  C   UNL     1       1.188   3.087  19.867  0.00  0.00    +0.000 A 
ATOM      4  C   UNL     1       2.516   2.830  19.553  0.00  0.00    +0.000 A 
ATOM      5  C   UNL     1       3.481   3.838  19.684  0.00  0.00    +0.000 A 
ATOM      6  C   UNL     1       3.102   5.091  20.218  0.00  0.00    +0.000 A 
ENDROOT
BRANCH   1   9
ATOM      7  O   UNL     1       1.942   7.927  19.308  0.00  0.00    +0.000 OA
ATOM      8  C   UNL     1       1.586   7.820  20.482  0.00  0.00    +0.000 C 
ATOM      9  N   UNL     1       1.408   6.606  21.132  0.00  0.00    +0.000 N 
ATOM     10  H   UNL     1       0.869   6.602  21.987  0.00  0.00    +0.000 HD
BRANCH   8  11
ATOM     11  C   UNL     1       1.246   9.081  21.292  0.00  0.00    +0.000 C 
ATOM     12  C   UNL     1       0.074   8.738  22.239  0.00  0.00    +0.000 C 
ATOM     13  C   UNL     1      -0.466   9.933  23.010  0.00  0.00    +0.000 C 
ATOM     14  C   UNL     1      -0.852  11.059  22.062  0.00  0.00    +0.000 C 
ATOM     15  C   UNL     1       0.328  11.458  21.184  0.00  0.00    +0.000 C 
ATOM     16  C   UNL     1       0.884  10.271  20.392  0.00  0.00    +0.000 C 
ENDBRANCH   8  11
ENDBRANCH   1   9
BRANCH   5  17
ATOM     17  C   UNL     1       4.888   3.566  19.210  0.00  0.00    +0.000 C 
BRANCH  17  18
ATOM     18  N   UNL     1       5.147   4.046  17.874  0.00  0.00    +0.000 N 
ATOM     19  C   UNL     1       6.371   4.591  17.567  0.00  0.00    +0.000 C 
ATOM     20  O   UNL     1       7.309   4.668  18.352  0.00  0.00    +0.000 OA
ATOM     21  H   UNL     1       4.404   4.037  17.189  0.00  0.00    +0.000 HD
BRANCH  19  22
ATOM     22  C   UNL     1       6.514   5.065  16.164  0.00  0.00    +0.000 C 
ATOM     23  C   UNL     1       5.377   5.829  15.528  0.00  0.00    +0.000 C 
ATOM     24  C   UNL     1       5.683   4.428  15.059  0.00  0.00    +0.000 C 
BRANCH  24  25
ATOM     25  C   UNL     1       6.256   4.231  13.707  0.00  0.00    +0.000 C 
ATOM     26  O   UNL     1       7.341   4.680  13.379  0.00  0.00    +0.000 OA
BRANCH  25  27
ATOM     27  O   UNL     1       5.437   3.565  12.862  0.00  0.00    +0.000 OA
ATOM     28  H   UNL     1       5.899   2.903  12.315  0.00  0.00    +0.000 HD
ENDBRANCH  25  27
ENDBRANCH  24  25
ENDBRANCH  19  22
ENDBRANCH  17  18
ENDBRANCH   5  17
TORSDOF 7
ENDMDL
MODEL 5
REMARK VINA RESULT:      -7.4      1.491      2.272
REMARK  Name = 
REMARK  7 active torsions:
REMARK  status: ('A' for Active; 'I' for Inactive)
REMARK    1  A    between atoms: C_2  and  C_20
REMARK    2  A    between atoms: N_3  and  C_4
REMARK    3  A    between atoms: C_8  and  C_9
REMARK    4  A    between atoms: C_9  and  N_10
REMARK    5  A    between atoms: C_11  and  C_13
REMARK    6  A    between atoms: C_15  and  C_16
REMARK    7  A    between atoms: C_16  and  O_18
REMARK                            x       y       z     vdW  Elec       q    Type
REMARK                         _______ _______ _______ _____ _____    ______ ____
ROOT
ATOM      1  C   UNL     1       1.765   4.789  19.951  0.00  0.00    +0.000 A 
ATOM      2  C   UNL     1       0.887   3.744  20.262  0.00  0.00    +0.000 A 
ATOM      3  C   UNL     1       1.099   2.450  19.790  0.00  0.00    +0.000 A 
ATOM      4  C   UNL     1       2.174   2.188  18.951  0.00  0.00    +0.000 A 
ATOM      5  C   UNL     1       3.025   3.225  18.545  0.00  0.00    +0.000 A 
ATOM      6  C   UNL     1       2.826   4.524  19.067  0.00  0.00    +0.000 A 
ENDROOT
BRANCH   1   9
ATOM      7  O   UNL     1       2.080   7.294  18.560  0.00  0.00    +0.000 OA
ATOM      8  C   UNL     1       1.830   7.264  19.766  0.00  0.00    +0.000 C 
ATOM      9  N   UNL     1       1.593   6.099  20.481  0.00  0.00    +0.000 N 
ATOM     10  H   UNL     1       1.140   6.180  21.382  0.00  0.00    +0.000 HD
BRANCH   8  11
ATOM     11  C   UNL     1       1.700   8.581  20.548  0.00  0.00    +0.000 C 
ATOM     12  C   UNL     1       0.894   8.294  21.835  0.00  0.00    +0.000 C 
ATOM     13  C   UNL     1       0.566   9.537  22.647  0.00  0.00    +0.000 C 
ATOM     14  C   UNL     1      -0.143  10.573  21.789  0.00  0.00    +0.000 C 
ATOM     15  C   UNL     1       0.690  10.922  20.560  0.00  0.00    +0.000 C 
ATOM     16  C   UNL     1       1.026   9.685  19.723  0.00  0.00    +0.000 C 
ENDBRANCH   8  11
ENDBRANCH   1   9
BRANCH   5  17
ATOM     17  C   UNL     1       4.101   2.930  17.530  0.00  0.00    +0.000 C 
BRANCH  17  18
ATOM     18  N   UNL     1       5.303   3.704  17.725  0.00  0.00    +0.000 N 
ATOM     19  C   UNL     1       5.745   4.546  16.732  0.00  0.00    +0.000 C 
ATOM     20  O   UNL     1       5.160   4.730  15.672  0.00  0.00    +0.000 OA
ATOM     21  H   UNL     1       5.847   3.575  18.567  0.00  0.00    +0.000 HD
BRANCH  19  22
ATOM     22  C   UNL     1       7.002   5.278  17.042  0.00  0.00    +0.000 C 
ATOM     23  C   UNL     1       7.714   4.997  18.345  0.00  0.00    +0.000 C 
ATOM     24  C   UNL     1       7.019   6.322  18.150  0.00  0.00    +0.000 C 
BRANCH  24  25
ATOM     25  C   UNL     1       7.837   7.550  18.013  0.00  0.00    +0.000 C 
ATOM     26  O   UNL     1       7.735   8.307  17.063  0.00  0.00    +0.000 OA
BRANCH  25  27
ATOM     27  O   UNL     1       8.743   7.711  19.003  0.00  0.00    +0.000 OA
ATOM     28  H   UNL     1       9.291   8.512  18.902  0.00  0.00    +0.000 HD
ENDBRANCH  25  27
ENDBRANCH  24  25
ENDBRANCH  19  22
ENDBRANCH  17  18
ENDBRANCH   5  17
TORSDOF 7
ENDMDL
MODEL 6
REMARK VINA RESULT:      -7.4      2.437      3.335
REMARK  Name = 
REMARK  7 active torsions:
REMARK  status: ('A' for Active; 'I' for Inactive)
REMARK    1  A    between atoms: C_2  and  C_20
REMARK    2  A    between atoms: N_3  and  C_4
REMARK    3  A    between atoms: C_8  and  C_9
REMARK    4  A    between atoms: C_9  and  N_10
REMARK    5  A    between atoms: C_11  and  C_13
REMARK    6  A    between atoms: C_15  and  C_16
REMARK    7  A    between atoms: C_16  and  O_18
REMARK                            x       y       z     vdW  Elec       q    Type
REMARK                         _______ _______ _______ _____ _____    ______ ____
ROOT
ATOM      1  C   UNL     1       2.782   6.482  18.027  0.00  0.00    +0.000 A 
ATOM      2  C   UNL     1       1.900   5.396  18.014  0.00  0.00    +0.000 A 
ATOM      3  C   UNL     1       2.357   4.089  17.864  0.00  0.00    +0.000 A 
ATOM      4  C   UNL     1       3.711   3.847  17.674  0.00  0.00    +0.000 A 
ATOM      5  C   UNL     1       4.616   4.915  17.593  0.00  0.00    +0.000 A 
ATOM      6  C   UNL     1       4.146   6.233  17.792  0.00  0.00    +0.000 A 
ENDROOT
BRANCH   1   9
ATOM      7  O   UNL     1       1.767   7.609  20.478  0.00  0.00    +0.000 OA
ATOM      8  C   UNL     1       1.789   8.268  19.438  0.00  0.00    +0.000 C 
ATOM      9  N   UNL     1       2.332   7.815  18.244  0.00  0.00    +0.000 N 
ATOM     10  H   UNL     1       2.548   8.501  17.532  0.00  0.00    +0.000 HD
BRANCH   8  11
ATOM     11  C   UNL     1       1.253   9.709  19.439  0.00  0.00    +0.000 C 
ATOM     12  C   UNL     1       0.774  10.040  20.870  0.00  0.00    +0.000 C 
ATOM     13  C   UNL     1       0.088  11.391  20.994  0.00  0.00    +0.000 C 
ATOM     14  C   UNL     1      -1.059  11.509  20.003  0.00  0.00    +0.000 C 
ATOM     15  C   UNL     1      -0.573  11.268  18.578  0.00  0.00    +0.000 C 
ATOM     16  C   UNL     1       0.115   9.908  18.428  0.00  0.00    +0.000 C 
ENDBRANCH   8  11
ENDBRANCH   1   9
BRANCH   5  17
ATOM     17  C   UNL     1       6.057   4.624  17.254  0.00  0.00    +0.000 C 
BRANCH  17  18
ATOM     18  N   UNL     1       6.219   3.854  16.045  0.00  0.00    +0.000 N 
ATOM     19  C   UNL     1       6.130   4.472  14.820  0.00  0.00    +0.000 C 
ATOM     20  O   UNL     1       5.958   5.675  14.666  0.00  0.00    +0.000 OA
ATOM     21  H   UNL     1       6.335   2.851  16.105  0.00  0.00    +0.000 HD
BRANCH  19  22
ATOM     22  C   UNL     1       6.299   3.572  13.648  0.00  0.00    +0.000 C 
ATOM     23  C   UNL     1       6.976   4.102  12.406  0.00  0.00    +0.000 C 
ATOM     24  C   UNL     1       5.494   3.818  12.379  0.00  0.00    +0.000 C 
BRANCH  24  25
ATOM     25  C   UNL     1       4.994   2.680  11.574  0.00  0.00    +0.000 C 
ATOM     26  O   UNL     1       5.683   1.710  11.304  0.00  0.00    +0.000 OA
BRANCH  25  27
ATOM     27  O   UNL     1       3.733   2.849  11.119  0.00  0.00    +0.000 OA
ATOM     28  H   UNL     1       3.686   3.340  10.278  0.00  0.00    +0.000 HD
ENDBRANCH  25  27
ENDBRANCH  24  25
ENDBRANCH  19  22
ENDBRANCH  17  18
ENDBRANCH   5  17
TORSDOF 7
ENDMDL
MODEL 7
REMARK VINA RESULT:      -7.3      1.629      2.356
REMARK  Name = 
REMARK  7 active torsions:
REMARK  status: ('A' for Active; 'I' for Inactive)
REMARK    1  A    between atoms: C_2  and  C_20
REMARK    2  A    between atoms: N_3  and  C_4
REMARK    3  A    between atoms: C_8  and  C_9
REMARK    4  A    between atoms: C_9  and  N_10
REMARK    5  A    between atoms: C_11  and  C_13
REMARK    6  A    between atoms: C_15  and  C_16
REMARK    7  A    between atoms: C_16  and  O_18
REMARK                            x       y       z     vdW  Elec       q    Type
REMARK                         _______ _______ _______ _____ _____    ______ ____
ROOT
ATOM      1  C   UNL     1       2.009   5.223  20.305  0.00  0.00    +0.000 A 
ATOM      2  C   UNL     1       1.032   4.302  20.697  0.00  0.00    +0.000 A 
ATOM      3  C   UNL     1       1.266   2.929  20.655  0.00  0.00    +0.000 A 
ATOM      4  C   UNL     1       2.475   2.449  20.169  0.00  0.00    +0.000 A 
ATOM      5  C   UNL     1       3.446   3.336  19.684  0.00  0.00    +0.000 A 
ATOM      6  C   UNL     1       3.214   4.728  19.774  0.00  0.00    +0.000 A 
ENDROOT
BRANCH   1   9
ATOM      7  O   UNL     1       2.195   7.174  18.191  0.00  0.00    +0.000 OA
ATOM      8  C   UNL     1       1.978   7.517  19.354  0.00  0.00    +0.000 C 
ATOM      9  N   UNL     1       1.803   6.628  20.405  0.00  0.00    +0.000 N 
ATOM     10  H   UNL     1       1.371   6.975  21.251  0.00  0.00    +0.000 HD
BRANCH   8  11
ATOM     11  C   UNL     1       1.820   9.008  19.690  0.00  0.00    +0.000 C 
ATOM     12  C   UNL     1       0.707   9.143  20.754  0.00  0.00    +0.000 C 
ATOM     13  C   UNL     1       0.342  10.581  21.087  0.00  0.00    +0.000 C 
ATOM     14  C   UNL     1      -0.023  11.352  19.827  0.00  0.00    +0.000 C 
ATOM     15  C   UNL     1       1.109  11.293  18.808  0.00  0.00    +0.000 C 
ATOM     16  C   UNL     1       1.489   9.853  18.452  0.00  0.00    +0.000 C 
ENDBRANCH   8  11
ENDBRANCH   1   9
BRANCH   5  17
ATOM     17  C   UNL     1       4.690   2.775  19.042  0.00  0.00    +0.000 C 
BRANCH  17  18
ATOM     18  N   UNL     1       5.797   3.700  19.028  0.00  0.00    +0.000 N 
ATOM     19  C   UNL     1       6.222   4.245  17.839  0.00  0.00    +0.000 C 
ATOM     20  O   UNL     1       5.692   4.032  16.755  0.00  0.00    +0.000 OA
ATOM     21  H   UNL     1       6.294   3.894  19.887  0.00  0.00    +0.000 HD
BRANCH  19  22
ATOM     22  C   UNL     1       7.379   5.172  17.950  0.00  0.00    +0.000 C 
ATOM     23  C   UNL     1       7.918   5.514  19.319  0.00  0.00    +0.000 C 
ATOM     24  C   UNL     1       7.183   6.567  18.526  0.00  0.00    +0.000 C 
BRANCH  24  25
ATOM     25  C   UNL     1       7.941   7.718  17.983  0.00  0.00    +0.000 C 
ATOM     26  O   UNL     1       7.841   8.085  16.824  0.00  0.00    +0.000 OA
BRANCH  25  27
ATOM     27  O   UNL     1       8.793   8.275  18.872  0.00  0.00    +0.000 OA
ATOM     28  H   UNL     1       8.879   7.766  19.699  0.00  0.00    +0.000 HD
ENDBRANCH  25  27
ENDBRANCH  24  25
ENDBRANCH  19  22
ENDBRANCH  17  18
ENDBRANCH   5  17
TORSDOF 7
ENDMDL
MODEL 8
REMARK VINA RESULT:      -7.3      2.346      3.281
REMARK  Name = 
REMARK  7 active torsions:
REMARK  status: ('A' for Active; 'I' for Inactive)
REMARK    1  A    between atoms: C_2  and  C_20
REMARK    2  A    between atoms: N_3  and  C_4
REMARK    3  A    between atoms: C_8  and  C_9
REMARK    4  A    between atoms: C_9  and  N_10
REMARK    5  A    between atoms: C_11  and  C_13
REMARK    6  A    between atoms: C_15  and  C_16
REMARK    7  A    between atoms: C_16  and  O_18
REMARK                            x       y       z     vdW  Elec       q    Type
REMARK                         _______ _______ _______ _____ _____    ______ ____
ROOT
ATOM      1  C   UNL     1       2.736   6.148  18.669  0.00  0.00    +0.000 A 
ATOM      2  C   UNL     1       1.908   5.047  18.424  0.00  0.00    +0.000 A 
ATOM      3  C   UNL     1       2.373   3.923  17.744  0.00  0.00    +0.000 A 
ATOM      4  C   UNL     1       3.671   3.902  17.250  0.00  0.00    +0.000 A 
ATOM      5  C   UNL     1       4.503   5.020  17.398  0.00  0.00    +0.000 A 
ATOM      6  C   UNL     1       4.035   6.136  18.130  0.00  0.00    +0.000 A 
ENDROOT
BRANCH   1   9
ATOM      7  O   UNL     1       1.553   8.571  17.650  0.00  0.00    +0.000 OA
ATOM      8  C   UNL     1       1.792   8.438  18.851  0.00  0.00    +0.000 C 
ATOM      9  N   UNL     1       2.290   7.273  19.418  0.00  0.00    +0.000 N 
ATOM     10  H   UNL     1       2.203   7.160  20.419  0.00  0.00    +0.000 HD
BRANCH   8  11
ATOM     11  C   UNL     1       1.471   9.585  19.822  0.00  0.00    +0.000 C 
ATOM     12  C   UNL     1       0.355   9.104  20.777  0.00  0.00    +0.000 C 
ATOM     13  C   UNL     1      -0.165  10.185  21.712  0.00  0.00    +0.000 C 
ATOM     14  C   UNL     1      -0.619  11.406  20.927  0.00  0.00    +0.000 C 
ATOM     15  C   UNL     1       0.508  11.935  20.046  0.00  0.00    +0.000 C 
ATOM     16  C   UNL     1       1.043  10.865  19.091  0.00  0.00    +0.000 C 
ENDBRANCH   8  11
ENDBRANCH   1   9
BRANCH   5  17
ATOM     17  C   UNL     1       5.858   5.012  16.736  0.00  0.00    +0.000 C 
BRANCH  17  18
ATOM     18  N   UNL     1       5.902   4.226  15.526  0.00  0.00    +0.000 N 
ATOM     19  C   UNL     1       6.808   4.536  14.540  0.00  0.00    +0.000 C 
ATOM     20  O   UNL     1       7.639   5.432  14.622  0.00  0.00    +0.000 OA
ATOM     21  H   UNL     1       5.223   3.491  15.386  0.00  0.00    +0.000 HD
BRANCH  19  22
ATOM     22  C   UNL     1       6.747   3.665  13.335  0.00  0.00    +0.000 C 
ATOM     23  C   UNL     1       7.143   4.237  11.994  0.00  0.00    +0.000 C 
ATOM     24  C   UNL     1       5.693   3.918  12.267  0.00  0.00    +0.000 C 
BRANCH  24  25
ATOM     25  C   UNL     1       5.059   2.785  11.553  0.00  0.00    +0.000 C 
ATOM     26  O   UNL     1       3.959   2.866  11.032  0.00  0.00    +0.000 OA
BRANCH  25  27
ATOM     27  O   UNL     1       5.785   1.646  11.591  0.00  0.00    +0.000 OA
ATOM     28  H   UNL     1       5.436   0.983  12.216  0.00  0.00    +0.000 HD
ENDBRANCH  25  27
ENDBRANCH  24  25
ENDBRANCH  19  22
ENDBRANCH  17  18
ENDBRANCH   5  17
TORSDOF 7
ENDMDL
MODEL 9
REMARK VINA RESULT:      -7.2      2.617      3.765
REMARK  Name = 
REMARK  7 active torsions:
REMARK  status: ('A' for Active; 'I' for Inactive)
REMARK    1  A    between atoms: C_2  and  C_20
REMARK    2  A    between atoms: N_3  and  C_4
REMARK    3  A    between atoms: C_8  and  C_9
REMARK    4  A    between atoms: C_9  and  N_10
REMARK    5  A    between atoms: C_11  and  C_13
REMARK    6  A    between atoms: C_15  and  C_16
REMARK    7  A    between atoms: C_16  and  O_18
REMARK                            x       y       z     vdW  Elec       q    Type
REMARK                         _______ _______ _______ _____ _____    ______ ____
ROOT
ATOM      1  C   UNL     1       2.638   6.771  18.522  0.00  0.00    +0.000 A 
ATOM      2  C   UNL     1       2.187   5.469  18.768  0.00  0.00    +0.000 A 
ATOM      3  C   UNL     1       2.866   4.358  18.273  0.00  0.00    +0.000 A 
ATOM      4  C   UNL     1       3.988   4.532  17.475  0.00  0.00    +0.000 A 
ATOM      5  C   UNL     1       4.420   5.821  17.133  0.00  0.00    +0.000 A 
ATOM      6  C   UNL     1       3.750   6.940  17.679  0.00  0.00    +0.000 A 
ENDROOT
BRANCH   1   9
ATOM      7  O   UNL     1       1.939   9.219  17.169  0.00  0.00    +0.000 OA
ATOM      8  C   UNL     1       1.746   9.085  18.378  0.00  0.00    +0.000 C 
ATOM      9  N   UNL     1       1.988   7.910  19.076  0.00  0.00    +0.000 N 
ATOM     10  H   UNL     1       1.559   7.804  19.986  0.00  0.00    +0.000 HD
BRANCH   8  11
ATOM     11  C   UNL     1       1.138  10.243  19.184  0.00  0.00    +0.000 C 
ATOM     12  C   UNL     1      -0.398  10.176  19.033  0.00  0.00    +0.000 C 
ATOM     13  C   UNL     1      -1.132  11.347  19.668  0.00  0.00    +0.000 C 
ATOM     14  C   UNL     1      -0.598  12.671  19.142  0.00  0.00    +0.000 C 
ATOM     15  C   UNL     1       0.906  12.776  19.367  0.00  0.00    +0.000 C 
ATOM     16  C   UNL     1       1.667  11.610  18.729  0.00  0.00    +0.000 C 
ENDBRANCH   8  11
ENDBRANCH   1   9
BRANCH   5  17
ATOM     17  C   UNL     1       5.562   5.972  16.158  0.00  0.00    +0.000 C 
BRANCH  17  18
ATOM     18  N   UNL     1       5.603   4.935  15.156  0.00  0.00    +0.000 N 
ATOM     19  C   UNL     1       6.696   4.822  14.330  0.00  0.00    +0.000 C 
ATOM     20  O   UNL     1       7.692   5.530  14.404  0.00  0.00    +0.000 OA
ATOM     21  H   UNL     1       4.799   4.336  15.027  0.00  0.00    +0.000 HD
BRANCH  19  22
ATOM     22  C   UNL     1       6.616   3.725  13.329  0.00  0.00    +0.000 C 
ATOM     23  C   UNL     1       7.260   3.918  11.976  0.00  0.00    +0.000 C 
ATOM     24  C   UNL     1       5.754   3.894  12.084  0.00  0.00    +0.000 C 
BRANCH  24  25
ATOM     25  C   UNL     1       5.011   2.742  11.524  0.00  0.00    +0.000 C 
ATOM     26  O   UNL     1       5.519   1.644  11.364  0.00  0.00    +0.000 OA
BRANCH  25  27
ATOM     27  O   UNL     1       3.746   3.041  11.152  0.00  0.00    +0.000 OA
ATOM     28  H   UNL     1       3.534   2.765  10.241  0.00  0.00    +0.000 HD
ENDBRANCH  25  27
ENDBRANCH  24  25
ENDBRANCH  19  22
ENDBRANCH  17  18
ENDBRANCH   5  17
TORSDOF 7
ENDMDL
