MODEL 1
REMARK VINA RESULT:      -8.5      0.000      0.000
REMARK  Name = 
REMARK  8 active torsions:
REMARK  status: ('A' for Active; 'I' for Inactive)
REMARK    1  A    between atoms: C_1  and  C_2
REMARK    2  A    between atoms: C_2  and  C_9
REMARK    3  A    between atoms: N_7  and  C_8
REMARK    4  A    between atoms: C_13  and  N_14
REMARK    5  A    between atoms: C_19  and  C_20
REMARK    6  A    between atoms: C_20  and  C_21
REMARK    7  A    between atoms: C_21  and  N_22
REMARK    8  A    between atoms: C_27  and  C_28
REMARK                            x       y       z     vdW  Elec       q    Type
REMARK                         _______ _______ _______ _____ _____    ______ ____
ROOT
ATOM      1  N   UNL     1       3.714   5.030  19.135  0.00  0.00    +0.000 N 
ATOM      2  C   UNL     1       5.087   5.565  19.322  0.00  0.00    +0.000 C 
ATOM      3  C   UNL     1       5.725   5.281  17.999  0.00  0.00    +0.000 A 
ATOM      4  C   UNL     1       5.063   4.185  17.448  0.00  0.00    +0.000 A 
ATOM      5  C   UNL     1       5.307   3.719  16.174  0.00  0.00    +0.000 A 
ATOM      6  C   UNL     1       6.242   4.403  15.384  0.00  0.00    +0.000 A 
ATOM      7  C   UNL     1       6.922   5.517  15.942  0.00  0.00    +0.000 A 
ATOM      8  C   UNL     1       6.669   5.981  17.256  0.00  0.00    +0.000 A 
ATOM      9  C   UNL     1       3.853   3.919  18.262  0.00  0.00    +0.000 C 
ATOM     10  O   UNL     1       3.064   3.026  18.035  0.00  0.00    +0.000 OA
ENDROOT
BRANCH   1  15
ATOM     11  C   UNL     1       1.871   8.115  19.550  0.00  0.00    +0.000 A 
ATOM     12  C   UNL     1       2.411   8.818  18.467  0.00  0.00    +0.000 A 
ATOM     13  C   UNL     1       2.981   8.130  17.401  0.00  0.00    +0.000 A 
ATOM     14  C   UNL     1       3.121   6.749  17.470  0.00  0.00    +0.000 A 
ATOM     15  C   UNL     1       2.820   6.084  18.670  0.00  0.00    +0.000 A 
ATOM     16  C   UNL     1       2.033   6.730  19.630  0.00  0.00    +0.000 A 
BRANCH  11  18
ATOM     17  C   UNL     1       1.754   8.550  21.998  0.00  0.00    +0.000 C 
ATOM     18  C   UNL     1       1.207   8.865  20.634  0.00  0.00    +0.000 C 
ATOM     19  C   UNL     1       0.289   9.792  20.302  0.00  0.00    +0.000 C 
ATOM     20  N   UNL     1      -0.087  10.092  18.996  0.00  0.00    +0.000 N 
ATOM     21  N   UNL     1      -1.068  11.057  18.933  0.00  0.00    +0.000 NA
ATOM     22  C   UNL     1      -1.234  11.365  20.191  0.00  0.00    +0.000 C 
ATOM     23  N   UNL     1      -0.466  10.660  21.088  0.00  0.00    +0.000 N 
ATOM     24  C   UNL     1      -0.822  10.532  22.479  0.00  0.00    +0.000 C 
ATOM     25  H   UNL     1       0.103   9.450  18.234  0.00  0.00    +0.000 HD
ENDBRANCH  11  18
ENDBRANCH   1  15
BRANCH   8  26
ATOM     26  C   UNL     1       7.349   7.236  17.743  0.00  0.00    +0.000 C 
ATOM     27  F   UNL     1       8.256   7.756  16.871  0.00  0.00    +0.000 F 
ATOM     28  F   UNL     1       6.462   8.238  17.984  0.00  0.00    +0.000 F 
ATOM     29  F   UNL     1       8.025   7.047  18.910  0.00  0.00    +0.000 F 
ENDBRANCH   8  26
BRANCH   6  30
ATOM     30  C   UNL     1       6.549   3.980  13.959  0.00  0.00    +0.000 C 
BRANCH  30  31
ATOM     31  C   UNL     1       5.322   3.596  13.109  0.00  0.00    +0.000 C 
BRANCH  31  32
ATOM     32  N   UNL     1       5.715   3.204  11.748  0.00  0.00    +0.000 NA
ATOM     33  C   UNL     1       5.594   1.726  11.593  0.00  0.00    +0.000 C 
ATOM     34  C   UNL     1       6.938   1.762  10.844  0.00  0.00    +0.000 C 
ATOM     35  C   UNL     1       7.194   3.044  11.656  0.00  0.00    +0.000 C 
ENDBRANCH  31  32
ENDBRANCH  30  31
ENDBRANCH   6  30
TORSDOF 6
ENDMDL
MODEL 2
REMARK VINA RESULT:      -8.4      4.940      9.514
REMARK  Name = 
REMARK  8 active torsions:
REMARK  status: ('A' for Active; 'I' for Inactive)
REMARK    1  A    between atoms: C_1  and  C_2
REMARK    2  A    between atoms: C_2  and  C_9
REMARK    3  A    between atoms: N_7  and  C_8
REMARK    4  A    between atoms: C_13  and  N_14
REMARK    5  A    between atoms: C_19  and  C_20
REMARK    6  A    between atoms: C_20  and  C_21
REMARK    7  A    between atoms: C_21  and  N_22
REMARK    8  A    between atoms: C_27  and  C_28
REMARK                            x       y       z     vdW  Elec       q    Type
REMARK                         _______ _______ _______ _____ _____    ______ ____
ROOT
ATOM      1  N   UNL     1       0.305   8.778  21.022  0.00  0.00    +0.000 N 
ATOM      2  C   UNL     1      -0.899   9.017  20.184  0.00  0.00    +0.000 C 
ATOM      3  C   UNL     1      -0.925  10.510  20.079  0.00  0.00    +0.000 A 
ATOM      4  C   UNL     1      -0.283  11.015  21.209  0.00  0.00    +0.000 A 
ATOM      5  C   UNL     1      -0.014  12.354  21.389  0.00  0.00    +0.000 A 
ATOM      6  C   UNL     1      -0.376  13.247  20.369  0.00  0.00    +0.000 A 
ATOM      7  C   UNL     1      -1.034  12.739  19.219  0.00  0.00    +0.000 A 
ATOM      8  C   UNL     1      -1.312  11.360  19.050  0.00  0.00    +0.000 A 
ATOM      9  C   UNL     1       0.380   9.887  21.906  0.00  0.00    +0.000 C 
ATOM     10  O   UNL     1       1.026  10.003  22.926  0.00  0.00    +0.000 OA
ENDROOT
BRANCH   1  15
ATOM     11  C   UNL     1       2.731   6.700  19.325  0.00  0.00    +0.000 A 
ATOM     12  C   UNL     1       2.528   7.178  18.024  0.00  0.00    +0.000 A 
ATOM     13  C   UNL     1       1.973   8.436  17.820  0.00  0.00    +0.000 A 
ATOM     14  C   UNL     1       1.510   9.168  18.907  0.00  0.00    +0.000 A 
ATOM     15  C   UNL     1       1.475   8.569  20.177  0.00  0.00    +0.000 A 
ATOM     16  C   UNL     1       2.243   7.425  20.414  0.00  0.00    +0.000 A 
BRANCH  11  18
ATOM     17  C   UNL     1       4.875   5.437  19.309  0.00  0.00    +0.000 C 
ATOM     18  C   UNL     1       3.388   5.392  19.516  0.00  0.00    +0.000 C 
ATOM     19  C   UNL     1       2.640   4.356  19.939  0.00  0.00    +0.000 C 
ATOM     20  N   UNL     1       1.275   4.429  20.205  0.00  0.00    +0.000 N 
ATOM     21  N   UNL     1       0.743   3.220  20.594  0.00  0.00    +0.000 NA
ATOM     22  C   UNL     1       1.795   2.448  20.609  0.00  0.00    +0.000 C 
ATOM     23  N   UNL     1       2.979   3.037  20.231  0.00  0.00    +0.000 N 
ATOM     24  C   UNL     1       4.107   2.274  19.759  0.00  0.00    +0.000 C 
ATOM     25  H   UNL     1       0.709   5.189  19.841  0.00  0.00    +0.000 HD
ENDBRANCH  11  18
ENDBRANCH   1  15
BRANCH   8  26
ATOM     26  C   UNL     1      -1.916  10.878  17.754  0.00  0.00    +0.000 C 
ATOM     27  F   UNL     1      -1.181   9.926  17.115  0.00  0.00    +0.000 F 
ATOM     28  F   UNL     1      -3.145  10.327  17.937  0.00  0.00    +0.000 F 
ATOM     29  F   UNL     1      -2.087  11.881  16.849  0.00  0.00    +0.000 F 
ENDBRANCH   8  26
BRANCH   6  30
ATOM     30  C   UNL     1      -0.089  14.734  20.466  0.00  0.00    +0.000 C 
BRANCH  30  31
ATOM     31  C   UNL     1       1.382  15.136  20.237  0.00  0.00    +0.000 C 
BRANCH  31  32
ATOM     32  N   UNL     1       1.736  15.081  18.812  0.00  0.00    +0.000 NA
ATOM     33  C   UNL     1       2.975  14.270  18.630  0.00  0.00    +0.000 C 
ATOM     34  C   UNL     1       3.448  15.341  17.631  0.00  0.00    +0.000 C 
ATOM     35  C   UNL     1       2.525  16.284  18.422  0.00  0.00    +0.000 C 
ENDBRANCH  31  32
ENDBRANCH  30  31
ENDBRANCH   6  30
TORSDOF 6
ENDMDL
MODEL 3
REMARK VINA RESULT:      -8.3      4.923      9.907
REMARK  Name = 
REMARK  8 active torsions:
REMARK  status: ('A' for Active; 'I' for Inactive)
REMARK    1  A    between atoms: C_1  and  C_2
REMARK    2  A    between atoms: C_2  and  C_9
REMARK    3  A    between atoms: N_7  and  C_8
REMARK    4  A    between atoms: C_13  and  N_14
REMARK    5  A    between atoms: C_19  and  C_20
REMARK    6  A    between atoms: C_20  and  C_21
REMARK    7  A    between atoms: C_21  and  N_22
REMARK    8  A    between atoms: C_27  and  C_28
REMARK                            x       y       z     vdW  Elec       q    Type
REMARK                         _______ _______ _______ _____ _____    ______ ____
ROOT
ATOM      1  N   UNL     1       0.297   8.731  21.091  0.00  0.00    +0.000 N 
ATOM      2  C   UNL     1      -0.905   8.979  20.253  0.00  0.00    +0.000 C 
ATOM      3  C   UNL     1      -0.939  10.473  20.174  0.00  0.00    +0.000 A 
ATOM      4  C   UNL     1      -0.304  10.961  21.315  0.00  0.00    +0.000 A 
ATOM      5  C   UNL     1      -0.043  12.299  21.519  0.00  0.00    +0.000 A 
ATOM      6  C   UNL     1      -0.406  13.207  20.514  0.00  0.00    +0.000 A 
ATOM      7  C   UNL     1      -1.057  12.716  19.353  0.00  0.00    +0.000 A 
ATOM      8  C   UNL     1      -1.327  11.339  19.158  0.00  0.00    +0.000 A 
ATOM      9  C   UNL     1       0.363   9.825  21.995  0.00  0.00    +0.000 C 
ATOM     10  O   UNL     1       1.005   9.926  23.019  0.00  0.00    +0.000 OA
ENDROOT
BRANCH   1  15
ATOM     11  C   UNL     1       2.727   6.696  19.348  0.00  0.00    +0.000 A 
ATOM     12  C   UNL     1       2.533   7.212  18.061  0.00  0.00    +0.000 A 
ATOM     13  C   UNL     1       1.982   8.477  17.889  0.00  0.00    +0.000 A 
ATOM     14  C   UNL     1       1.515   9.179  18.994  0.00  0.00    +0.000 A 
ATOM     15  C   UNL     1       1.471   8.544  20.247  0.00  0.00    +0.000 A 
ATOM     16  C   UNL     1       2.235   7.391  20.455  0.00  0.00    +0.000 A 
BRANCH  11  18
ATOM     17  C   UNL     1       4.864   5.424  19.280  0.00  0.00    +0.000 C 
ATOM     18  C   UNL     1       3.379   5.382  19.505  0.00  0.00    +0.000 C 
ATOM     19  C   UNL     1       2.631   4.341  19.916  0.00  0.00    +0.000 C 
ATOM     20  N   UNL     1       1.271   4.416  20.201  0.00  0.00    +0.000 N 
ATOM     21  N   UNL     1       0.737   3.202  20.574  0.00  0.00    +0.000 NA
ATOM     22  C   UNL     1       1.785   2.424  20.560  0.00  0.00    +0.000 C 
ATOM     23  N   UNL     1       2.967   3.015  20.178  0.00  0.00    +0.000 N 
ATOM     24  C   UNL     1       4.085   2.256  19.677  0.00  0.00    +0.000 C 
ATOM     25  H   UNL     1       0.704   5.185  19.860  0.00  0.00    +0.000 HD
ENDBRANCH  11  18
ENDBRANCH   1  15
BRANCH   8  26
ATOM     26  C   UNL     1      -1.924  10.877  17.853  0.00  0.00    +0.000 C 
ATOM     27  F   UNL     1      -1.168   9.960  17.186  0.00  0.00    +0.000 F 
ATOM     28  F   UNL     1      -3.138  10.290  18.025  0.00  0.00    +0.000 F 
ATOM     29  F   UNL     1      -2.123  11.899  16.975  0.00  0.00    +0.000 F 
ENDBRANCH   8  26
BRANCH   6  30
ATOM     30  C   UNL     1      -0.127  14.694  20.639  0.00  0.00    +0.000 C 
BRANCH  30  31
ATOM     31  C   UNL     1       1.216  15.163  20.044  0.00  0.00    +0.000 C 
BRANCH  31  32
ATOM     32  N   UNL     1       1.033  15.762  18.715  0.00  0.00    +0.000 NA
ATOM     33  C   UNL     1       1.593  17.145  18.702  0.00  0.00    +0.000 C 
ATOM     34  C   UNL     1       0.342  17.572  17.914  0.00  0.00    +0.000 C 
ATOM     35  C   UNL     1      -0.326  16.365  18.595  0.00  0.00    +0.000 C 
ENDBRANCH  31  32
ENDBRANCH  30  31
ENDBRANCH   6  30
TORSDOF 6
ENDMDL
MODEL 4
REMARK VINA RESULT:      -8.1      5.206      8.423
REMARK  Name = 
REMARK  8 active torsions:
REMARK  status: ('A' for Active; 'I' for Inactive)
REMARK    1  A    between atoms: C_1  and  C_2
REMARK    2  A    between atoms: C_2  and  C_9
REMARK    3  A    between atoms: N_7  and  C_8
REMARK    4  A    between atoms: C_13  and  N_14
REMARK    5  A    between atoms: C_19  and  C_20
REMARK    6  A    between atoms: C_20  and  C_21
REMARK    7  A    between atoms: C_21  and  N_22
REMARK    8  A    between atoms: C_27  and  C_28
REMARK                            x       y       z     vdW  Elec       q    Type
REMARK                         _______ _______ _______ _____ _____    ______ ____
ROOT
ATOM      1  N   UNL     1       0.160  13.652  20.240  0.00  0.00    +0.000 N 
ATOM      2  C   UNL     1      -0.862  13.316  19.215  0.00  0.00    +0.000 C 
ATOM      3  C   UNL     1      -0.350  12.024  18.662  0.00  0.00    +0.000 A 
ATOM      4  C   UNL     1       1.032  12.015  18.846  0.00  0.00    +0.000 A 
ATOM      5  C   UNL     1       1.824  10.924  18.563  0.00  0.00    +0.000 A 
ATOM      6  C   UNL     1       1.202   9.755  18.099  0.00  0.00    +0.000 A 
ATOM      7  C   UNL     1      -0.204   9.760  17.906  0.00  0.00    +0.000 A 
ATOM      8  C   UNL     1      -1.006  10.891  18.193  0.00  0.00    +0.000 A 
ATOM      9  C   UNL     1       1.387  13.149  19.732  0.00  0.00    +0.000 C 
ATOM     10  O   UNL     1       2.519  13.410  20.083  0.00  0.00    +0.000 OA
ENDROOT
BRANCH   1  15
ATOM     11  C   UNL     1      -2.276  12.901  22.806  0.00  0.00    +0.000 A 
ATOM     12  C   UNL     1      -2.031  11.527  22.917  0.00  0.00    +0.000 A 
ATOM     13  C   UNL     1      -0.810  10.998  22.513  0.00  0.00    +0.000 A 
ATOM     14  C   UNL     1       0.122  11.819  21.888  0.00  0.00    +0.000 A 
ATOM     15  C   UNL     1      -0.239  13.132  21.542  0.00  0.00    +0.000 A 
ATOM     16  C   UNL     1      -1.350  13.720  22.156  0.00  0.00    +0.000 A 
BRANCH  11  18
ATOM     17  C   UNL     1      -3.411  14.195  24.603  0.00  0.00    +0.000 C 
ATOM     18  C   UNL     1      -3.552  13.446  23.308  0.00  0.00    +0.000 C 
ATOM     19  C   UNL     1      -4.650  13.316  22.540  0.00  0.00    +0.000 C 
ATOM     20  N   UNL     1      -4.669  12.690  21.297  0.00  0.00    +0.000 N 
ATOM     21  N   UNL     1      -5.926  12.665  20.733  0.00  0.00    +0.000 NA
ATOM     22  C   UNL     1      -6.636  13.317  21.613  0.00  0.00    +0.000 C 
ATOM     23  N   UNL     1      -5.961  13.747  22.731  0.00  0.00    +0.000 N 
ATOM     24  C   UNL     1      -6.632  14.061  23.967  0.00  0.00    +0.000 C 
ATOM     25  H   UNL     1      -3.926  12.060  21.014  0.00  0.00    +0.000 HD
ENDBRANCH  11  18
ENDBRANCH   1  15
BRANCH   8  26
ATOM     26  C   UNL     1      -2.505  10.790  18.067  0.00  0.00    +0.000 C 
ATOM     27  F   UNL     1      -3.033  11.531  17.054  0.00  0.00    +0.000 F 
ATOM     28  F   UNL     1      -2.913   9.514  17.834  0.00  0.00    +0.000 F 
ATOM     29  F   UNL     1      -3.155  11.190  19.195  0.00  0.00    +0.000 F 
ENDBRANCH   8  26
BRANCH   6  30
ATOM     30  C   UNL     1       1.992   8.494  17.794  0.00  0.00    +0.000 C 
BRANCH  30  31
ATOM     31  C   UNL     1       2.307   7.605  19.014  0.00  0.00    +0.000 C 
BRANCH  31  32
ATOM     32  N   UNL     1       2.506   6.204  18.617  0.00  0.00    +0.000 NA
ATOM     33  C   UNL     1       3.085   5.434  19.755  0.00  0.00    +0.000 C 
ATOM     34  C   UNL     1       4.022   4.762  18.735  0.00  0.00    +0.000 C 
ATOM     35  C   UNL     1       3.807   6.040  17.907  0.00  0.00    +0.000 C 
ENDBRANCH  31  32
ENDBRANCH  30  31
ENDBRANCH   6  30
TORSDOF 6
ENDMDL
MODEL 5
REMARK VINA RESULT:      -8.1      4.578      9.524
REMARK  Name = 
REMARK  8 active torsions:
REMARK  status: ('A' for Active; 'I' for Inactive)
REMARK    1  A    between atoms: C_1  and  C_2
REMARK    2  A    between atoms: C_2  and  C_9
REMARK    3  A    between atoms: N_7  and  C_8
REMARK    4  A    between atoms: C_13  and  N_14
REMARK    5  A    between atoms: C_19  and  C_20
REMARK    6  A    between atoms: C_20  and  C_21
REMARK    7  A    between atoms: C_21  and  N_22
REMARK    8  A    between atoms: C_27  and  C_28
REMARK                            x       y       z     vdW  Elec       q    Type
REMARK                         _______ _______ _______ _____ _____    ______ ____
ROOT
ATOM      1  N   UNL     1       0.045   9.193  20.898  0.00  0.00    +0.000 N 
ATOM      2  C   UNL     1      -1.128   9.239  19.987  0.00  0.00    +0.000 C 
ATOM      3  C   UNL     1      -1.129  10.666  19.537  0.00  0.00    +0.000 A 
ATOM      4  C   UNL     1      -0.516  11.416  20.540  0.00  0.00    +0.000 A 
ATOM      5  C   UNL     1      -0.233  12.758  20.413  0.00  0.00    +0.000 A 
ATOM      6  C   UNL     1      -0.549  13.392  19.202  0.00  0.00    +0.000 A 
ATOM      7  C   UNL     1      -1.178  12.635  18.180  0.00  0.00    +0.000 A 
ATOM      8  C   UNL     1      -1.471  11.257  18.326  0.00  0.00    +0.000 A 
ATOM      9  C   UNL     1       0.109  10.476  21.502  0.00  0.00    +0.000 C 
ATOM     10  O   UNL     1       0.724  10.822  22.489  0.00  0.00    +0.000 OA
ENDROOT
BRANCH   1  15
ATOM     11  C   UNL     1       2.209   6.731  19.365  0.00  0.00    +0.000 A 
ATOM     12  C   UNL     1       2.234   7.266  18.072  0.00  0.00    +0.000 A 
ATOM     13  C   UNL     1       1.947   8.611  17.864  0.00  0.00    +0.000 A 
ATOM     14  C   UNL     1       1.516   9.394  18.929  0.00  0.00    +0.000 A 
ATOM     15  C   UNL     1       1.238   8.785  20.164  0.00  0.00    +0.000 A 
ATOM     16  C   UNL     1       1.752   7.512  20.430  0.00  0.00    +0.000 A 
BRANCH  11  18
ATOM     17  C   UNL     1       1.458   4.465  20.068  0.00  0.00    +0.000 C 
ATOM     18  C   UNL     1       2.588   5.320  19.567  0.00  0.00    +0.000 C 
ATOM     19  C   UNL     1       3.824   4.930  19.201  0.00  0.00    +0.000 C 
ATOM     20  N   UNL     1       4.781   5.775  18.647  0.00  0.00    +0.000 N 
ATOM     21  N   UNL     1       5.973   5.134  18.391  0.00  0.00    +0.000 NA
ATOM     22  C   UNL     1       5.706   3.905  18.743  0.00  0.00    +0.000 C 
ATOM     23  N   UNL     1       4.444   3.684  19.242  0.00  0.00    +0.000 N 
ATOM     24  C   UNL     1       4.129   2.551  20.075  0.00  0.00    +0.000 C 
ATOM     25  H   UNL     1       4.706   6.783  18.733  0.00  0.00    +0.000 HD
ENDBRANCH  11  18
ENDBRANCH   1  15
BRANCH   8  26
ATOM     26  C   UNL     1      -2.041  10.491  17.158  0.00  0.00    +0.000 C 
ATOM     27  F   UNL     1      -1.238   9.491  16.700  0.00  0.00    +0.000 F 
ATOM     28  F   UNL     1      -3.224   9.895  17.466  0.00  0.00    +0.000 F 
ATOM     29  F   UNL     1      -2.292  11.286  16.081  0.00  0.00    +0.000 F 
ENDBRANCH   8  26
BRANCH   6  30
ATOM     30  C   UNL     1      -0.244  14.859  18.962  0.00  0.00    +0.000 C 
BRANCH  30  31
ATOM     31  C   UNL     1       1.186  15.302  19.332  0.00  0.00    +0.000 C 
BRANCH  31  32
ATOM     32  N   UNL     1       2.108  15.134  18.200  0.00  0.00    +0.000 NA
ATOM     33  C   UNL     1       3.166  14.143  18.552  0.00  0.00    +0.000 C 
ATOM     34  C   UNL     1       4.179  15.089  17.883  0.00  0.00    +0.000 C 
ATOM     35  C   UNL     1       3.159  16.191  18.219  0.00  0.00    +0.000 C 
ENDBRANCH  31  32
ENDBRANCH  30  31
ENDBRANCH   6  30
TORSDOF 6
ENDMDL
MODEL 6
REMARK VINA RESULT:      -8.1      4.596     10.009
REMARK  Name = 
REMARK  8 active torsions:
REMARK  status: ('A' for Active; 'I' for Inactive)
REMARK    1  A    between atoms: C_1  and  C_2
REMARK    2  A    between atoms: C_2  and  C_9
REMARK    3  A    between atoms: N_7  and  C_8
REMARK    4  A    between atoms: C_13  and  N_14
REMARK    5  A    between atoms: C_19  and  C_20
REMARK    6  A    between atoms: C_20  and  C_21
REMARK    7  A    between atoms: C_21  and  N_22
REMARK    8  A    between atoms: C_27  and  C_28
REMARK                            x       y       z     vdW  Elec       q    Type
REMARK                         _______ _______ _______ _____ _____    ______ ____
ROOT
ATOM      1  N   UNL     1       0.121   9.337  20.814  0.00  0.00    +0.000 N 
ATOM      2  C   UNL     1      -1.073   9.321  19.931  0.00  0.00    +0.000 C 
ATOM      3  C   UNL     1      -1.103  10.721  19.406  0.00  0.00    +0.000 A 
ATOM      4  C   UNL     1      -0.476  11.531  20.351  0.00  0.00    +0.000 A 
ATOM      5  C   UNL     1      -0.213  12.868  20.145  0.00  0.00    +0.000 A 
ATOM      6  C   UNL     1      -0.566  13.431  18.910  0.00  0.00    +0.000 A 
ATOM      7  C   UNL     1      -1.210  12.613  17.946  0.00  0.00    +0.000 A 
ATOM      8  C   UNL     1      -1.481  11.242  18.173  0.00  0.00    +0.000 A 
ATOM      9  C   UNL     1       0.183  10.652  21.347  0.00  0.00    +0.000 C 
ATOM     10  O   UNL     1       0.817  11.058  22.298  0.00  0.00    +0.000 OA
ENDROOT
BRANCH   1  15
ATOM     11  C   UNL     1       2.241   6.826  19.301  0.00  0.00    +0.000 A 
ATOM     12  C   UNL     1       2.259   7.340  17.998  0.00  0.00    +0.000 A 
ATOM     13  C   UNL     1       1.983   8.683  17.771  0.00  0.00    +0.000 A 
ATOM     14  C   UNL     1       1.573   9.489  18.827  0.00  0.00    +0.000 A 
ATOM     15  C   UNL     1       1.302   8.904  20.075  0.00  0.00    +0.000 A 
ATOM     16  C   UNL     1       1.805   7.630  20.357  0.00  0.00    +0.000 A 
BRANCH  11  18
ATOM     17  C   UNL     1       1.458   4.568  19.993  0.00  0.00    +0.000 C 
ATOM     18  C   UNL     1       2.607   5.414  19.522  0.00  0.00    +0.000 C 
ATOM     19  C   UNL     1       3.852   5.017  19.197  0.00  0.00    +0.000 C 
ATOM     20  N   UNL     1       4.830   5.854  18.667  0.00  0.00    +0.000 N 
ATOM     21  N   UNL     1       6.026   5.206  18.452  0.00  0.00    +0.000 NA
ATOM     22  C   UNL     1       5.742   3.981  18.803  0.00  0.00    +0.000 C 
ATOM     23  N   UNL     1       4.464   3.768  19.264  0.00  0.00    +0.000 N 
ATOM     24  C   UNL     1       4.119   2.641  20.093  0.00  0.00    +0.000 C 
ATOM     25  H   UNL     1       4.757   6.863  18.746  0.00  0.00    +0.000 HD
ENDBRANCH  11  18
ENDBRANCH   1  15
BRANCH   8  26
ATOM     26  C   UNL     1      -2.069  10.407  17.062  0.00  0.00    +0.000 C 
ATOM     27  F   UNL     1      -2.319  11.098  15.915  0.00  0.00    +0.000 F 
ATOM     28  F   UNL     1      -1.246   9.387  16.699  0.00  0.00    +0.000 F 
ATOM     29  F   UNL     1      -3.252   9.828  17.409  0.00  0.00    +0.000 F 
ENDBRANCH   8  26
BRANCH   6  30
ATOM     30  C   UNL     1      -0.286  14.887  18.584  0.00  0.00    +0.000 C 
BRANCH  30  31
ATOM     31  C   UNL     1       0.819  15.549  19.432  0.00  0.00    +0.000 C 
BRANCH  31  32
ATOM     32  N   UNL     1       0.999  16.961  19.067  0.00  0.00    +0.000 NA
ATOM     33  C   UNL     1      -0.038  17.363  18.074  0.00  0.00    +0.000 C 
ATOM     34  C   UNL     1       1.074  18.110  17.316  0.00  0.00    +0.000 C 
ATOM     35  C   UNL     1       2.017  17.096  17.985  0.00  0.00    +0.000 C 
ENDBRANCH  31  32
ENDBRANCH  30  31
ENDBRANCH   6  30
TORSDOF 6
ENDMDL
MODEL 7
REMARK VINA RESULT:      -8.1      4.960     10.192
REMARK  Name = 
REMARK  8 active torsions:
REMARK  status: ('A' for Active; 'I' for Inactive)
REMARK    1  A    between atoms: C_1  and  C_2
REMARK    2  A    between atoms: C_2  and  C_9
REMARK    3  A    between atoms: N_7  and  C_8
REMARK    4  A    between atoms: C_13  and  N_14
REMARK    5  A    between atoms: C_19  and  C_20
REMARK    6  A    between atoms: C_20  and  C_21
REMARK    7  A    between atoms: C_21  and  N_22
REMARK    8  A    between atoms: C_27  and  C_28
REMARK                            x       y       z     vdW  Elec       q    Type
REMARK                         _______ _______ _______ _____ _____    ______ ____
ROOT
ATOM      1  N   UNL     1       0.377   8.972  20.718  0.00  0.00    +0.000 N 
ATOM      2  C   UNL     1      -0.852   8.981  19.884  0.00  0.00    +0.000 C 
ATOM      3  C   UNL     1      -0.968  10.423  19.500  0.00  0.00    +0.000 A 
ATOM      4  C   UNL     1      -0.339  11.168  20.496  0.00  0.00    +0.000 A 
ATOM      5  C   UNL     1      -0.147  12.530  20.413  0.00  0.00    +0.000 A 
ATOM      6  C   UNL     1      -0.578  13.191  19.253  0.00  0.00    +0.000 A 
ATOM      7  C   UNL     1      -1.224  12.439  18.238  0.00  0.00    +0.000 A 
ATOM      8  C   UNL     1      -1.423  11.040  18.339  0.00  0.00    +0.000 A 
ATOM      9  C   UNL     1       0.402  10.230  21.375  0.00  0.00    +0.000 C 
ATOM     10  O   UNL     1       1.057  10.574  22.336  0.00  0.00    +0.000 OA
ENDROOT
BRANCH   1  15
ATOM     11  C   UNL     1       2.766   6.714  19.206  0.00  0.00    +0.000 A 
ATOM     12  C   UNL     1       2.572   7.084  17.870  0.00  0.00    +0.000 A 
ATOM     13  C   UNL     1       2.039   8.330  17.558  0.00  0.00    +0.000 A 
ATOM     14  C   UNL     1       1.589   9.160  18.578  0.00  0.00    +0.000 A 
ATOM     15  C   UNL     1       1.543   8.671  19.895  0.00  0.00    +0.000 A 
ATOM     16  C   UNL     1       2.291   7.538  20.230  0.00  0.00    +0.000 A 
BRANCH  11  18
ATOM     17  C   UNL     1       4.894   5.435  19.361  0.00  0.00    +0.000 C 
ATOM     18  C   UNL     1       3.399   5.416  19.508  0.00  0.00    +0.000 C 
ATOM     19  C   UNL     1       2.622   4.416  19.965  0.00  0.00    +0.000 C 
ATOM     20  N   UNL     1       1.249   4.519  20.169  0.00  0.00    +0.000 N 
ATOM     21  N   UNL     1       0.687   3.342  20.613  0.00  0.00    +0.000 NA
ATOM     22  C   UNL     1       1.729   2.563  20.722  0.00  0.00    +0.000 C 
ATOM     23  N   UNL     1       2.934   3.116  20.356  0.00  0.00    +0.000 N 
ATOM     24  C   UNL     1       4.072   2.314  19.982  0.00  0.00    +0.000 C 
ATOM     25  H   UNL     1       0.707   5.258  19.734  0.00  0.00    +0.000 HD
ENDBRANCH  11  18
ENDBRANCH   1  15
BRANCH   8  26
ATOM     26  C   UNL     1      -2.018  10.289  17.176  0.00  0.00    +0.000 C 
ATOM     27  F   UNL     1      -2.318  11.069  16.100  0.00  0.00    +0.000 F 
ATOM     28  F   UNL     1      -1.180   9.328  16.704  0.00  0.00    +0.000 F 
ATOM     29  F   UNL     1      -3.176   9.649  17.500  0.00  0.00    +0.000 F 
ENDBRANCH   8  26
BRANCH   6  30
ATOM     30  C   UNL     1      -0.378  14.684  19.061  0.00  0.00    +0.000 C 
BRANCH  30  31
ATOM     31  C   UNL     1      -0.551  15.539  20.333  0.00  0.00    +0.000 C 
BRANCH  31  32
ATOM     32  N   UNL     1      -0.790  16.950  20.000  0.00  0.00    +0.000 NA
ATOM     33  C   UNL     1      -2.257  17.206  19.909  0.00  0.00    +0.000 C 
ATOM     34  C   UNL     1      -1.964  18.045  18.652  0.00  0.00    +0.000 C 
ATOM     35  C   UNL     1      -0.711  17.161  18.526  0.00  0.00    +0.000 C 
ENDBRANCH  31  32
ENDBRANCH  30  31
ENDBRANCH   6  30
TORSDOF 6
ENDMDL
MODEL 8
REMARK VINA RESULT:      -8.0      5.078     11.243
REMARK  Name = 
REMARK  8 active torsions:
REMARK  status: ('A' for Active; 'I' for Inactive)
REMARK    1  A    between atoms: C_1  and  C_2
REMARK    2  A    between atoms: C_2  and  C_9
REMARK    3  A    between atoms: N_7  and  C_8
REMARK    4  A    between atoms: C_13  and  N_14
REMARK    5  A    between atoms: C_19  and  C_20
REMARK    6  A    between atoms: C_20  and  C_21
REMARK    7  A    between atoms: C_21  and  N_22
REMARK    8  A    between atoms: C_27  and  C_28
REMARK                            x       y       z     vdW  Elec       q    Type
REMARK                         _______ _______ _______ _____ _____    ______ ____
ROOT
ATOM      1  N   UNL     1      -0.384  11.579  19.383  0.00  0.00    +0.000 N 
ATOM      2  C   UNL     1      -0.494  12.616  20.442  0.00  0.00    +0.000 C 
ATOM      3  C   UNL     1      -1.975  12.731  20.625  0.00  0.00    +0.000 A 
ATOM      4  C   UNL     1      -2.571  12.356  19.422  0.00  0.00    +0.000 A 
ATOM      5  C   UNL     1      -3.933  12.226  19.263  0.00  0.00    +0.000 A 
ATOM      6  C   UNL     1      -4.756  12.452  20.377  0.00  0.00    +0.000 A 
ATOM      7  C   UNL     1      -4.155  12.839  21.602  0.00  0.00    +0.000 A 
ATOM      8  C   UNL     1      -2.753  12.977  21.751  0.00  0.00    +0.000 A 
ATOM      9  C   UNL     1      -1.526  11.756  18.557  0.00  0.00    +0.000 C 
ATOM     10  O   UNL     1      -1.732  11.326  17.442  0.00  0.00    +0.000 OA
ENDROOT
BRANCH   1  15
ATOM     11  C   UNL     1       1.332   8.437  19.901  0.00  0.00    +0.000 A 
ATOM     12  C   UNL     1       1.458   8.506  21.293  0.00  0.00    +0.000 A 
ATOM     13  C   UNL     1       0.600   9.310  22.035  0.00  0.00    +0.000 A 
ATOM     14  C   UNL     1      -0.306  10.136  21.381  0.00  0.00    +0.000 A 
ATOM     15  C   UNL     1      -0.243  10.257  19.982  0.00  0.00    +0.000 A 
ATOM     16  C   UNL     1       0.438   9.285  19.242  0.00  0.00    +0.000 A 
BRANCH  11  18
ATOM     17  C   UNL     1       2.849   8.165  17.947  0.00  0.00    +0.000 C 
ATOM     18  C   UNL     1       2.207   7.521  19.144  0.00  0.00    +0.000 C 
ATOM     19  C   UNL     1       2.418   6.285  19.634  0.00  0.00    +0.000 C 
ATOM     20  N   UNL     1       1.858   5.802  20.813  0.00  0.00    +0.000 N 
ATOM     21  N   UNL     1       2.209   4.496  21.073  0.00  0.00    +0.000 NA
ATOM     22  C   UNL     1       3.015   4.225  20.082  0.00  0.00    +0.000 C 
ATOM     23  N   UNL     1       3.203   5.234  19.167  0.00  0.00    +0.000 N 
ATOM     24  C   UNL     1       3.663   4.984  17.824  0.00  0.00    +0.000 C 
ATOM     25  H   UNL     1       1.049   6.249  21.232  0.00  0.00    +0.000 HD
ENDBRANCH  11  18
ENDBRANCH   1  15
BRANCH   8  26
ATOM     26  C   UNL     1      -2.177  13.286  23.110  0.00  0.00    +0.000 C 
ATOM     27  F   UNL     1      -1.161  12.461  23.487  0.00  0.00    +0.000 F 
ATOM     28  F   UNL     1      -1.667  14.544  23.175  0.00  0.00    +0.000 F 
ATOM     29  F   UNL     1      -3.105  13.207  24.104  0.00  0.00    +0.000 F 
ENDBRANCH   8  26
BRANCH   6  30
ATOM     30  C   UNL     1      -6.265  12.299  20.303  0.00  0.00    +0.000 C 
BRANCH  30  31
ATOM     31  C   UNL     1      -6.792  11.599  19.034  0.00  0.00    +0.000 C 
BRANCH  31  32
ATOM     32  N   UNL     1      -7.541  12.531  18.181  0.00  0.00    +0.000 NA
ATOM     33  C   UNL     1      -6.667  13.018  17.075  0.00  0.00    +0.000 C 
ATOM     34  C   UNL     1      -7.249  14.421  17.323  0.00  0.00    +0.000 C 
ATOM     35  C   UNL     1      -7.505  13.908  18.751  0.00  0.00    +0.000 C 
ENDBRANCH  31  32
ENDBRANCH  30  31
ENDBRANCH   6  30
TORSDOF 6
ENDMDL
MODEL 9
REMARK VINA RESULT:      -8.0      4.727     10.270
REMARK  Name = 
REMARK  8 active torsions:
REMARK  status: ('A' for Active; 'I' for Inactive)
REMARK    1  A    between atoms: C_1  and  C_2
REMARK    2  A    between atoms: C_2  and  C_9
REMARK    3  A    between atoms: N_7  and  C_8
REMARK    4  A    between atoms: C_13  and  N_14
REMARK    5  A    between atoms: C_19  and  C_20
REMARK    6  A    between atoms: C_20  and  C_21
REMARK    7  A    between atoms: C_21  and  N_22
REMARK    8  A    between atoms: C_27  and  C_28
REMARK                            x       y       z     vdW  Elec       q    Type
REMARK                         _______ _______ _______ _____ _____    ______ ____
ROOT
ATOM      1  N   UNL     1       0.625   8.397  21.123  0.00  0.00    +0.000 N 
ATOM      2  C   UNL     1      -0.622   8.627  20.349  0.00  0.00    +0.000 C 
ATOM      3  C   UNL     1      -0.668  10.119  20.249  0.00  0.00    +0.000 A 
ATOM      4  C   UNL     1       0.027  10.628  21.345  0.00  0.00    +0.000 A 
ATOM      5  C   UNL     1       0.292  11.970  21.514  0.00  0.00    +0.000 A 
ATOM      6  C   UNL     1      -0.130  12.860  20.516  0.00  0.00    +0.000 A 
ATOM      7  C   UNL     1      -0.842  12.348  19.400  0.00  0.00    +0.000 A 
ATOM      8  C   UNL     1      -1.115  10.968  19.242  0.00  0.00    +0.000 A 
ATOM      9  C   UNL     1       0.735   9.505  22.004  0.00  0.00    +0.000 C 
ATOM     10  O   UNL     1       1.432   9.626  22.990  0.00  0.00    +0.000 OA
ENDROOT
BRANCH   1  15
ATOM     11  C   UNL     1       2.861   6.351  19.149  0.00  0.00    +0.000 A 
ATOM     12  C   UNL     1       2.647   6.962  17.907  0.00  0.00    +0.000 A 
ATOM     13  C   UNL     1       2.165   8.264  17.842  0.00  0.00    +0.000 A 
ATOM     14  C   UNL     1       1.784   8.916  19.009  0.00  0.00    +0.000 A 
ATOM     15  C   UNL     1       1.752   8.201  20.219  0.00  0.00    +0.000 A 
ATOM     16  C   UNL     1       2.455   6.996  20.319  0.00  0.00    +0.000 A 
BRANCH  11  18
ATOM     17  C   UNL     1       4.942   4.990  19.260  0.00  0.00    +0.000 C 
ATOM     18  C   UNL     1       3.441   4.994  19.192  0.00  0.00    +0.000 C 
ATOM     19  C   UNL     1       2.604   3.942  19.267  0.00  0.00    +0.000 C 
ATOM     20  N   UNL     1       1.216   4.044  19.301  0.00  0.00    +0.000 N 
ATOM     21  N   UNL     1       0.593   2.817  19.348  0.00  0.00    +0.000 NA
ATOM     22  C   UNL     1       1.606   1.995  19.395  0.00  0.00    +0.000 C 
ATOM     23  N   UNL     1       2.853   2.575  19.351  0.00  0.00    +0.000 N 
ATOM     24  C   UNL     1       4.029   1.849  18.943  0.00  0.00    +0.000 C 
ATOM     25  H   UNL     1       0.743   4.891  19.000  0.00  0.00    +0.000 HD
ENDBRANCH  11  18
ENDBRANCH   1  15
BRANCH   8  26
ATOM     26  C   UNL     1      -1.780  10.482  17.978  0.00  0.00    +0.000 C 
ATOM     27  F   UNL     1      -2.906   9.745  18.187  0.00  0.00    +0.000 F 
ATOM     28  F   UNL     1      -2.163  11.510  17.174  0.00  0.00    +0.000 F 
ATOM     29  F   UNL     1      -0.962   9.700  17.221  0.00  0.00    +0.000 F 
ENDBRANCH   8  26
BRANCH   6  30
ATOM     30  C   UNL     1       0.147  14.351  20.602  0.00  0.00    +0.000 C 
BRANCH  30  31
ATOM     31  C   UNL     1       0.710  14.837  21.952  0.00  0.00    +0.000 C 
BRANCH  31  32
ATOM     32  N   UNL     1      -0.283  15.627  22.693  0.00  0.00    +0.000 NA
ATOM     33  C   UNL     1      -1.060  14.737  23.603  0.00  0.00    +0.000 C 
ATOM     34  C   UNL     1      -2.322  15.502  23.164  0.00  0.00    +0.000 C 
ATOM     35  C   UNL     1      -1.523  15.800  21.883  0.00  0.00    +0.000 C 
ENDBRANCH  31  32
ENDBRANCH  30  31
ENDBRANCH   6  30
TORSDOF 6
ENDMDL
