MODEL 1
REMARK VINA RESULT:      -7.6      0.000      0.000
REMARK  Name = 
REMARK  8 active torsions:
REMARK  status: ('A' for Active; 'I' for Inactive)
REMARK    1  A    between atoms: C_1  and  N_2
REMARK    2  A    between atoms: N_2  and  C_3
REMARK    3  A    between atoms: C_3  and  C_4
REMARK    4  A    between atoms: C_11  and  C_13
REMARK    5  A    between atoms: C_17  and  S_18
REMARK    6  A    between atoms: S_18  and  N_21
REMARK    7  A    between atoms: N_24  and  C_25
REMARK    8  A    between atoms: C_25  and  C_26
REMARK                            x       y       z     vdW  Elec       q    Type
REMARK                         _______ _______ _______ _____ _____    ______ ____
ROOT
ATOM      1  C   UNL     1       0.595  12.921  19.423  0.00  0.00    +0.000 A 
ATOM      2  C   UNL     1       0.274  14.044  18.663  0.00  0.00    +0.000 A 
ATOM      3  C   UNL     1      -0.069  15.248  19.266  0.00  0.00    +0.000 A 
ATOM      4  C   UNL     1      -0.329  15.275  20.624  0.00  0.00    +0.000 A 
ATOM      5  C   UNL     1      -0.307  14.074  21.345  0.00  0.00    +0.000 A 
ATOM      6  C   UNL     1       0.219  12.908  20.773  0.00  0.00    +0.000 A 
ENDROOT
BRANCH   1   9
ATOM      7  C   UNL     1       1.421   9.453  18.018  0.00  0.00    +0.000 C 
ATOM      8  N   UNL     1       0.666  10.477  18.728  0.00  0.00    +0.000 N 
ATOM      9  C   UNL     1       1.288  11.746  18.807  0.00  0.00    +0.000 C 
ATOM     10  O   UNL     1       2.398  11.951  18.326  0.00  0.00    +0.000 OA
BRANCH   8  11
ATOM     11  C   UNL     1      -0.704  10.107  19.141  0.00  0.00    +0.000 C 
BRANCH  11  12
ATOM     12  C   UNL     1      -1.797  10.471  18.143  0.00  0.00    +0.000 A 
ATOM     13  C   UNL     1      -2.770  11.433  18.491  0.00  0.00    +0.000 A 
ATOM     14  C   UNL     1      -3.847  11.715  17.640  0.00  0.00    +0.000 A 
ATOM     15  C   UNL     1      -3.946  11.076  16.410  0.00  0.00    +0.000 A 
ATOM     16  C   UNL     1      -2.964  10.165  16.038  0.00  0.00    +0.000 A 
ATOM     17  F   UNL     1      -3.055   9.553  14.852  0.00  0.00    +0.000 F 
ATOM     18  C   UNL     1      -1.899   9.863  16.886  0.00  0.00    +0.000 A 
ENDBRANCH  11  12
ENDBRANCH   8  11
ENDBRANCH   1   9
BRANCH   5  19
ATOM     19  S   UNL     1      -1.034  14.062  22.969  0.00  0.00    +0.000 S 
ATOM     20  O   UNL     1      -1.105  12.673  23.394  0.00  0.00    +0.000 OA
ATOM     21  O   UNL     1      -0.345  15.050  23.772  0.00  0.00    +0.000 OA
BRANCH  19  22
ATOM     22  N   UNL     1      -2.638  14.615  22.713  0.00  0.00    +0.000 NA
ATOM     23  C   UNL     1      -3.626  14.476  23.821  0.00  0.00    +0.000 C 
ATOM     24  C   UNL     1      -4.152  13.040  23.965  0.00  0.00    +0.000 C 
ATOM     25  N   UNL     1      -4.740  12.454  22.744  0.00  0.00    +0.000 NA
ATOM     26  C   UNL     1      -3.879  12.719  21.567  0.00  0.00    +0.000 C 
ATOM     27  C   UNL     1      -3.261  14.136  21.441  0.00  0.00    +0.000 C 
BRANCH  25  28
ATOM     28  C   UNL     1      -6.137  12.839  22.500  0.00  0.00    +0.000 C 
BRANCH  28  29
ATOM     29  C   UNL     1      -6.583  12.700  21.054  0.00  0.00    +0.000 A 
ATOM     30  C   UNL     1      -6.745  11.429  20.483  0.00  0.00    +0.000 A 
ATOM     31  C   UNL     1      -7.160  11.289  19.158  0.00  0.00    +0.000 A 
ATOM     32  C   UNL     1      -7.430  12.417  18.387  0.00  0.00    +0.000 A 
ATOM     33  C   UNL     1      -7.285  13.687  18.943  0.00  0.00    +0.000 A 
ATOM     34  C   UNL     1      -6.861  13.831  20.268  0.00  0.00    +0.000 A 
ENDBRANCH  28  29
ENDBRANCH  25  28
ENDBRANCH  19  22
ENDBRANCH   5  19
TORSDOF 7
ENDMDL
MODEL 2
REMARK VINA RESULT:      -7.4      4.859      7.337
REMARK  Name = 
REMARK  8 active torsions:
REMARK  status: ('A' for Active; 'I' for Inactive)
REMARK    1  A    between atoms: C_1  and  N_2
REMARK    2  A    between atoms: N_2  and  C_3
REMARK    3  A    between atoms: C_3  and  C_4
REMARK    4  A    between atoms: C_11  and  C_13
REMARK    5  A    between atoms: C_17  and  S_18
REMARK    6  A    between atoms: S_18  and  N_21
REMARK    7  A    between atoms: N_24  and  C_25
REMARK    8  A    between atoms: C_25  and  C_26
REMARK                            x       y       z     vdW  Elec       q    Type
REMARK                         _______ _______ _______ _____ _____    ______ ____
ROOT
ATOM      1  C   UNL     1       3.823   6.409  18.244  0.00  0.00    +0.000 A 
ATOM      2  C   UNL     1       3.644   6.049  19.578  0.00  0.00    +0.000 A 
ATOM      3  C   UNL     1       2.562   6.519  20.313  0.00  0.00    +0.000 A 
ATOM      4  C   UNL     1       1.786   7.541  19.795  0.00  0.00    +0.000 A 
ATOM      5  C   UNL     1       2.151   8.122  18.574  0.00  0.00    +0.000 A 
ATOM      6  C   UNL     1       3.121   7.522  17.760  0.00  0.00    +0.000 A 
ENDROOT
BRANCH   1   9
ATOM      7  C   UNL     1       5.376   3.851  15.850  0.00  0.00    +0.000 C 
ATOM      8  N   UNL     1       4.393   4.426  16.758  0.00  0.00    +0.000 N 
ATOM      9  C   UNL     1       4.765   5.652  17.361  0.00  0.00    +0.000 C 
ATOM     10  O   UNL     1       5.854   6.173  17.143  0.00  0.00    +0.000 OA
BRANCH   8  11
ATOM     11  C   UNL     1       3.084   3.742  16.820  0.00  0.00    +0.000 C 
BRANCH  11  12
ATOM     12  C   UNL     1       2.661   3.286  18.211  0.00  0.00    +0.000 A 
ATOM     13  C   UNL     1       1.313   3.414  18.610  0.00  0.00    +0.000 A 
ATOM     14  C   UNL     1       0.909   3.102  19.914  0.00  0.00    +0.000 A 
ATOM     15  C   UNL     1       1.835   2.613  20.829  0.00  0.00    +0.000 A 
ATOM     16  C   UNL     1       3.154   2.434  20.429  0.00  0.00    +0.000 A 
ATOM     17  F   UNL     1       4.045   1.958  21.306  0.00  0.00    +0.000 F 
ATOM     18  C   UNL     1       3.569   2.761  19.138  0.00  0.00    +0.000 A 
ENDBRANCH  11  12
ENDBRANCH   8  11
ENDBRANCH   1   9
BRANCH   5  19
ATOM     19  S   UNL     1       1.405   9.676  18.134  0.00  0.00    +0.000 S 
ATOM     20  O   UNL     1       2.434  10.475  17.488  0.00  0.00    +0.000 OA
ATOM     21  O   UNL     1       0.154   9.394  17.463  0.00  0.00    +0.000 OA
BRANCH  19  22
ATOM     22  N   UNL     1       1.042  10.408  19.642  0.00  0.00    +0.000 NA
ATOM     23  C   UNL     1      -0.251  10.073  20.305  0.00  0.00    +0.000 C 
ATOM     24  C   UNL     1      -1.445  10.803  19.672  0.00  0.00    +0.000 C 
ATOM     25  N   UNL     1      -1.328  12.273  19.604  0.00  0.00    +0.000 NA
ATOM     26  C   UNL     1       0.014  12.670  19.116  0.00  0.00    +0.000 C 
ATOM     27  C   UNL     1       1.234  11.891  19.672  0.00  0.00    +0.000 C 
BRANCH  25  28
ATOM     28  C   UNL     1      -1.687  12.966  20.848  0.00  0.00    +0.000 C 
BRANCH  28  29
ATOM     29  C   UNL     1      -3.169  12.931  21.181  0.00  0.00    +0.000 A 
ATOM     30  C   UNL     1      -4.124  12.881  20.154  0.00  0.00    +0.000 A 
ATOM     31  C   UNL     1      -5.487  12.842  20.448  0.00  0.00    +0.000 A 
ATOM     32  C   UNL     1      -5.918  12.842  21.773  0.00  0.00    +0.000 A 
ATOM     33  C   UNL     1      -4.982  12.881  22.805  0.00  0.00    +0.000 A 
ATOM     34  C   UNL     1      -3.615  12.928  22.513  0.00  0.00    +0.000 A 
ENDBRANCH  28  29
ENDBRANCH  25  28
ENDBRANCH  19  22
ENDBRANCH   5  19
TORSDOF 7
ENDMDL
MODEL 3
REMARK VINA RESULT:      -7.4      5.691     10.670
REMARK  Name = 
REMARK  8 active torsions:
REMARK  status: ('A' for Active; 'I' for Inactive)
REMARK    1  A    between atoms: C_1  and  N_2
REMARK    2  A    between atoms: N_2  and  C_3
REMARK    3  A    between atoms: C_3  and  C_4
REMARK    4  A    between atoms: C_11  and  C_13
REMARK    5  A    between atoms: C_17  and  S_18
REMARK    6  A    between atoms: S_18  and  N_21
REMARK    7  A    between atoms: N_24  and  C_25
REMARK    8  A    between atoms: C_25  and  C_26
REMARK                            x       y       z     vdW  Elec       q    Type
REMARK                         _______ _______ _______ _____ _____    ______ ____
ROOT
ATOM      1  C   UNL     1       1.225   9.060  20.364  0.00  0.00    +0.000 A 
ATOM      2  C   UNL     1       1.704   9.750  19.253  0.00  0.00    +0.000 A 
ATOM      3  C   UNL     1       2.113   9.077  18.108  0.00  0.00    +0.000 A 
ATOM      4  C   UNL     1       2.274   7.704  18.152  0.00  0.00    +0.000 A 
ATOM      5  C   UNL     1       2.086   7.035  19.368  0.00  0.00    +0.000 A 
ATOM      6  C   UNL     1       1.497   7.688  20.459  0.00  0.00    +0.000 A 
ENDROOT
BRANCH   1   9
ATOM      7  C   UNL     1      -0.982  11.508  22.319  0.00  0.00    +0.000 C 
ATOM      8  N   UNL     1      -0.216  10.982  21.197  0.00  0.00    +0.000 N 
ATOM      9  C   UNL     1       0.472   9.770  21.446  0.00  0.00    +0.000 C 
ATOM     10  O   UNL     1       0.436   9.222  22.543  0.00  0.00    +0.000 OA
BRANCH   8  11
ATOM     11  C   UNL     1      -0.373  11.692  19.911  0.00  0.00    +0.000 C 
BRANCH  11  12
ATOM     12  C   UNL     1      -1.617  11.315  19.115  0.00  0.00    +0.000 A 
ATOM     13  C   UNL     1      -1.546  10.284  18.153  0.00  0.00    +0.000 A 
ATOM     14  C   UNL     1      -2.641   9.981  17.333  0.00  0.00    +0.000 A 
ATOM     15  C   UNL     1      -3.837  10.671  17.489  0.00  0.00    +0.000 A 
ATOM     16  C   UNL     1      -3.931  11.652  18.469  0.00  0.00    +0.000 A 
ATOM     17  F   UNL     1      -5.084  12.313  18.626  0.00  0.00    +0.000 F 
ATOM     18  C   UNL     1      -2.841  11.974  19.278  0.00  0.00    +0.000 A 
ENDBRANCH  11  12
ENDBRANCH   8  11
ENDBRANCH   1   9
BRANCH   5  19
ATOM     19  S   UNL     1       2.688   5.366  19.504  0.00  0.00    +0.000 S 
ATOM     20  O   UNL     1       2.597   4.993  20.906  0.00  0.00    +0.000 OA
ATOM     21  O   UNL     1       2.037   4.574  18.482  0.00  0.00    +0.000 OA
BRANCH  19  22
ATOM     22  N   UNL     1       4.351   5.486  19.099  0.00  0.00    +0.000 NA
ATOM     23  C   UNL     1       4.738   6.282  17.899  0.00  0.00    +0.000 C 
ATOM     24  C   UNL     1       4.480   5.530  16.585  0.00  0.00    +0.000 C 
ATOM     25  N   UNL     1       5.111   4.199  16.480  0.00  0.00    +0.000 NA
ATOM     26  C   UNL     1       4.909   3.423  17.727  0.00  0.00    +0.000 C 
ATOM     27  C   UNL     1       5.077   4.179  19.071  0.00  0.00    +0.000 C 
BRANCH  25  28
ATOM     28  C   UNL     1       6.522   4.230  16.075  0.00  0.00    +0.000 C 
BRANCH  28  29
ATOM     29  C   UNL     1       6.743   4.271  14.572  0.00  0.00    +0.000 A 
ATOM     30  C   UNL     1       6.136   3.316  13.742  0.00  0.00    +0.000 A 
ATOM     31  C   UNL     1       6.327   3.347  12.360  0.00  0.00    +0.000 A 
ATOM     32  C   UNL     1       7.119   4.338  11.785  0.00  0.00    +0.000 A 
ATOM     33  C   UNL     1       7.721   5.300  12.594  0.00  0.00    +0.000 A 
ATOM     34  C   UNL     1       7.538   5.267  13.980  0.00  0.00    +0.000 A 
ENDBRANCH  28  29
ENDBRANCH  25  28
ENDBRANCH  19  22
ENDBRANCH   5  19
TORSDOF 7
ENDMDL
MODEL 4
REMARK VINA RESULT:      -7.3      4.580      6.936
REMARK  Name = 
REMARK  8 active torsions:
REMARK  status: ('A' for Active; 'I' for Inactive)
REMARK    1  A    between atoms: C_1  and  N_2
REMARK    2  A    between atoms: N_2  and  C_3
REMARK    3  A    between atoms: C_3  and  C_4
REMARK    4  A    between atoms: C_11  and  C_13
REMARK    5  A    between atoms: C_17  and  S_18
REMARK    6  A    between atoms: S_18  and  N_21
REMARK    7  A    between atoms: N_24  and  C_25
REMARK    8  A    between atoms: C_25  and  C_26
REMARK                            x       y       z     vdW  Elec       q    Type
REMARK                         _______ _______ _______ _____ _____    ______ ____
ROOT
ATOM      1  C   UNL     1       2.849   7.238  18.732  0.00  0.00    +0.000 A 
ATOM      2  C   UNL     1       2.632   6.791  20.034  0.00  0.00    +0.000 A 
ATOM      3  C   UNL     1       1.603   7.308  20.811  0.00  0.00    +0.000 A 
ATOM      4  C   UNL     1       0.937   8.442  20.384  0.00  0.00    +0.000 A 
ATOM      5  C   UNL     1       1.362   9.081  19.212  0.00  0.00    +0.000 A 
ATOM      6  C   UNL     1       2.267   8.453  18.345  0.00  0.00    +0.000 A 
ENDROOT
BRANCH   1   9
ATOM      7  C   UNL     1       4.251   4.555  16.383  0.00  0.00    +0.000 C 
ATOM      8  N   UNL     1       3.372   5.149  17.381  0.00  0.00    +0.000 N 
ATOM      9  C   UNL     1       3.711   6.463  17.784  0.00  0.00    +0.000 C 
ATOM     10  O   UNL     1       4.694   7.042  17.334  0.00  0.00    +0.000 OA
BRANCH   8  11
ATOM     11  C   UNL     1       2.165   4.372  17.731  0.00  0.00    +0.000 C 
BRANCH  11  12
ATOM     12  C   UNL     1       2.235   3.639  19.065  0.00  0.00    +0.000 A 
ATOM     13  C   UNL     1       1.097   3.592  19.899  0.00  0.00    +0.000 A 
ATOM     14  C   UNL     1       1.156   3.017  21.175  0.00  0.00    +0.000 A 
ATOM     15  C   UNL     1       2.339   2.441  21.623  0.00  0.00    +0.000 A 
ATOM     16  C   UNL     1       3.450   2.438  20.788  0.00  0.00    +0.000 A 
ATOM     17  F   UNL     1       4.588   1.877  21.214  0.00  0.00    +0.000 F 
ATOM     18  C   UNL     1       3.406   3.024  19.523  0.00  0.00    +0.000 A 
ENDBRANCH  11  12
ENDBRANCH   8  11
ENDBRANCH   1   9
BRANCH   5  19
ATOM     19  S   UNL     1       0.781  10.734  18.903  0.00  0.00    +0.000 S 
ATOM     20  O   UNL     1       1.879  11.466  18.295  0.00  0.00    +0.000 OA
ATOM     21  O   UNL     1      -0.503  10.638  18.243  0.00  0.00    +0.000 OA
BRANCH  19  22
ATOM     22  N   UNL     1       0.520  11.385  20.470  0.00  0.00    +0.000 NA
ATOM     23  C   UNL     1      -0.827  11.237  21.089  0.00  0.00    +0.000 C 
ATOM     24  C   UNL     1      -1.851  12.228  20.516  0.00  0.00    +0.000 C 
ATOM     25  N   UNL     1      -1.465  13.652  20.584  0.00  0.00    +0.000 NA
ATOM     26  C   UNL     1      -0.061  13.835  20.144  0.00  0.00    +0.000 C 
ATOM     27  C   UNL     1       0.981  12.798  20.636  0.00  0.00    +0.000 C 
BRANCH  25  28
ATOM     28  C   UNL     1      -1.721  14.286  21.883  0.00  0.00    +0.000 C 
BRANCH  28  29
ATOM     29  C   UNL     1      -3.004  13.834  22.561  0.00  0.00    +0.000 A 
ATOM     30  C   UNL     1      -4.250  14.220  22.044  0.00  0.00    +0.000 A 
ATOM     31  C   UNL     1      -5.435  13.807  22.655  0.00  0.00    +0.000 A 
ATOM     32  C   UNL     1      -5.393  12.993  23.785  0.00  0.00    +0.000 A 
ATOM     33  C   UNL     1      -4.163  12.593  24.304  0.00  0.00    +0.000 A 
ATOM     34  C   UNL     1      -2.974  13.012  23.699  0.00  0.00    +0.000 A 
ENDBRANCH  28  29
ENDBRANCH  25  28
ENDBRANCH  19  22
ENDBRANCH   5  19
TORSDOF 7
ENDMDL
MODEL 5
REMARK VINA RESULT:      -7.3      5.497     10.493
REMARK  Name = 
REMARK  8 active torsions:
REMARK  status: ('A' for Active; 'I' for Inactive)
REMARK    1  A    between atoms: C_1  and  N_2
REMARK    2  A    between atoms: N_2  and  C_3
REMARK    3  A    between atoms: C_3  and  C_4
REMARK    4  A    between atoms: C_11  and  C_13
REMARK    5  A    between atoms: C_17  and  S_18
REMARK    6  A    between atoms: S_18  and  N_21
REMARK    7  A    between atoms: N_24  and  C_25
REMARK    8  A    between atoms: C_25  and  C_26
REMARK                            x       y       z     vdW  Elec       q    Type
REMARK                         _______ _______ _______ _____ _____    ______ ____
ROOT
ATOM      1  C   UNL     1       1.120   9.618  19.856  0.00  0.00    +0.000 A 
ATOM      2  C   UNL     1       0.707   9.447  21.175  0.00  0.00    +0.000 A 
ATOM      3  C   UNL     1       1.195   8.404  21.954  0.00  0.00    +0.000 A 
ATOM      4  C   UNL     1       1.912   7.387  21.349  0.00  0.00    +0.000 A 
ATOM      5  C   UNL     1       2.069   7.398  19.957  0.00  0.00    +0.000 A 
ATOM      6  C   UNL     1       1.740   8.538  19.211  0.00  0.00    +0.000 A 
ENDROOT
BRANCH   1   9
ATOM      7  C   UNL     1      -0.514  12.579  18.055  0.00  0.00    +0.000 C 
ATOM      8  N   UNL     1      -0.408  11.255  18.654  0.00  0.00    +0.000 N 
ATOM      9  C   UNL     1       0.877  10.907  19.133  0.00  0.00    +0.000 C 
ATOM     10  O   UNL     1       1.834  11.667  19.026  0.00  0.00    +0.000 OA
BRANCH   8  11
ATOM     11  C   UNL     1      -1.674  10.511  18.817  0.00  0.00    +0.000 C 
BRANCH  11  12
ATOM     12  C   UNL     1      -2.634  10.606  17.637  0.00  0.00    +0.000 A 
ATOM     13  C   UNL     1      -2.361   9.887  16.454  0.00  0.00    +0.000 A 
ATOM     14  C   UNL     1      -3.164  10.031  15.315  0.00  0.00    +0.000 A 
ATOM     15  C   UNL     1      -4.279  10.861  15.353  0.00  0.00    +0.000 A 
ATOM     16  C   UNL     1      -4.584  11.533  16.531  0.00  0.00    +0.000 A 
ATOM     17  F   UNL     1      -5.660  12.328  16.572  0.00  0.00    +0.000 F 
ATOM     18  C   UNL     1      -3.779  11.410  17.664  0.00  0.00    +0.000 A 
ENDBRANCH  11  12
ENDBRANCH   8  11
ENDBRANCH   1   9
BRANCH   5  19
ATOM     19  S   UNL     1       2.620   5.902  19.167  0.00  0.00    +0.000 S 
ATOM     20  O   UNL     1       2.706   4.881  20.198  0.00  0.00    +0.000 OA
ATOM     21  O   UNL     1       1.809   5.698  17.986  0.00  0.00    +0.000 OA
BRANCH  19  22
ATOM     22  N   UNL     1       4.217   6.265  18.654  0.00  0.00    +0.000 NA
ATOM     23  C   UNL     1       4.441   6.637  17.228  0.00  0.00    +0.000 C 
ATOM     24  C   UNL     1       4.425   5.420  16.291  0.00  0.00    +0.000 C 
ATOM     25  N   UNL     1       5.367   4.337  16.640  0.00  0.00    +0.000 NA
ATOM     26  C   UNL     1       5.315   4.045  18.093  0.00  0.00    +0.000 C 
ATOM     27  C   UNL     1       5.242   5.254  19.060  0.00  0.00    +0.000 C 
BRANCH  25  28
ATOM     28  C   UNL     1       6.742   4.558  16.174  0.00  0.00    +0.000 C 
BRANCH  28  29
ATOM     29  C   UNL     1       6.907   4.512  14.663  0.00  0.00    +0.000 A 
ATOM     30  C   UNL     1       6.157   3.607  13.898  0.00  0.00    +0.000 A 
ATOM     31  C   UNL     1       6.296   3.560  12.510  0.00  0.00    +0.000 A 
ATOM     32  C   UNL     1       7.180   4.422  11.865  0.00  0.00    +0.000 A 
ATOM     33  C   UNL     1       7.925   5.334  12.611  0.00  0.00    +0.000 A 
ATOM     34  C   UNL     1       7.793   5.379  14.002  0.00  0.00    +0.000 A 
ENDBRANCH  28  29
ENDBRANCH  25  28
ENDBRANCH  19  22
ENDBRANCH   5  19
TORSDOF 7
ENDMDL
MODEL 6
REMARK VINA RESULT:      -7.1      4.961      8.336
REMARK  Name = 
REMARK  8 active torsions:
REMARK  status: ('A' for Active; 'I' for Inactive)
REMARK    1  A    between atoms: C_1  and  N_2
REMARK    2  A    between atoms: N_2  and  C_3
REMARK    3  A    between atoms: C_3  and  C_4
REMARK    4  A    between atoms: C_11  and  C_13
REMARK    5  A    between atoms: C_17  and  S_18
REMARK    6  A    between atoms: S_18  and  N_21
REMARK    7  A    between atoms: N_24  and  C_25
REMARK    8  A    between atoms: C_25  and  C_26
REMARK                            x       y       z     vdW  Elec       q    Type
REMARK                         _______ _______ _______ _____ _____    ______ ____
ROOT
ATOM      1  C   UNL     1       2.158   5.834  19.301  0.00  0.00    +0.000 A 
ATOM      2  C   UNL     1       2.376   6.425  18.059  0.00  0.00    +0.000 A 
ATOM      3  C   UNL     1       2.459   7.805  17.922  0.00  0.00    +0.000 A 
ATOM      4  C   UNL     1       2.086   8.614  18.980  0.00  0.00    +0.000 A 
ATOM      5  C   UNL     1       1.568   8.022  20.140  0.00  0.00    +0.000 A 
ATOM      6  C   UNL     1       1.664   6.638  20.338  0.00  0.00    +0.000 A 
ENDROOT
BRANCH   1   9
ATOM      7  C   UNL     1       3.803   2.438  19.966  0.00  0.00    +0.000 C 
ATOM      8  N   UNL     1       3.718   3.862  19.671  0.00  0.00    +0.000 N 
ATOM      9  C   UNL     1       2.408   4.373  19.515  0.00  0.00    +0.000 C 
ATOM     10  O   UNL     1       1.419   3.652  19.602  0.00  0.00    +0.000 OA
BRANCH   8  11
ATOM     11  C   UNL     1       4.990   4.613  19.719  0.00  0.00    +0.000 C 
BRANCH  11  12
ATOM     12  C   UNL     1       5.588   4.953  18.359  0.00  0.00    +0.000 A 
ATOM     13  C   UNL     1       5.260   4.167  17.234  0.00  0.00    +0.000 A 
ATOM     14  C   UNL     1       5.870   4.386  15.992  0.00  0.00    +0.000 A 
ATOM     15  C   UNL     1       6.784   5.423  15.841  0.00  0.00    +0.000 A 
ATOM     16  C   UNL     1       7.073   6.235  16.931  0.00  0.00    +0.000 A 
ATOM     17  F   UNL     1       7.947   7.238  16.787  0.00  0.00    +0.000 F 
ATOM     18  C   UNL     1       6.485   6.012  18.177  0.00  0.00    +0.000 A 
ENDBRANCH  11  12
ENDBRANCH   8  11
ENDBRANCH   1   9
BRANCH   5  19
ATOM     19  S   UNL     1       0.724   9.068  21.305  0.00  0.00    +0.000 S 
ATOM     20  O   UNL     1      -0.417   8.317  21.803  0.00  0.00    +0.000 OA
ATOM     21  O   UNL     1       1.711   9.609  22.214  0.00  0.00    +0.000 OA
BRANCH  19  22
ATOM     22  N   UNL     1       0.124  10.361  20.348  0.00  0.00    +0.000 NA
ATOM     23  C   UNL     1       1.095  11.338  19.780  0.00  0.00    +0.000 C 
ATOM     24  C   UNL     1       1.592  12.350  20.823  0.00  0.00    +0.000 C 
ATOM     25  N   UNL     1       0.537  13.104  21.529  0.00  0.00    +0.000 NA
ATOM     26  C   UNL     1      -0.553  12.199  21.965  0.00  0.00    +0.000 C 
ATOM     27  C   UNL     1      -1.016  11.108  20.965  0.00  0.00    +0.000 C 
BRANCH  25  28
ATOM     28  C   UNL     1       0.023  14.264  20.788  0.00  0.00    +0.000 C 
BRANCH  28  29
ATOM     29  C   UNL     1       1.099  15.201  20.263  0.00  0.00    +0.000 A 
ATOM     30  C   UNL     1       1.902  15.926  21.157  0.00  0.00    +0.000 A 
ATOM     31  C   UNL     1       2.896  16.785  20.687  0.00  0.00    +0.000 A 
ATOM     32  C   UNL     1       3.111  16.923  19.317  0.00  0.00    +0.000 A 
ATOM     33  C   UNL     1       2.330  16.201  18.417  0.00  0.00    +0.000 A 
ATOM     34  C   UNL     1       1.327  15.346  18.885  0.00  0.00    +0.000 A 
ENDBRANCH  28  29
ENDBRANCH  25  28
ENDBRANCH  19  22
ENDBRANCH   5  19
TORSDOF 7
ENDMDL
MODEL 7
REMARK VINA RESULT:      -7.0      4.914      8.184
REMARK  Name = 
REMARK  8 active torsions:
REMARK  status: ('A' for Active; 'I' for Inactive)
REMARK    1  A    between atoms: C_1  and  N_2
REMARK    2  A    between atoms: N_2  and  C_3
REMARK    3  A    between atoms: C_3  and  C_4
REMARK    4  A    between atoms: C_11  and  C_13
REMARK    5  A    between atoms: C_17  and  S_18
REMARK    6  A    between atoms: S_18  and  N_21
REMARK    7  A    between atoms: N_24  and  C_25
REMARK    8  A    between atoms: C_25  and  C_26
REMARK                            x       y       z     vdW  Elec       q    Type
REMARK                         _______ _______ _______ _____ _____    ______ ____
ROOT
ATOM      1  C   UNL     1       2.345   6.124  19.572  0.00  0.00    +0.000 A 
ATOM      2  C   UNL     1       2.369   6.468  18.222  0.00  0.00    +0.000 A 
ATOM      3  C   UNL     1       2.253   7.792  17.814  0.00  0.00    +0.000 A 
ATOM      4  C   UNL     1       1.871   8.752  18.733  0.00  0.00    +0.000 A 
ATOM      5  C   UNL     1       1.544   8.356  20.037  0.00  0.00    +0.000 A 
ATOM      6  C   UNL     1       1.843   7.062  20.485  0.00  0.00    +0.000 A 
ENDROOT
BRANCH   1   9
ATOM      7  C   UNL     1       4.147   2.756  19.880  0.00  0.00    +0.000 C 
ATOM      8  N   UNL     1       3.711   4.002  19.264  0.00  0.00    +0.000 N 
ATOM      9  C   UNL     1       2.808   4.776  20.032  0.00  0.00    +0.000 C 
ATOM     10  O   UNL     1       2.409   4.402  21.130  0.00  0.00    +0.000 OA
BRANCH   8  11
ATOM     11  C   UNL     1       4.374   4.368  17.995  0.00  0.00    +0.000 C 
BRANCH  11  12
ATOM     12  C   UNL     1       5.594   5.270  18.144  0.00  0.00    +0.000 A 
ATOM     13  C   UNL     1       5.744   6.390  17.298  0.00  0.00    +0.000 A 
ATOM     14  C   UNL     1       6.900   7.180  17.337  0.00  0.00    +0.000 A 
ATOM     15  C   UNL     1       7.906   6.892  18.252  0.00  0.00    +0.000 A 
ATOM     16  C   UNL     1       7.744   5.822  19.125  0.00  0.00    +0.000 A 
ATOM     17  F   UNL     1       8.708   5.547  20.011  0.00  0.00    +0.000 F 
ATOM     18  C   UNL     1       6.604   5.019  19.080  0.00  0.00    +0.000 A 
ENDBRANCH  11  12
ENDBRANCH   8  11
ENDBRANCH   1   9
BRANCH   5  19
ATOM     19  S   UNL     1       0.675   9.515  21.069  0.00  0.00    +0.000 S 
ATOM     20  O   UNL     1      -0.529   8.849  21.539  0.00  0.00    +0.000 OA
ATOM     21  O   UNL     1       1.625  10.077  22.004  0.00  0.00    +0.000 OA
BRANCH  19  22
ATOM     22  N   UNL     1       0.198  10.761  19.989  0.00  0.00    +0.000 NA
ATOM     23  C   UNL     1       1.079  11.954  19.842  0.00  0.00    +0.000 C 
ATOM     24  C   UNL     1       0.947  12.933  21.018  0.00  0.00    +0.000 C 
ATOM     25  N   UNL     1      -0.424  13.403  21.302  0.00  0.00    +0.000 NA
ATOM     26  C   UNL     1      -1.381  12.271  21.284  0.00  0.00    +0.000 C 
ATOM     27  C   UNL     1      -1.216  11.217  20.158  0.00  0.00    +0.000 C 
BRANCH  25  28
ATOM     28  C   UNL     1      -0.871  14.513  20.452  0.00  0.00    +0.000 C 
BRANCH  28  29
ATOM     29  C   UNL     1       0.164  15.608  20.252  0.00  0.00    +0.000 A 
ATOM     30  C   UNL     1       0.515  16.452  21.316  0.00  0.00    +0.000 A 
ATOM     31  C   UNL     1       1.468  17.457  21.146  0.00  0.00    +0.000 A 
ATOM     32  C   UNL     1       2.093  17.627  19.913  0.00  0.00    +0.000 A 
ATOM     33  C   UNL     1       1.764  16.790  18.848  0.00  0.00    +0.000 A 
ATOM     34  C   UNL     1       0.803  15.787  19.014  0.00  0.00    +0.000 A 
ENDBRANCH  28  29
ENDBRANCH  25  28
ENDBRANCH  19  22
ENDBRANCH   5  19
TORSDOF 7
ENDMDL
MODEL 8
REMARK VINA RESULT:      -7.0      4.869      7.538
REMARK  Name = 
REMARK  8 active torsions:
REMARK  status: ('A' for Active; 'I' for Inactive)
REMARK    1  A    between atoms: C_1  and  N_2
REMARK    2  A    between atoms: N_2  and  C_3
REMARK    3  A    between atoms: C_3  and  C_4
REMARK    4  A    between atoms: C_11  and  C_13
REMARK    5  A    between atoms: C_17  and  S_18
REMARK    6  A    between atoms: S_18  and  N_21
REMARK    7  A    between atoms: N_24  and  C_25
REMARK    8  A    between atoms: C_25  and  C_26
REMARK                            x       y       z     vdW  Elec       q    Type
REMARK                         _______ _______ _______ _____ _____    ______ ____
ROOT
ATOM      1  C   UNL     1       3.755   6.511  18.274  0.00  0.00    +0.000 A 
ATOM      2  C   UNL     1       3.605   6.143  19.610  0.00  0.00    +0.000 A 
ATOM      3  C   UNL     1       2.526   6.590  20.363  0.00  0.00    +0.000 A 
ATOM      4  C   UNL     1       1.721   7.597  19.861  0.00  0.00    +0.000 A 
ATOM      5  C   UNL     1       2.055   8.190  18.637  0.00  0.00    +0.000 A 
ATOM      6  C   UNL     1       3.024   7.611  17.805  0.00  0.00    +0.000 A 
ENDROOT
BRANCH   1   9
ATOM      7  C   UNL     1       5.318   3.996  15.842  0.00  0.00    +0.000 C 
ATOM      8  N   UNL     1       4.337   4.548  16.767  0.00  0.00    +0.000 N 
ATOM      9  C   UNL     1       4.698   5.775  17.374  0.00  0.00    +0.000 C 
ATOM     10  O   UNL     1       5.776   6.315  17.146  0.00  0.00    +0.000 OA
BRANCH   8  11
ATOM     11  C   UNL     1       3.041   3.843  16.840  0.00  0.00    +0.000 C 
BRANCH  11  12
ATOM     12  C   UNL     1       2.647   3.363  18.232  0.00  0.00    +0.000 A 
ATOM     13  C   UNL     1       1.307   3.486  18.661  0.00  0.00    +0.000 A 
ATOM     14  C   UNL     1       0.931   3.152  19.968  0.00  0.00    +0.000 A 
ATOM     15  C   UNL     1       1.875   2.647  20.855  0.00  0.00    +0.000 A 
ATOM     16  C   UNL     1       3.185   2.474  20.424  0.00  0.00    +0.000 A 
ATOM     17  F   UNL     1       4.094   1.981  21.274  0.00  0.00    +0.000 F 
ATOM     18  C   UNL     1       3.574   2.821  19.130  0.00  0.00    +0.000 A 
ENDBRANCH  11  12
ENDBRANCH   8  11
ENDBRANCH   1   9
BRANCH   5  19
ATOM     19  S   UNL     1       1.272   9.730  18.213  0.00  0.00    +0.000 S 
ATOM     20  O   UNL     1       2.278  10.556  17.564  0.00  0.00    +0.000 OA
ATOM     21  O   UNL     1       0.022   9.425  17.551  0.00  0.00    +0.000 OA
BRANCH  19  22
ATOM     22  N   UNL     1       0.906  10.444  19.730  0.00  0.00    +0.000 NA
ATOM     23  C   UNL     1      -0.502  10.401  20.218  0.00  0.00    +0.000 C 
ATOM     24  C   UNL     1      -1.400  11.435  19.523  0.00  0.00    +0.000 C 
ATOM     25  N   UNL     1      -0.929  12.833  19.592  0.00  0.00    +0.000 NA
ATOM     26  C   UNL     1       0.519  12.915  19.288  0.00  0.00    +0.000 C 
ATOM     27  C   UNL     1       1.439  11.830  19.905  0.00  0.00    +0.000 C 
BRANCH  25  28
ATOM     28  C   UNL     1      -1.267  13.523  20.844  0.00  0.00    +0.000 C 
BRANCH  28  29
ATOM     29  C   UNL     1      -2.017  14.832  20.658  0.00  0.00    +0.000 A 
ATOM     30  C   UNL     1      -3.381  14.916  20.977  0.00  0.00    +0.000 A 
ATOM     31  C   UNL     1      -4.078  16.114  20.815  0.00  0.00    +0.000 A 
ATOM     32  C   UNL     1      -3.422  17.248  20.342  0.00  0.00    +0.000 A 
ATOM     33  C   UNL     1      -2.065  17.183  20.031  0.00  0.00    +0.000 A 
ATOM     34  C   UNL     1      -1.365  15.982  20.184  0.00  0.00    +0.000 A 
ENDBRANCH  28  29
ENDBRANCH  25  28
ENDBRANCH  19  22
ENDBRANCH   5  19
TORSDOF 7
ENDMDL
MODEL 9
REMARK VINA RESULT:      -7.0      4.962      8.346
REMARK  Name = 
REMARK  8 active torsions:
REMARK  status: ('A' for Active; 'I' for Inactive)
REMARK    1  A    between atoms: C_1  and  N_2
REMARK    2  A    between atoms: N_2  and  C_3
REMARK    3  A    between atoms: C_3  and  C_4
REMARK    4  A    between atoms: C_11  and  C_13
REMARK    5  A    between atoms: C_17  and  S_18
REMARK    6  A    between atoms: S_18  and  N_21
REMARK    7  A    between atoms: N_24  and  C_25
REMARK    8  A    between atoms: C_25  and  C_26
REMARK                            x       y       z     vdW  Elec       q    Type
REMARK                         _______ _______ _______ _____ _____    ______ ____
ROOT
ATOM      1  C   UNL     1       2.156   5.942  19.424  0.00  0.00    +0.000 A 
ATOM      2  C   UNL     1       2.293   6.510  18.159  0.00  0.00    +0.000 A 
ATOM      3  C   UNL     1       2.294   7.888  17.983  0.00  0.00    +0.000 A 
ATOM      4  C   UNL     1       1.916   8.704  19.035  0.00  0.00    +0.000 A 
ATOM      5  C   UNL     1       1.476   8.117  20.228  0.00  0.00    +0.000 A 
ATOM      6  C   UNL     1       1.657   6.746  20.458  0.00  0.00    +0.000 A 
ENDROOT
BRANCH   1   9
ATOM      7  C   UNL     1       4.022   2.637  19.947  0.00  0.00    +0.000 C 
ATOM      8  N   UNL     1       3.831   4.038  19.597  0.00  0.00    +0.000 N 
ATOM      9  C   UNL     1       2.496   4.504  19.665  0.00  0.00    +0.000 C 
ATOM     10  O   UNL     1       1.569   3.764  19.976  0.00  0.00    +0.000 OA
BRANCH   8  11
ATOM     11  C   UNL     1       5.060   4.824  19.362  0.00  0.00    +0.000 C 
BRANCH  11  12
ATOM     12  C   UNL     1       5.688   4.642  17.985  0.00  0.00    +0.000 A 
ATOM     13  C   UNL     1       7.091   4.695  17.844  0.00  0.00    +0.000 A 
ATOM     14  C   UNL     1       7.696   4.635  16.582  0.00  0.00    +0.000 A 
ATOM     15  C   UNL     1       6.914   4.475  15.445  0.00  0.00    +0.000 A 
ATOM     16  C   UNL     1       5.535   4.369  15.580  0.00  0.00    +0.000 A 
ATOM     17  F   UNL     1       4.780   4.209  14.486  0.00  0.00    +0.000 F 
ATOM     18  C   UNL     1       4.922   4.447  16.830  0.00  0.00    +0.000 A 
ENDBRANCH  11  12
ENDBRANCH   8  11
ENDBRANCH   1   9
BRANCH   5  19
ATOM     19  S   UNL     1       0.618   9.146  21.399  0.00  0.00    +0.000 S 
ATOM     20  O   UNL     1      -0.511   8.378  21.895  0.00  0.00    +0.000 OA
ATOM     21  O   UNL     1       1.599   9.697  22.309  0.00  0.00    +0.000 OA
BRANCH  19  22
ATOM     22  N   UNL     1      -0.000  10.434  20.448  0.00  0.00    +0.000 NA
ATOM     23  C   UNL     1       0.963  11.359  19.786  0.00  0.00    +0.000 C 
ATOM     24  C   UNL     1       1.567  12.380  20.761  0.00  0.00    +0.000 C 
ATOM     25  N   UNL     1       0.591  13.191  21.516  0.00  0.00    +0.000 NA
ATOM     26  C   UNL     1      -0.497  12.339  22.053  0.00  0.00    +0.000 C 
ATOM     27  C   UNL     1      -1.067  11.240  21.119  0.00  0.00    +0.000 C 
BRANCH  25  28
ATOM     28  C   UNL     1       0.069  14.349  20.779  0.00  0.00    +0.000 C 
BRANCH  28  29
ATOM     29  C   UNL     1       1.062  15.488  20.611  0.00  0.00    +0.000 A 
ATOM     30  C   UNL     1       1.403  16.294  21.708  0.00  0.00    +0.000 A 
ATOM     31  C   UNL     1       2.318  17.338  21.568  0.00  0.00    +0.000 A 
ATOM     32  C   UNL     1       2.913  17.587  20.333  0.00  0.00    +0.000 A 
ATOM     33  C   UNL     1       2.592  16.788  19.237  0.00  0.00    +0.000 A 
ATOM     34  C   UNL     1       1.670  15.746  19.372  0.00  0.00    +0.000 A 
ENDBRANCH  28  29
ENDBRANCH  25  28
ENDBRANCH  19  22
ENDBRANCH   5  19
TORSDOF 7
ENDMDL
