MODEL 1
REMARK VINA RESULT:      -8.7      0.000      0.000
REMARK  Name = 
REMARK  9 active torsions:
REMARK  status: ('A' for Active; 'I' for Inactive)
REMARK    1  A    between atoms: C_1  and  N_2
REMARK    2  A    between atoms: C_6  and  C_7
REMARK    3  A    between atoms: C_7  and  C_8
REMARK    4  A    between atoms: C_8  and  C_9
REMARK    5  A    between atoms: C_13  and  N_14
REMARK    6  A    between atoms: C_19  and  C_20
REMARK    7  A    between atoms: C_20  and  N_21
REMARK    8  A    between atoms: C_20  and  O_22
REMARK    9  A    between atoms: C_24  and  C_25
REMARK                            x       y       z     vdW  Elec       q    Type
REMARK                         _______ _______ _______ _____ _____    ______ ____
ROOT
ATOM      1  N   UNL     1       6.150   5.599  15.427  0.00  0.00    +0.000 N 
ATOM      2  C   UNL     1       4.912   6.350  15.774  0.00  0.00    +0.000 C 
ATOM      3  C   UNL     1       4.206   5.380  16.672  0.00  0.00    +0.000 A 
ATOM      4  C   UNL     1       4.612   4.100  16.287  0.00  0.00    +0.000 A 
ATOM      5  C   UNL     1       4.284   2.965  16.995  0.00  0.00    +0.000 A 
ATOM      6  C   UNL     1       3.527   3.113  18.167  0.00  0.00    +0.000 A 
ATOM      7  C   UNL     1       3.113   4.413  18.564  0.00  0.00    +0.000 A 
ATOM      8  C   UNL     1       3.451   5.570  17.823  0.00  0.00    +0.000 A 
ATOM      9  C   UNL     1       5.756   4.246  15.350  0.00  0.00    +0.000 C 
ATOM     10  O   UNL     1       6.327   3.311  14.818  0.00  0.00    +0.000 OA
ENDROOT
BRANCH   1  15
ATOM     11  C   UNL     1       7.852   7.727  17.829  0.00  0.00    +0.000 A 
ATOM     12  C   UNL     1       7.827   6.847  18.920  0.00  0.00    +0.000 A 
ATOM     13  C   UNL     1       7.692   5.478  18.718  0.00  0.00    +0.000 A 
ATOM     14  C   UNL     1       7.448   4.990  17.442  0.00  0.00    +0.000 A 
ATOM     15  C   UNL     1       7.202   5.893  16.395  0.00  0.00    +0.000 A 
ATOM     16  C   UNL     1       7.572   7.235  16.552  0.00  0.00    +0.000 A 
BRANCH  11  17
ATOM     17  C   UNL     1       8.045   9.206  18.041  0.00  0.00    +0.000 C 
BRANCH  17  18
ATOM     18  C   UNL     1       9.159   9.497  19.044  0.00  0.00    +0.000 C 
BRANCH  18  24
ATOM     19  C   UNL     1       9.109  11.655  21.245  0.00  0.00    +0.000 C 
ATOM     20  N   UNL     1       9.618  11.826  19.910  0.00  0.00    +0.000 N 
ATOM     21  C   UNL     1      10.136  12.964  19.378  0.00  0.00    +0.000 A 
ATOM     22  N   UNL     1      10.485  12.748  18.133  0.00  0.00    +0.000 NA
ATOM     23  N   UNL     1      10.183  11.442  17.839  0.00  0.00    +0.000 NA
ATOM     24  C   UNL     1       9.664  10.889  18.916  0.00  0.00    +0.000 A 
ENDBRANCH  18  24
ENDBRANCH  17  18
ENDBRANCH  11  17
ENDBRANCH   1  15
BRANCH   8  25
ATOM     25  C   UNL     1       3.082   6.927  18.371  0.00  0.00    +0.000 C 
ATOM     26  F   UNL     1       2.867   6.947  19.713  0.00  0.00    +0.000 F 
ATOM     27  F   UNL     1       4.060   7.846  18.140  0.00  0.00    +0.000 F 
ATOM     28  F   UNL     1       1.956   7.429  17.799  0.00  0.00    +0.000 F 
ENDBRANCH   8  25
BRANCH   6  29
ATOM     29  C   UNL     1       3.157   1.911  18.998  0.00  0.00    +0.000 C 
BRANCH  29  30
ATOM     30  N   UNL     1       1.747   1.622  18.876  0.00  0.00    +0.000 NA
ATOM     31  H   UNL     1       1.505   1.628  17.888  0.00  0.00    +0.000 HD
ATOM     32  H   UNL     1       1.232   2.405  19.276  0.00  0.00    +0.000 HD
ENDBRANCH  29  30
BRANCH  29  33
ATOM     33  O   UNL     1       3.851   0.781  18.535  0.00  0.00    +0.000 OA
ATOM     34  H   UNL     1       3.139   0.152  18.331  0.00  0.00    +0.000 HD
ENDBRANCH  29  33
ENDBRANCH   6  29
TORSDOF 8
ENDMDL
MODEL 2
REMARK VINA RESULT:      -8.6      4.143      6.734
REMARK  Name = 
REMARK  9 active torsions:
REMARK  status: ('A' for Active; 'I' for Inactive)
REMARK    1  A    between atoms: C_1  and  N_2
REMARK    2  A    between atoms: C_6  and  C_7
REMARK    3  A    between atoms: C_7  and  C_8
REMARK    4  A    between atoms: C_8  and  C_9
REMARK    5  A    between atoms: C_13  and  N_14
REMARK    6  A    between atoms: C_19  and  C_20
REMARK    7  A    between atoms: C_20  and  N_21
REMARK    8  A    between atoms: C_20  and  O_22
REMARK    9  A    between atoms: C_24  and  C_25
REMARK                            x       y       z     vdW  Elec       q    Type
REMARK                         _______ _______ _______ _____ _____    ______ ____
ROOT
ATOM      1  N   UNL     1       4.057   4.425  19.031  0.00  0.00    +0.000 N 
ATOM      2  C   UNL     1       5.402   5.042  19.198  0.00  0.00    +0.000 C 
ATOM      3  C   UNL     1       5.929   5.015  17.796  0.00  0.00    +0.000 A 
ATOM      4  C   UNL     1       5.315   3.939  17.152  0.00  0.00    +0.000 A 
ATOM      5  C   UNL     1       5.443   3.702  15.800  0.00  0.00    +0.000 A 
ATOM      6  C   UNL     1       6.207   4.601  15.041  0.00  0.00    +0.000 A 
ATOM      7  C   UNL     1       6.832   5.698  15.692  0.00  0.00    +0.000 A 
ATOM      8  C   UNL     1       6.698   5.926  17.082  0.00  0.00    +0.000 A 
ATOM      9  C   UNL     1       4.217   3.449  18.025  0.00  0.00    +0.000 C 
ATOM     10  O   UNL     1       3.500   2.502  17.754  0.00  0.00    +0.000 OA
ENDROOT
BRANCH   1  15
ATOM     11  C   UNL     1       1.876   7.174  19.968  0.00  0.00    +0.000 A 
ATOM     12  C   UNL     1       2.341   8.116  19.040  0.00  0.00    +0.000 A 
ATOM     13  C   UNL     1       2.984   7.703  17.879  0.00  0.00    +0.000 A 
ATOM     14  C   UNL     1       3.286   6.361  17.698  0.00  0.00    +0.000 A 
ATOM     15  C   UNL     1       3.064   5.458  18.751  0.00  0.00    +0.000 A 
ATOM     16  C   UNL     1       2.212   5.830  19.798  0.00  0.00    +0.000 A 
BRANCH  11  17
ATOM     17  C   UNL     1       1.137   7.617  21.205  0.00  0.00    +0.000 C 
BRANCH  17  18
ATOM     18  C   UNL     1       1.635   8.968  21.713  0.00  0.00    +0.000 C 
BRANCH  18  24
ATOM     19  C   UNL     1       0.058  10.925  19.928  0.00  0.00    +0.000 C 
ATOM     20  N   UNL     1      -0.162  10.704  21.332  0.00  0.00    +0.000 N 
ATOM     21  C   UNL     1      -1.074  11.331  22.120  0.00  0.00    +0.000 A 
ATOM     22  N   UNL     1      -0.977  10.881  23.348  0.00  0.00    +0.000 NA
ATOM     23  N   UNL     1       0.026   9.945  23.368  0.00  0.00    +0.000 NA
ATOM     24  C   UNL     1       0.512   9.838  22.149  0.00  0.00    +0.000 A 
ENDBRANCH  18  24
ENDBRANCH  17  18
ENDBRANCH  11  17
ENDBRANCH   1  15
BRANCH   8  25
ATOM     25  C   UNL     1       7.287   7.180  17.681  0.00  0.00    +0.000 C 
ATOM     26  F   UNL     1       8.174   7.820  16.875  0.00  0.00    +0.000 F 
ATOM     27  F   UNL     1       6.325   8.098  17.974  0.00  0.00    +0.000 F 
ATOM     28  F   UNL     1       7.941   6.938  18.848  0.00  0.00    +0.000 F 
ENDBRANCH   8  25
BRANCH   6  29
ATOM     29  C   UNL     1       6.365   4.409  13.555  0.00  0.00    +0.000 C 
BRANCH  29  30
ATOM     30  N   UNL     1       7.559   5.069  13.079  0.00  0.00    +0.000 NA
ATOM     31  H   UNL     1       7.351   5.487  12.174  0.00  0.00    +0.000 HD
ATOM     32  H   UNL     1       8.254   4.351  12.880  0.00  0.00    +0.000 HD
ENDBRANCH  29  30
BRANCH  29  33
ATOM     33  O   UNL     1       6.505   3.041  13.264  0.00  0.00    +0.000 OA
ATOM     34  H   UNL     1       7.449   2.878  13.423  0.00  0.00    +0.000 HD
ENDBRANCH  29  33
ENDBRANCH   6  29
TORSDOF 8
ENDMDL
MODEL 3
REMARK VINA RESULT:      -8.4      4.820      7.818
REMARK  Name = 
REMARK  9 active torsions:
REMARK  status: ('A' for Active; 'I' for Inactive)
REMARK    1  A    between atoms: C_1  and  N_2
REMARK    2  A    between atoms: C_6  and  C_7
REMARK    3  A    between atoms: C_7  and  C_8
REMARK    4  A    between atoms: C_8  and  C_9
REMARK    5  A    between atoms: C_13  and  N_14
REMARK    6  A    between atoms: C_19  and  C_20
REMARK    7  A    between atoms: C_20  and  N_21
REMARK    8  A    between atoms: C_20  and  O_22
REMARK    9  A    between atoms: C_24  and  C_25
REMARK                            x       y       z     vdW  Elec       q    Type
REMARK                         _______ _______ _______ _____ _____    ______ ____
ROOT
ATOM      1  N   UNL     1       2.579   7.405  19.363  0.00  0.00    +0.000 N 
ATOM      2  C   UNL     1       2.262   8.189  20.589  0.00  0.00    +0.000 C 
ATOM      3  C   UNL     1       1.160   9.082  20.106  0.00  0.00    +0.000 A 
ATOM      4  C   UNL     1       1.357   9.267  18.736  0.00  0.00    +0.000 A 
ATOM      5  C   UNL     1       0.444   9.907  17.927  0.00  0.00    +0.000 A 
ATOM      6  C   UNL     1      -0.744  10.371  18.510  0.00  0.00    +0.000 A 
ATOM      7  C   UNL     1      -0.950  10.184  19.904  0.00  0.00    +0.000 A 
ATOM      8  C   UNL     1      -0.001   9.531  20.724  0.00  0.00    +0.000 A 
ATOM      9  C   UNL     1       2.396   8.302  18.289  0.00  0.00    +0.000 C 
ATOM     10  O   UNL     1       2.808   8.224  17.146  0.00  0.00    +0.000 OA
ENDROOT
BRANCH   1  15
ATOM     11  C   UNL     1       1.956   3.938  18.477  0.00  0.00    +0.000 A 
ATOM     12  C   UNL     1       1.644   3.463  19.759  0.00  0.00    +0.000 A 
ATOM     13  C   UNL     1       1.201   4.337  20.745  0.00  0.00    +0.000 A 
ATOM     14  C   UNL     1       1.194   5.703  20.503  0.00  0.00    +0.000 A 
ATOM     15  C   UNL     1       1.763   6.195  19.318  0.00  0.00    +0.000 A 
ATOM     16  C   UNL     1       1.979   5.316  18.250  0.00  0.00    +0.000 A 
BRANCH  11  17
ATOM     17  C   UNL     1       2.391   2.987  17.392  0.00  0.00    +0.000 C 
BRANCH  17  18
ATOM     18  C   UNL     1       3.743   2.349  17.704  0.00  0.00    +0.000 C 
BRANCH  18  24
ATOM     19  C   UNL     1       5.211   4.262  15.782  0.00  0.00    +0.000 C 
ATOM     20  N   UNL     1       5.396   4.195  17.208  0.00  0.00    +0.000 N 
ATOM     21  C   UNL     1       6.261   4.934  17.949  0.00  0.00    +0.000 A 
ATOM     22  N   UNL     1       6.164   4.590  19.211  0.00  0.00    +0.000 NA
ATOM     23  N   UNL     1       5.219   3.599  19.298  0.00  0.00    +0.000 NA
ATOM     24  C   UNL     1       4.756   3.366  18.087  0.00  0.00    +0.000 A 
ENDBRANCH  18  24
ENDBRANCH  17  18
ENDBRANCH  11  17
ENDBRANCH   1  15
BRANCH   8  25
ATOM     25  C   UNL     1      -0.342   9.259  22.169  0.00  0.00    +0.000 C 
ATOM     26  F   UNL     1       0.732   9.247  23.002  0.00  0.00    +0.000 F 
ATOM     27  F   UNL     1      -1.189  10.199  22.673  0.00  0.00    +0.000 F 
ATOM     28  F   UNL     1      -0.966   8.063  22.339  0.00  0.00    +0.000 F 
ENDBRANCH   8  25
BRANCH   6  29
ATOM     29  C   UNL     1      -1.793  11.059  17.673  0.00  0.00    +0.000 C 
BRANCH  29  30
ATOM     30  N   UNL     1      -1.414  12.427  17.405  0.00  0.00    +0.000 NA
ATOM     31  H   UNL     1      -2.080  13.038  17.873  0.00  0.00    +0.000 HD
ATOM     32  H   UNL     1      -1.556  12.600  16.411  0.00  0.00    +0.000 HD
ENDBRANCH  29  30
BRANCH  29  33
ATOM     33  O   UNL     1      -1.908  10.412  16.431  0.00  0.00    +0.000 OA
ATOM     34  H   UNL     1      -1.363  10.960  15.844  0.00  0.00    +0.000 HD
ENDBRANCH  29  33
ENDBRANCH   6  29
TORSDOF 8
ENDMDL
MODEL 4
REMARK VINA RESULT:      -8.4      0.865      1.451
REMARK  Name = 
REMARK  9 active torsions:
REMARK  status: ('A' for Active; 'I' for Inactive)
REMARK    1  A    between atoms: C_1  and  N_2
REMARK    2  A    between atoms: C_6  and  C_7
REMARK    3  A    between atoms: C_7  and  C_8
REMARK    4  A    between atoms: C_8  and  C_9
REMARK    5  A    between atoms: C_13  and  N_14
REMARK    6  A    between atoms: C_19  and  C_20
REMARK    7  A    between atoms: C_20  and  N_21
REMARK    8  A    between atoms: C_20  and  O_22
REMARK    9  A    between atoms: C_24  and  C_25
REMARK                            x       y       z     vdW  Elec       q    Type
REMARK                         _______ _______ _______ _____ _____    ______ ____
ROOT
ATOM      1  N   UNL     1       6.140   5.448  15.550  0.00  0.00    +0.000 N 
ATOM      2  C   UNL     1       4.925   6.271  15.804  0.00  0.00    +0.000 C 
ATOM      3  C   UNL     1       4.183   5.428  16.794  0.00  0.00    +0.000 A 
ATOM      4  C   UNL     1       4.548   4.101  16.553  0.00  0.00    +0.000 A 
ATOM      5  C   UNL     1       4.179   3.060  17.376  0.00  0.00    +0.000 A 
ATOM      6  C   UNL     1       3.421   3.358  18.519  0.00  0.00    +0.000 A 
ATOM      7  C   UNL     1       3.048   4.706  18.769  0.00  0.00    +0.000 A 
ATOM      8  C   UNL     1       3.428   5.764  17.912  0.00  0.00    +0.000 A 
ATOM      9  C   UNL     1       5.702   4.108  15.616  0.00  0.00    +0.000 C 
ATOM     10  O   UNL     1       6.244   3.103  15.194  0.00  0.00    +0.000 OA
ENDROOT
BRANCH   1  15
ATOM     11  C   UNL     1       7.777   7.694  17.888  0.00  0.00    +0.000 A 
ATOM     12  C   UNL     1       7.824   6.828  18.990  0.00  0.00    +0.000 A 
ATOM     13  C   UNL     1       7.759   5.452  18.806  0.00  0.00    +0.000 A 
ATOM     14  C   UNL     1       7.513   4.935  17.542  0.00  0.00    +0.000 A 
ATOM     15  C   UNL     1       7.196   5.811  16.491  0.00  0.00    +0.000 A 
ATOM     16  C   UNL     1       7.496   7.172  16.625  0.00  0.00    +0.000 A 
BRANCH  11  17
ATOM     17  C   UNL     1       7.894   9.184  18.079  0.00  0.00    +0.000 C 
BRANCH  17  18
ATOM     18  C   UNL     1       9.288   9.590  18.554  0.00  0.00    +0.000 C 
BRANCH  18  24
ATOM     19  C   UNL     1       9.404  12.559  17.730  0.00  0.00    +0.000 C 
ATOM     20  N   UNL     1       9.300  12.063  19.077  0.00  0.00    +0.000 N 
ATOM     21  C   UNL     1       9.264  12.803  20.214  0.00  0.00    +0.000 A 
ATOM     22  N   UNL     1       9.180  12.008  21.254  0.00  0.00    +0.000 NA
ATOM     23  N   UNL     1       9.168  10.718  20.788  0.00  0.00    +0.000 NA
ATOM     24  C   UNL     1       9.237  10.756  19.474  0.00  0.00    +0.000 A 
ENDBRANCH  18  24
ENDBRANCH  17  18
ENDBRANCH  11  17
ENDBRANCH   1  15
BRANCH   8  25
ATOM     25  C   UNL     1       3.101   7.184  18.307  0.00  0.00    +0.000 C 
ATOM     26  F   UNL     1       2.022   7.706  17.668  0.00  0.00    +0.000 F 
ATOM     27  F   UNL     1       2.828   7.287  19.637  0.00  0.00    +0.000 F 
ATOM     28  F   UNL     1       4.132   8.039  18.070  0.00  0.00    +0.000 F 
ENDBRANCH   8  25
BRANCH   6  29
ATOM     29  C   UNL     1       3.006   2.265  19.471  0.00  0.00    +0.000 C 
BRANCH  29  30
ATOM     30  N   UNL     1       2.629   2.820  20.751  0.00  0.00    +0.000 NA
ATOM     31  H   UNL     1       2.990   2.208  21.480  0.00  0.00    +0.000 HD
ATOM     32  H   UNL     1       1.616   2.754  20.832  0.00  0.00    +0.000 HD
ENDBRANCH  29  30
BRANCH  29  33
ATOM     33  O   UNL     1       1.881   1.595  18.964  0.00  0.00    +0.000 OA
ATOM     34  H   UNL     1       1.399   1.335  19.766  0.00  0.00    +0.000 HD
ENDBRANCH  29  33
ENDBRANCH   6  29
TORSDOF 8
ENDMDL
MODEL 5
REMARK VINA RESULT:      -8.3      0.964      1.013
REMARK  Name = 
REMARK  9 active torsions:
REMARK  status: ('A' for Active; 'I' for Inactive)
REMARK    1  A    between atoms: C_1  and  N_2
REMARK    2  A    between atoms: C_6  and  C_7
REMARK    3  A    between atoms: C_7  and  C_8
REMARK    4  A    between atoms: C_8  and  C_9
REMARK    5  A    between atoms: C_13  and  N_14
REMARK    6  A    between atoms: C_19  and  C_20
REMARK    7  A    between atoms: C_20  and  N_21
REMARK    8  A    between atoms: C_20  and  O_22
REMARK    9  A    between atoms: C_24  and  C_25
REMARK                            x       y       z     vdW  Elec       q    Type
REMARK                         _______ _______ _______ _____ _____    ______ ____
ROOT
ATOM      1  N   UNL     1       6.123   5.468  15.553  0.00  0.00    +0.000 N 
ATOM      2  C   UNL     1       4.899   6.284  15.786  0.00  0.00    +0.000 C 
ATOM      3  C   UNL     1       4.172   5.463  16.805  0.00  0.00    +0.000 A 
ATOM      4  C   UNL     1       4.554   4.134  16.606  0.00  0.00    +0.000 A 
ATOM      5  C   UNL     1       4.201   3.115  17.464  0.00  0.00    +0.000 A 
ATOM      6  C   UNL     1       3.444   3.440  18.599  0.00  0.00    +0.000 A 
ATOM      7  C   UNL     1       3.054   4.790  18.808  0.00  0.00    +0.000 A 
ATOM      8  C   UNL     1       3.417   5.825  17.915  0.00  0.00    +0.000 A 
ATOM      9  C   UNL     1       5.703   4.126  15.664  0.00  0.00    +0.000 C 
ATOM     10  O   UNL     1       6.257   3.114  15.272  0.00  0.00    +0.000 OA
ENDROOT
BRANCH   1  15
ATOM     11  C   UNL     1       7.714   7.792  17.847  0.00  0.00    +0.000 A 
ATOM     12  C   UNL     1       7.802   6.940  18.957  0.00  0.00    +0.000 A 
ATOM     13  C   UNL     1       7.780   5.560  18.789  0.00  0.00    +0.000 A 
ATOM     14  C   UNL     1       7.536   5.022  17.534  0.00  0.00    +0.000 A 
ATOM     15  C   UNL     1       7.178   5.875  16.477  0.00  0.00    +0.000 A 
ATOM     16  C   UNL     1       7.436   7.247  16.593  0.00  0.00    +0.000 A 
BRANCH  11  17
ATOM     17  C   UNL     1       7.785   9.287  18.021  0.00  0.00    +0.000 C 
BRANCH  17  18
ATOM     18  C   UNL     1       9.147   9.735  18.548  0.00  0.00    +0.000 C 
BRANCH  18  24
ATOM     19  C   UNL     1      11.563  11.373  19.541  0.00  0.00    +0.000 C 
ATOM     20  N   UNL     1      10.456  11.885  18.778  0.00  0.00    +0.000 N 
ATOM     21  C   UNL     1      10.265  13.171  18.387  0.00  0.00    +0.000 A 
ATOM     22  N   UNL     1       9.139  13.266  17.720  0.00  0.00    +0.000 NA
ATOM     23  N   UNL     1       8.577  12.015  17.678  0.00  0.00    +0.000 NA
ATOM     24  C   UNL     1       9.376  11.185  18.315  0.00  0.00    +0.000 A 
ENDBRANCH  18  24
ENDBRANCH  17  18
ENDBRANCH  11  17
ENDBRANCH   1  15
BRANCH   8  25
ATOM     25  C   UNL     1       3.073   7.253  18.265  0.00  0.00    +0.000 C 
ATOM     26  F   UNL     1       2.771   7.447  19.576  0.00  0.00    +0.000 F 
ATOM     27  F   UNL     1       4.103   8.101  17.994  0.00  0.00    +0.000 F 
ATOM     28  F   UNL     1       2.010   7.719  17.559  0.00  0.00    +0.000 F 
ENDBRANCH   8  25
BRANCH   6  29
ATOM     29  C   UNL     1       3.048   2.373  19.588  0.00  0.00    +0.000 C 
BRANCH  29  30
ATOM     30  N   UNL     1       2.617   2.966  20.833  0.00  0.00    +0.000 NA
ATOM     31  H   UNL     1       3.410   3.457  21.242  0.00  0.00    +0.000 HD
ATOM     32  H   UNL     1       2.414   2.210  21.485  0.00  0.00    +0.000 HD
ENDBRANCH  29  30
BRANCH  29  33
ATOM     33  O   UNL     1       1.962   1.637  19.084  0.00  0.00    +0.000 OA
ATOM     34  H   UNL     1       1.361   1.582  19.844  0.00  0.00    +0.000 HD
ENDBRANCH  29  33
ENDBRANCH   6  29
TORSDOF 8
ENDMDL
MODEL 6
REMARK VINA RESULT:      -8.2      4.099      6.521
REMARK  Name = 
REMARK  9 active torsions:
REMARK  status: ('A' for Active; 'I' for Inactive)
REMARK    1  A    between atoms: C_1  and  N_2
REMARK    2  A    between atoms: C_6  and  C_7
REMARK    3  A    between atoms: C_7  and  C_8
REMARK    4  A    between atoms: C_8  and  C_9
REMARK    5  A    between atoms: C_13  and  N_14
REMARK    6  A    between atoms: C_19  and  C_20
REMARK    7  A    between atoms: C_20  and  N_21
REMARK    8  A    between atoms: C_20  and  O_22
REMARK    9  A    between atoms: C_24  and  C_25
REMARK                            x       y       z     vdW  Elec       q    Type
REMARK                         _______ _______ _______ _____ _____    ______ ____
ROOT
ATOM      1  N   UNL     1       3.961   4.535  19.080  0.00  0.00    +0.000 N 
ATOM      2  C   UNL     1       5.319   5.122  19.251  0.00  0.00    +0.000 C 
ATOM      3  C   UNL     1       5.854   5.070  17.853  0.00  0.00    +0.000 A 
ATOM      4  C   UNL     1       5.220   4.002  17.214  0.00  0.00    +0.000 A 
ATOM      5  C   UNL     1       5.351   3.750  15.866  0.00  0.00    +0.000 A 
ATOM      6  C   UNL     1       6.140   4.624  15.104  0.00  0.00    +0.000 A 
ATOM      7  C   UNL     1       6.786   5.713  15.748  0.00  0.00    +0.000 A 
ATOM      8  C   UNL     1       6.649   5.956  17.135  0.00  0.00    +0.000 A 
ATOM      9  C   UNL     1       4.106   3.545  18.085  0.00  0.00    +0.000 C 
ATOM     10  O   UNL     1       3.369   2.613  17.818  0.00  0.00    +0.000 OA
ENDROOT
BRANCH   1  15
ATOM     11  C   UNL     1       2.056   7.519  19.894  0.00  0.00    +0.000 A 
ATOM     12  C   UNL     1       2.447   8.303  18.800  0.00  0.00    +0.000 A 
ATOM     13  C   UNL     1       2.918   7.705  17.636  0.00  0.00    +0.000 A 
ATOM     14  C   UNL     1       3.127   6.334  17.602  0.00  0.00    +0.000 A 
ATOM     15  C   UNL     1       2.994   5.587  18.785  0.00  0.00    +0.000 A 
ATOM     16  C   UNL     1       2.301   6.144  19.866  0.00  0.00    +0.000 A 
BRANCH  11  17
ATOM     17  C   UNL     1       1.502   8.161  21.139  0.00  0.00    +0.000 C 
BRANCH  17  18
ATOM     18  C   UNL     1       0.140   8.804  20.890  0.00  0.00    +0.000 C 
BRANCH  18  24
ATOM     19  C   UNL     1      -1.025  10.509  23.179  0.00  0.00    +0.000 C 
ATOM     20  N   UNL     1      -0.332  11.013  22.024  0.00  0.00    +0.000 N 
ATOM     21  C   UNL     1      -0.095  12.316  21.724  0.00  0.00    +0.000 A 
ATOM     22  N   UNL     1       0.551  12.395  20.585  0.00  0.00    +0.000 NA
ATOM     23  N   UNL     1       0.735  11.116  20.125  0.00  0.00    +0.000 NA
ATOM     24  C   UNL     1       0.204  10.285  20.998  0.00  0.00    +0.000 A 
ENDBRANCH  18  24
ENDBRANCH  17  18
ENDBRANCH  11  17
ENDBRANCH   1  15
BRANCH   8  25
ATOM     25  C   UNL     1       7.263   7.201  17.727  0.00  0.00    +0.000 C 
ATOM     26  F   UNL     1       8.148   7.830  16.909  0.00  0.00    +0.000 F 
ATOM     27  F   UNL     1       6.317   8.133  18.033  0.00  0.00    +0.000 F 
ATOM     28  F   UNL     1       7.929   6.951  18.885  0.00  0.00    +0.000 F 
ENDBRANCH   8  25
BRANCH   6  29
ATOM     29  C   UNL     1       6.303   4.414  13.620  0.00  0.00    +0.000 C 
BRANCH  29  30
ATOM     30  N   UNL     1       7.486   5.088  13.136  0.00  0.00    +0.000 NA
ATOM     31  H   UNL     1       7.273   5.488  12.225  0.00  0.00    +0.000 HD
ATOM     32  H   UNL     1       8.194   4.380  12.951  0.00  0.00    +0.000 HD
ENDBRANCH  29  30
BRANCH  29  33
ATOM     33  O   UNL     1       6.468   3.046  13.348  0.00  0.00    +0.000 OA
ATOM     34  H   UNL     1       6.995   2.733  14.101  0.00  0.00    +0.000 HD
ENDBRANCH  29  33
ENDBRANCH   6  29
TORSDOF 8
ENDMDL
MODEL 7
REMARK VINA RESULT:      -8.2      4.786      7.674
REMARK  Name = 
REMARK  9 active torsions:
REMARK  status: ('A' for Active; 'I' for Inactive)
REMARK    1  A    between atoms: C_1  and  N_2
REMARK    2  A    between atoms: C_6  and  C_7
REMARK    3  A    between atoms: C_7  and  C_8
REMARK    4  A    between atoms: C_8  and  C_9
REMARK    5  A    between atoms: C_13  and  N_14
REMARK    6  A    between atoms: C_19  and  C_20
REMARK    7  A    between atoms: C_20  and  N_21
REMARK    8  A    between atoms: C_20  and  O_22
REMARK    9  A    between atoms: C_24  and  C_25
REMARK                            x       y       z     vdW  Elec       q    Type
REMARK                         _______ _______ _______ _____ _____    ______ ____
ROOT
ATOM      1  N   UNL     1       2.611   7.481  19.371  0.00  0.00    +0.000 N 
ATOM      2  C   UNL     1       2.267   8.260  20.593  0.00  0.00    +0.000 C 
ATOM      3  C   UNL     1       1.144   9.121  20.103  0.00  0.00    +0.000 A 
ATOM      4  C   UNL     1       1.343   9.307  18.732  0.00  0.00    +0.000 A 
ATOM      5  C   UNL     1       0.417   9.922  17.917  0.00  0.00    +0.000 A 
ATOM      6  C   UNL     1      -0.786  10.355  18.493  0.00  0.00    +0.000 A 
ATOM      7  C   UNL     1      -0.993  10.167  19.886  0.00  0.00    +0.000 A 
ATOM      8  C   UNL     1      -0.031   9.542  20.713  0.00  0.00    +0.000 A 
ATOM      9  C   UNL     1       2.409   8.370  18.294  0.00  0.00    +0.000 C 
ATOM     10  O   UNL     1       2.829   8.299  17.153  0.00  0.00    +0.000 OA
ENDROOT
BRANCH   1  15
ATOM     11  C   UNL     1       2.052   4.019  18.425  0.00  0.00    +0.000 A 
ATOM     12  C   UNL     1       1.799   3.506  19.705  0.00  0.00    +0.000 A 
ATOM     13  C   UNL     1       1.367   4.344  20.727  0.00  0.00    +0.000 A 
ATOM     14  C   UNL     1       1.314   5.715  20.518  0.00  0.00    +0.000 A 
ATOM     15  C   UNL     1       1.827   6.250  19.325  0.00  0.00    +0.000 A 
ATOM     16  C   UNL     1       2.029   5.401  18.230  0.00  0.00    +0.000 A 
BRANCH  11  17
ATOM     17  C   UNL     1       2.475   3.106  17.303  0.00  0.00    +0.000 C 
BRANCH  17  18
ATOM     18  C   UNL     1       3.957   2.747  17.388  0.00  0.00    +0.000 C 
BRANCH  18  24
ATOM     19  C   UNL     1       5.568   4.749  19.092  0.00  0.00    +0.000 C 
ATOM     20  N   UNL     1       5.513   4.722  17.654  0.00  0.00    +0.000 N 
ATOM     21  C   UNL     1       6.130   5.579  16.801  0.00  0.00    +0.000 A 
ATOM     22  N   UNL     1       5.840   5.254  15.564  0.00  0.00    +0.000 NA
ATOM     23  N   UNL     1       5.009   4.163  15.607  0.00  0.00    +0.000 NA
ATOM     24  C   UNL     1       4.817   3.843  16.870  0.00  0.00    +0.000 A 
ENDBRANCH  18  24
ENDBRANCH  17  18
ENDBRANCH  11  17
ENDBRANCH   1  15
BRANCH   8  25
ATOM     25  C   UNL     1      -0.372   9.264  22.157  0.00  0.00    +0.000 C 
ATOM     26  F   UNL     1      -1.226  10.165  22.711  0.00  0.00    +0.000 F 
ATOM     27  F   UNL     1      -0.968   8.049  22.311  0.00  0.00    +0.000 F 
ATOM     28  F   UNL     1       0.728   9.245  22.955  0.00  0.00    +0.000 F 
ENDBRANCH   8  25
BRANCH   6  29
ATOM     29  C   UNL     1      -1.847  11.013  17.649  0.00  0.00    +0.000 C 
BRANCH  29  30
ATOM     30  N   UNL     1      -1.505  12.390  17.380  0.00  0.00    +0.000 NA
ATOM     31  H   UNL     1      -1.646  12.925  18.234  0.00  0.00    +0.000 HD
ATOM     32  H   UNL     1      -2.191  12.760  16.724  0.00  0.00    +0.000 HD
ENDBRANCH  29  30
BRANCH  29  33
ATOM     33  O   UNL     1      -1.939  10.360  16.408  0.00  0.00    +0.000 OA
ATOM     34  H   UNL     1      -2.883  10.142  16.342  0.00  0.00    +0.000 HD
ENDBRANCH  29  33
ENDBRANCH   6  29
TORSDOF 8
ENDMDL
MODEL 8
REMARK VINA RESULT:      -8.1      4.104      6.735
REMARK  Name = 
REMARK  9 active torsions:
REMARK  status: ('A' for Active; 'I' for Inactive)
REMARK    1  A    between atoms: C_1  and  N_2
REMARK    2  A    between atoms: C_6  and  C_7
REMARK    3  A    between atoms: C_7  and  C_8
REMARK    4  A    between atoms: C_8  and  C_9
REMARK    5  A    between atoms: C_13  and  N_14
REMARK    6  A    between atoms: C_19  and  C_20
REMARK    7  A    between atoms: C_20  and  N_21
REMARK    8  A    between atoms: C_20  and  O_22
REMARK    9  A    between atoms: C_24  and  C_25
REMARK                            x       y       z     vdW  Elec       q    Type
REMARK                         _______ _______ _______ _____ _____    ______ ____
ROOT
ATOM      1  N   UNL     1       3.015   3.973  18.889  0.00  0.00    +0.000 N 
ATOM      2  C   UNL     1       4.412   4.119  19.386  0.00  0.00    +0.000 C 
ATOM      3  C   UNL     1       5.183   4.233  18.108  0.00  0.00    +0.000 A 
ATOM      4  C   UNL     1       4.459   3.544  17.132  0.00  0.00    +0.000 A 
ATOM      5  C   UNL     1       4.789   3.568  15.795  0.00  0.00    +0.000 A 
ATOM      6  C   UNL     1       5.891   4.342  15.401  0.00  0.00    +0.000 A 
ATOM      7  C   UNL     1       6.631   5.046  16.389  0.00  0.00    +0.000 A 
ATOM      8  C   UNL     1       6.284   5.007  17.760  0.00  0.00    +0.000 A 
ATOM      9  C   UNL     1       3.121   3.225  17.697  0.00  0.00    +0.000 C 
ATOM     10  O   UNL     1       2.257   2.609  17.099  0.00  0.00    +0.000 OA
ENDROOT
BRANCH   1  15
ATOM     11  C   UNL     1       2.026   7.242  20.125  0.00  0.00    +0.000 A 
ATOM     12  C   UNL     1       2.640   8.019  19.132  0.00  0.00    +0.000 A 
ATOM     13  C   UNL     1       2.938   7.468  17.891  0.00  0.00    +0.000 A 
ATOM     14  C   UNL     1       2.749   6.111  17.675  0.00  0.00    +0.000 A 
ATOM     15  C   UNL     1       2.392   5.286  18.754  0.00  0.00    +0.000 A 
ATOM     16  C   UNL     1       1.870   5.870  19.914  0.00  0.00    +0.000 A 
BRANCH  11  17
ATOM     17  C   UNL     1       1.660   7.847  21.455  0.00  0.00    +0.000 C 
BRANCH  17  18
ATOM     18  C   UNL     1       0.160   8.110  21.567  0.00  0.00    +0.000 C 
BRANCH  18  24
ATOM     19  C   UNL     1      -0.504  10.379  19.587  0.00  0.00    +0.000 C 
ATOM     20  N   UNL     1      -0.407  10.511  21.016  0.00  0.00    +0.000 N 
ATOM     21  C   UNL     1      -0.560  11.651  21.738  0.00  0.00    +0.000 A 
ATOM     22  N   UNL     1      -0.388  11.391  23.013  0.00  0.00    +0.000 NA
ATOM     23  N   UNL     1      -0.108  10.053  23.128  0.00  0.00    +0.000 NA
ATOM     24  C   UNL     1      -0.124   9.525  21.921  0.00  0.00    +0.000 A 
ENDBRANCH  18  24
ENDBRANCH  17  18
ENDBRANCH  11  17
ENDBRANCH   1  15
BRANCH   8  25
ATOM     25  C   UNL     1       7.039   5.878  18.734  0.00  0.00    +0.000 C 
ATOM     26  F   UNL     1       6.469   5.960  19.965  0.00  0.00    +0.000 F 
ATOM     27  F   UNL     1       8.305   5.421  18.943  0.00  0.00    +0.000 F 
ATOM     28  F   UNL     1       7.172   7.156  18.292  0.00  0.00    +0.000 F 
ENDBRANCH   8  25
BRANCH   6  29
ATOM     29  C   UNL     1       6.288   4.428  13.949  0.00  0.00    +0.000 C 
BRANCH  29  30
ATOM     30  N   UNL     1       7.531   5.149  13.803  0.00  0.00    +0.000 NA
ATOM     31  H   UNL     1       7.743   5.219  12.809  0.00  0.00    +0.000 HD
ATOM     32  H   UNL     1       8.276   4.570  14.188  0.00  0.00    +0.000 HD
ENDBRANCH  29  30
BRANCH  29  33
ATOM     33  O   UNL     1       6.498   3.137  13.437  0.00  0.00    +0.000 OA
ATOM     34  H   UNL     1       6.315   3.243  12.489  0.00  0.00    +0.000 HD
ENDBRANCH  29  33
ENDBRANCH   6  29
TORSDOF 8
ENDMDL
MODEL 9
REMARK VINA RESULT:      -8.0      1.166      1.359
REMARK  Name = 
REMARK  9 active torsions:
REMARK  status: ('A' for Active; 'I' for Inactive)
REMARK    1  A    between atoms: C_1  and  N_2
REMARK    2  A    between atoms: C_6  and  C_7
REMARK    3  A    between atoms: C_7  and  C_8
REMARK    4  A    between atoms: C_8  and  C_9
REMARK    5  A    between atoms: C_13  and  N_14
REMARK    6  A    between atoms: C_19  and  C_20
REMARK    7  A    between atoms: C_20  and  N_21
REMARK    8  A    between atoms: C_20  and  O_22
REMARK    9  A    between atoms: C_24  and  C_25
REMARK                            x       y       z     vdW  Elec       q    Type
REMARK                         _______ _______ _______ _____ _____    ______ ____
ROOT
ATOM      1  N   UNL     1       6.005   6.052  15.729  0.00  0.00    +0.000 N 
ATOM      2  C   UNL     1       4.827   6.643  16.423  0.00  0.00    +0.000 C 
ATOM      3  C   UNL     1       4.164   5.428  16.993  0.00  0.00    +0.000 A 
ATOM      4  C   UNL     1       4.491   4.357  16.158  0.00  0.00    +0.000 A 
ATOM      5  C   UNL     1       4.182   3.049  16.460  0.00  0.00    +0.000 A 
ATOM      6  C   UNL     1       3.530   2.787  17.674  0.00  0.00    +0.000 A 
ATOM      7  C   UNL     1       3.197   3.873  18.529  0.00  0.00    +0.000 A 
ATOM      8  C   UNL     1       3.514   5.212  18.202  0.00  0.00    +0.000 A 
ATOM      9  C   UNL     1       5.558   4.811  15.229  0.00  0.00    +0.000 C 
ATOM     10  O   UNL     1       6.049   4.113  14.359  0.00  0.00    +0.000 OA
ENDROOT
BRANCH   1  15
ATOM     11  C   UNL     1       8.114   7.348  18.387  0.00  0.00    +0.000 A 
ATOM     12  C   UNL     1       8.040   6.245  19.249  0.00  0.00    +0.000 A 
ATOM     13  C   UNL     1       7.714   4.987  18.756  0.00  0.00    +0.000 A 
ATOM     14  C   UNL     1       7.331   4.843  17.431  0.00  0.00    +0.000 A 
ATOM     15  C   UNL     1       7.143   5.989  16.641  0.00  0.00    +0.000 A 
ATOM     16  C   UNL     1       7.695   7.205  17.063  0.00  0.00    +0.000 A 
BRANCH  11  17
ATOM     17  C   UNL     1       8.512   8.704  18.910  0.00  0.00    +0.000 C 
BRANCH  17  18
ATOM     18  C   UNL     1       8.394   9.785  17.837  0.00  0.00    +0.000 C 
BRANCH  18  24
ATOM     19  C   UNL     1       7.632  12.690  17.141  0.00  0.00    +0.000 C 
ATOM     20  N   UNL     1       8.806  12.279  17.865  0.00  0.00    +0.000 N 
ATOM     21  C   UNL     1       9.791  13.084  18.340  0.00  0.00    +0.000 A 
ATOM     22  N   UNL     1      10.706  12.356  18.934  0.00  0.00    +0.000 NA
ATOM     23  N   UNL     1      10.316  11.044  18.839  0.00  0.00    +0.000 NA
ATOM     24  C   UNL     1       9.167  11.002  18.197  0.00  0.00    +0.000 A 
ENDBRANCH  18  24
ENDBRANCH  17  18
ENDBRANCH  11  17
ENDBRANCH   1  15
BRANCH   8  25
ATOM     25  C   UNL     1       3.240   6.299  19.213  0.00  0.00    +0.000 C 
ATOM     26  F   UNL     1       2.511   5.893  20.286  0.00  0.00    +0.000 F 
ATOM     27  F   UNL     1       4.393   6.813  19.725  0.00  0.00    +0.000 F 
ATOM     28  F   UNL     1       2.569   7.351  18.675  0.00  0.00    +0.000 F 
ENDBRANCH   8  25
BRANCH   6  29
ATOM     29  C   UNL     1       3.187   1.374  18.072  0.00  0.00    +0.000 C 
BRANCH  29  30
ATOM     30  N   UNL     1       4.295   0.756  18.765  0.00  0.00    +0.000 NA
ATOM     31  H   UNL     1       3.927   0.003  19.343  0.00  0.00    +0.000 HD
ATOM     32  H   UNL     1       4.667   1.435  19.427  0.00  0.00    +0.000 HD
ENDBRANCH  29  30
BRANCH  29  33
ATOM     33  O   UNL     1       2.098   1.381  18.960  0.00  0.00    +0.000 OA
ATOM     34  H   UNL     1       1.373   1.020  18.424  0.00  0.00    +0.000 HD
ENDBRANCH  29  33
ENDBRANCH   6  29
TORSDOF 8
ENDMDL
