MODEL 1
REMARK VINA RESULT:      -9.2      0.000      0.000
REMARK  Name = 
REMARK  7 active torsions:
REMARK  status: ('A' for Active; 'I' for Inactive)
REMARK    1  A    between atoms: C_4  and  C_5
REMARK    2  A    between atoms: C_5  and  N_6
REMARK    3  A    between atoms: N_6  and  C_7
REMARK    4  A    between atoms: C_7  and  C_8
REMARK    5  A    between atoms: C_12  and  C_13
REMARK    6  A    between atoms: N_19  and  C_20
REMARK    7  A    between atoms: C_24  and  C_25
REMARK                            x       y       z     vdW  Elec       q    Type
REMARK                         _______ _______ _______ _____ _____    ______ ____
ROOT
ATOM      1  C   UNL     1       3.863   5.026  17.652  0.00  0.00    +0.000 A 
ATOM      2  C   UNL     1       3.466   6.364  17.721  0.00  0.00    +0.000 A 
ATOM      3  C   UNL     1       2.668   6.748  18.784  0.00  0.00    +0.000 A 
ATOM      4  C   UNL     1       2.249   5.870  19.779  0.00  0.00    +0.000 A 
ATOM      5  C   UNL     1       2.608   4.530  19.730  0.00  0.00    +0.000 A 
ATOM      6  C   UNL     1       3.429   4.124  18.656  0.00  0.00    +0.000 A 
ATOM      7  C   UNL     1       1.429   6.616  20.782  0.00  0.00    +0.000 C 
ATOM      8  N   UNL     1       1.397   7.972  20.255  0.00  0.00    +0.000 N 
ATOM      9  C   UNL     1       2.124   8.078  19.068  0.00  0.00    +0.000 C 
ATOM     10  O   UNL     1       2.336   9.023  18.331  0.00  0.00    +0.000 OA
ENDROOT
BRANCH   8  11
ATOM     11  C   UNL     1       0.643   9.002  20.872  0.00  0.00    +0.000 A 
ATOM     12  C   UNL     1       0.505   9.067  22.264  0.00  0.00    +0.000 A 
ATOM     13  C   UNL     1      -0.195  10.111  22.871  0.00  0.00    +0.000 A 
ATOM     14  C   UNL     1      -0.794  11.097  22.091  0.00  0.00    +0.000 A 
ATOM     15  C   UNL     1      -0.705  11.040  20.700  0.00  0.00    +0.000 A 
ATOM     16  C   UNL     1      -1.396  12.056  19.840  0.00  0.00    +0.000 C 
ATOM     17  C   UNL     1       0.025   9.997  20.102  0.00  0.00    +0.000 A 
ENDBRANCH   8  11
BRANCH   5  18
ATOM     18  C   UNL     1       2.161   3.522  20.754  0.00  0.00    +0.000 C 
ATOM     19  F   UNL     1       0.814   3.318  20.770  0.00  0.00    +0.000 F 
ATOM     20  F   UNL     1       2.719   2.297  20.555  0.00  0.00    +0.000 F 
ATOM     21  F   UNL     1       2.496   3.887  22.021  0.00  0.00    +0.000 F 
ENDBRANCH   5  18
BRANCH   1  22
ATOM     22  C   UNL     1       4.765   4.555  16.532  0.00  0.00    +0.000 C 
BRANCH  22  23
ATOM     23  N   UNL     1       5.900   3.798  17.052  0.00  0.00    +0.000 NA
ATOM     24  H   UNL     1       5.699   3.486  17.999  0.00  0.00    +0.000 HD
BRANCH  23  25
ATOM     25  C   UNL     1       7.111   4.614  17.088  0.00  0.00    +0.000 C 
BRANCH  25  29
ATOM     26  C   UNL     1       7.849   8.017  17.643  0.00  0.00    +0.000 C 
ATOM     27  C   UNL     1       7.665   6.834  18.186  0.00  0.00    +0.000 C 
ATOM     28  C   UNL     1       8.091   5.934  19.180  0.00  0.00    +0.000 C 
ATOM     29  C   UNL     1       6.923   5.636  18.168  0.00  0.00    +0.000 C 
ENDBRANCH  25  29
ENDBRANCH  23  25
ENDBRANCH  22  23
ENDBRANCH   1  22
TORSDOF 6
ENDMDL
MODEL 2
REMARK VINA RESULT:      -9.0      0.658      1.308
REMARK  Name = 
REMARK  7 active torsions:
REMARK  status: ('A' for Active; 'I' for Inactive)
REMARK    1  A    between atoms: C_4  and  C_5
REMARK    2  A    between atoms: C_5  and  N_6
REMARK    3  A    between atoms: N_6  and  C_7
REMARK    4  A    between atoms: C_7  and  C_8
REMARK    5  A    between atoms: C_12  and  C_13
REMARK    6  A    between atoms: N_19  and  C_20
REMARK    7  A    between atoms: C_24  and  C_25
REMARK                            x       y       z     vdW  Elec       q    Type
REMARK                         _______ _______ _______ _____ _____    ______ ____
ROOT
ATOM      1  C   UNL     1       3.974   4.502  17.716  0.00  0.00    +0.000 A 
ATOM      2  C   UNL     1       3.682   5.861  17.567  0.00  0.00    +0.000 A 
ATOM      3  C   UNL     1       2.885   6.460  18.527  0.00  0.00    +0.000 A 
ATOM      4  C   UNL     1       2.368   5.777  19.624  0.00  0.00    +0.000 A 
ATOM      5  C   UNL     1       2.622   4.423  19.791  0.00  0.00    +0.000 A 
ATOM      6  C   UNL     1       3.440   3.799  18.825  0.00  0.00    +0.000 A 
ATOM      7  C   UNL     1       1.580   6.725  20.468  0.00  0.00    +0.000 C 
ATOM      8  N   UNL     1       1.671   7.984  19.743  0.00  0.00    +0.000 N 
ATOM      9  C   UNL     1       2.440   7.854  18.585  0.00  0.00    +0.000 C 
ATOM     10  O   UNL     1       2.748   8.657  17.725  0.00  0.00    +0.000 OA
ENDROOT
BRANCH   8  11
ATOM     11  C   UNL     1       0.982   9.148  20.168  0.00  0.00    +0.000 A 
ATOM     12  C   UNL     1       0.873  10.271  19.338  0.00  0.00    +0.000 A 
ATOM     13  C   UNL     1       0.150  11.395  19.739  0.00  0.00    +0.000 A 
ATOM     14  C   UNL     1      -0.457  11.427  20.992  0.00  0.00    +0.000 A 
ATOM     15  C   UNL     1      -0.336  10.338  21.855  0.00  0.00    +0.000 A 
ATOM     16  C   UNL     1      -0.927  10.375  23.233  0.00  0.00    +0.000 C 
ATOM     17  C   UNL     1       0.374   9.200  21.430  0.00  0.00    +0.000 A 
ENDBRANCH   8  11
BRANCH   5  18
ATOM     18  C   UNL     1       2.066   3.618  20.935  0.00  0.00    +0.000 C 
ATOM     19  F   UNL     1       0.704   3.578  20.965  0.00  0.00    +0.000 F 
ATOM     20  F   UNL     1       2.474   2.320  20.903  0.00  0.00    +0.000 F 
ATOM     21  F   UNL     1       2.450   4.105  22.146  0.00  0.00    +0.000 F 
ENDBRANCH   5  18
BRANCH   1  22
ATOM     22  C   UNL     1       4.869   3.801  16.719  0.00  0.00    +0.000 C 
BRANCH  22  23
ATOM     23  N   UNL     1       5.913   4.694  16.226  0.00  0.00    +0.000 NA
ATOM     24  H   UNL     1       6.161   4.439  15.274  0.00  0.00    +0.000 HD
BRANCH  23  25
ATOM     25  C   UNL     1       7.117   4.610  17.049  0.00  0.00    +0.000 C 
BRANCH  25  29
ATOM     26  C   UNL     1       7.904   7.972  17.765  0.00  0.00    +0.000 C 
ATOM     27  C   UNL     1       7.708   6.766  18.251  0.00  0.00    +0.000 C 
ATOM     28  C   UNL     1       8.128   5.812  19.197  0.00  0.00    +0.000 C 
ATOM     29  C   UNL     1       6.950   5.580  18.179  0.00  0.00    +0.000 C 
ENDBRANCH  25  29
ENDBRANCH  23  25
ENDBRANCH  22  23
ENDBRANCH   1  22
TORSDOF 6
ENDMDL
MODEL 3
REMARK VINA RESULT:      -8.9      0.773      1.692
REMARK  Name = 
REMARK  7 active torsions:
REMARK  status: ('A' for Active; 'I' for Inactive)
REMARK    1  A    between atoms: C_4  and  C_5
REMARK    2  A    between atoms: C_5  and  N_6
REMARK    3  A    between atoms: N_6  and  C_7
REMARK    4  A    between atoms: C_7  and  C_8
REMARK    5  A    between atoms: C_12  and  C_13
REMARK    6  A    between atoms: N_19  and  C_20
REMARK    7  A    between atoms: C_24  and  C_25
REMARK                            x       y       z     vdW  Elec       q    Type
REMARK                         _______ _______ _______ _____ _____    ______ ____
ROOT
ATOM      1  C   UNL     1       3.888   4.378  17.717  0.00  0.00    +0.000 A 
ATOM      2  C   UNL     1       3.601   5.736  17.554  0.00  0.00    +0.000 A 
ATOM      3  C   UNL     1       2.860   6.363  18.540  0.00  0.00    +0.000 A 
ATOM      4  C   UNL     1       2.392   5.709  19.675  0.00  0.00    +0.000 A 
ATOM      5  C   UNL     1       2.642   4.355  19.858  0.00  0.00    +0.000 A 
ATOM      6  C   UNL     1       3.404   3.703  18.865  0.00  0.00    +0.000 A 
ATOM      7  C   UNL     1       1.657   6.682  20.538  0.00  0.00    +0.000 C 
ATOM      8  N   UNL     1       1.723   7.924  19.783  0.00  0.00    +0.000 N 
ATOM      9  C   UNL     1       2.431   7.762  18.591  0.00  0.00    +0.000 C 
ATOM     10  O   UNL     1       2.702   8.544  17.699  0.00  0.00    +0.000 OA
ENDROOT
BRANCH   8  11
ATOM     11  C   UNL     1       1.067   9.104  20.217  0.00  0.00    +0.000 A 
ATOM     12  C   UNL     1       1.047  10.258  19.424  0.00  0.00    +0.000 A 
ATOM     13  C   UNL     1       0.357  11.401  19.832  0.00  0.00    +0.000 A 
ATOM     14  C   UNL     1      -0.306  11.418  21.056  0.00  0.00    +0.000 A 
ATOM     15  C   UNL     1      -0.275  10.296  21.884  0.00  0.00    +0.000 A 
ATOM     16  C   UNL     1      -0.928  10.314  23.234  0.00  0.00    +0.000 C 
ATOM     17  C   UNL     1       0.404   9.141  21.451  0.00  0.00    +0.000 A 
ENDBRANCH   8  11
BRANCH   5  18
ATOM     18  C   UNL     1       2.137   3.580  21.046  0.00  0.00    +0.000 C 
ATOM     19  F   UNL     1       2.634   2.313  21.124  0.00  0.00    +0.000 F 
ATOM     20  F   UNL     1       2.454   4.175  22.227  0.00  0.00    +0.000 F 
ATOM     21  F   UNL     1       0.783   3.448  21.041  0.00  0.00    +0.000 F 
ENDBRANCH   5  18
BRANCH   1  22
ATOM     22  C   UNL     1       4.725   3.647  16.690  0.00  0.00    +0.000 C 
BRANCH  22  23
ATOM     23  N   UNL     1       6.135   4.003  16.808  0.00  0.00    +0.000 NA
ATOM     24  H   UNL     1       6.394   4.059  17.790  0.00  0.00    +0.000 HD
BRANCH  23  25
ATOM     25  C   UNL     1       6.410   5.298  16.190  0.00  0.00    +0.000 C 
BRANCH  25  29
ATOM     26  C   UNL     1       7.469   5.711  19.529  0.00  0.00    +0.000 C 
ATOM     27  C   UNL     1       7.487   6.195  18.306  0.00  0.00    +0.000 C 
ATOM     28  C   UNL     1       7.442   7.360  17.518  0.00  0.00    +0.000 C 
ATOM     29  C   UNL     1       7.564   5.905  16.930  0.00  0.00    +0.000 C 
ENDBRANCH  25  29
ENDBRANCH  23  25
ENDBRANCH  22  23
ENDBRANCH   1  22
TORSDOF 6
ENDMDL
MODEL 4
REMARK VINA RESULT:      -8.9      0.680      1.213
REMARK  Name = 
REMARK  7 active torsions:
REMARK  status: ('A' for Active; 'I' for Inactive)
REMARK    1  A    between atoms: C_4  and  C_5
REMARK    2  A    between atoms: C_5  and  N_6
REMARK    3  A    between atoms: N_6  and  C_7
REMARK    4  A    between atoms: C_7  and  C_8
REMARK    5  A    between atoms: C_12  and  C_13
REMARK    6  A    between atoms: N_19  and  C_20
REMARK    7  A    between atoms: C_24  and  C_25
REMARK                            x       y       z     vdW  Elec       q    Type
REMARK                         _______ _______ _______ _____ _____    ______ ____
ROOT
ATOM      1  C   UNL     1       3.676   4.504  17.653  0.00  0.00    +0.000 A 
ATOM      2  C   UNL     1       3.360   5.865  17.621  0.00  0.00    +0.000 A 
ATOM      3  C   UNL     1       2.684   6.399  18.705  0.00  0.00    +0.000 A 
ATOM      4  C   UNL     1       2.310   5.648  19.814  0.00  0.00    +0.000 A 
ATOM      5  C   UNL     1       2.590   4.289  19.870  0.00  0.00    +0.000 A 
ATOM      6  C   UNL     1       3.286   3.732  18.776  0.00  0.00    +0.000 A 
ATOM      7  C   UNL     1       1.627   6.536  20.803  0.00  0.00    +0.000 C 
ATOM      8  N   UNL     1       1.621   7.835  20.147  0.00  0.00    +0.000 N 
ATOM      9  C   UNL     1       2.242   7.781  18.898  0.00  0.00    +0.000 C 
ATOM     10  O   UNL     1       2.437   8.636  18.054  0.00  0.00    +0.000 OA
ENDROOT
BRANCH   8  11
ATOM     11  C   UNL     1       0.983   8.965  20.720  0.00  0.00    +0.000 A 
ATOM     12  C   UNL     1       0.451   8.920  22.014  0.00  0.00    +0.000 A 
ATOM     13  C   UNL     1      -0.130  10.049  22.593  0.00  0.00    +0.000 A 
ATOM     14  C   UNL     1      -0.213  11.239  21.876  0.00  0.00    +0.000 A 
ATOM     15  C   UNL     1       0.276  11.305  20.571  0.00  0.00    +0.000 A 
ATOM     16  C   UNL     1       0.140  12.557  19.757  0.00  0.00    +0.000 C 
ATOM     17  C   UNL     1       0.882  10.167  20.007  0.00  0.00    +0.000 A 
ENDBRANCH   8  11
BRANCH   5  18
ATOM     18  C   UNL     1       2.183   3.413  21.025  0.00  0.00    +0.000 C 
ATOM     19  F   UNL     1       2.450   3.957  22.245  0.00  0.00    +0.000 F 
ATOM     20  F   UNL     1       0.851   3.139  21.025  0.00  0.00    +0.000 F 
ATOM     21  F   UNL     1       2.816   2.209  21.010  0.00  0.00    +0.000 F 
ENDBRANCH   5  18
BRANCH   1  22
ATOM     22  C   UNL     1       4.445   3.872  16.514  0.00  0.00    +0.000 C 
BRANCH  22  23
ATOM     23  N   UNL     1       5.874   3.819  16.808  0.00  0.00    +0.000 NA
ATOM     24  H   UNL     1       6.025   3.968  17.802  0.00  0.00    +0.000 HD
BRANCH  23  25
ATOM     25  C   UNL     1       6.605   4.850  16.075  0.00  0.00    +0.000 C 
BRANCH  25  29
ATOM     26  C   UNL     1       6.680   5.530  19.535  0.00  0.00    +0.000 C 
ATOM     27  C   UNL     1       7.038   5.926  18.334  0.00  0.00    +0.000 C 
ATOM     28  C   UNL     1       7.209   7.029  17.477  0.00  0.00    +0.000 C 
ATOM     29  C   UNL     1       7.501   5.540  17.060  0.00  0.00    +0.000 C 
ENDBRANCH  25  29
ENDBRANCH  23  25
ENDBRANCH  22  23
ENDBRANCH   1  22
TORSDOF 6
ENDMDL
MODEL 5
REMARK VINA RESULT:      -8.9      2.467      3.824
REMARK  Name = 
REMARK  7 active torsions:
REMARK  status: ('A' for Active; 'I' for Inactive)
REMARK    1  A    between atoms: C_4  and  C_5
REMARK    2  A    between atoms: C_5  and  N_6
REMARK    3  A    between atoms: N_6  and  C_7
REMARK    4  A    between atoms: C_7  and  C_8
REMARK    5  A    between atoms: C_12  and  C_13
REMARK    6  A    between atoms: N_19  and  C_20
REMARK    7  A    between atoms: C_24  and  C_25
REMARK                            x       y       z     vdW  Elec       q    Type
REMARK                         _______ _______ _______ _____ _____    ______ ____
ROOT
ATOM      1  C   UNL     1       5.129   4.394  16.376  0.00  0.00    +0.000 A 
ATOM      2  C   UNL     1       4.880   5.752  16.590  0.00  0.00    +0.000 A 
ATOM      3  C   UNL     1       3.876   6.095  17.479  0.00  0.00    +0.000 A 
ATOM      4  C   UNL     1       3.110   5.155  18.161  0.00  0.00    +0.000 A 
ATOM      5  C   UNL     1       3.316   3.798  17.956  0.00  0.00    +0.000 A 
ATOM      6  C   UNL     1       4.343   3.433  17.059  0.00  0.00    +0.000 A 
ATOM      7  C   UNL     1       2.141   5.863  19.053  0.00  0.00    +0.000 C 
ATOM      8  N   UNL     1       2.405   7.270  18.793  0.00  0.00    +0.000 N 
ATOM      9  C   UNL     1       3.430   7.436  17.860  0.00  0.00    +0.000 C 
ATOM     10  O   UNL     1       3.936   8.434  17.384  0.00  0.00    +0.000 OA
ENDROOT
BRANCH   8  11
ATOM     11  C   UNL     1       1.633   8.302  19.386  0.00  0.00    +0.000 A 
ATOM     12  C   UNL     1       1.109   9.349  18.619  0.00  0.00    +0.000 A 
ATOM     13  C   UNL     1       0.308  10.335  19.198  0.00  0.00    +0.000 A 
ATOM     14  C   UNL     1       0.038  10.304  20.563  0.00  0.00    +0.000 A 
ATOM     15  C   UNL     1       0.575   9.293  21.360  0.00  0.00    +0.000 A 
ATOM     16  C   UNL     1       0.349   9.276  22.842  0.00  0.00    +0.000 C 
ATOM     17  C   UNL     1       1.361   8.291  20.761  0.00  0.00    +0.000 A 
ENDBRANCH   8  11
BRANCH   5  18
ATOM     18  C   UNL     1       2.501   2.731  18.636  0.00  0.00    +0.000 C 
ATOM     19  F   UNL     1       1.163   2.829  18.397  0.00  0.00    +0.000 F 
ATOM     20  F   UNL     1       2.856   1.477  18.246  0.00  0.00    +0.000 F 
ATOM     21  F   UNL     1       2.638   2.758  19.989  0.00  0.00    +0.000 F 
ENDBRANCH   5  18
BRANCH   1  22
ATOM     22  C   UNL     1       6.238   3.959  15.444  0.00  0.00    +0.000 C 
BRANCH  22  23
ATOM     23  N   UNL     1       6.546   5.000  14.468  0.00  0.00    +0.000 NA
ATOM     24  H   UNL     1       5.772   5.657  14.413  0.00  0.00    +0.000 HD
BRANCH  23  25
ATOM     25  C   UNL     1       6.758   4.435  13.137  0.00  0.00    +0.000 C 
BRANCH  25  29
ATOM     26  C   UNL     1       6.301   1.523  11.200  0.00  0.00    +0.000 C 
ATOM     27  C   UNL     1       5.724   2.539  11.802  0.00  0.00    +0.000 C 
ATOM     28  C   UNL     1       4.701   3.503  11.731  0.00  0.00    +0.000 C 
ATOM     29  C   UNL     1       5.711   3.382  12.932  0.00  0.00    +0.000 C 
ENDBRANCH  25  29
ENDBRANCH  23  25
ENDBRANCH  22  23
ENDBRANCH   1  22
TORSDOF 6
ENDMDL
MODEL 6
REMARK VINA RESULT:      -8.9      3.117      7.825
REMARK  Name = 
REMARK  7 active torsions:
REMARK  status: ('A' for Active; 'I' for Inactive)
REMARK    1  A    between atoms: C_4  and  C_5
REMARK    2  A    between atoms: C_5  and  N_6
REMARK    3  A    between atoms: N_6  and  C_7
REMARK    4  A    between atoms: C_7  and  C_8
REMARK    5  A    between atoms: C_12  and  C_13
REMARK    6  A    between atoms: N_19  and  C_20
REMARK    7  A    between atoms: C_24  and  C_25
REMARK                            x       y       z     vdW  Elec       q    Type
REMARK                         _______ _______ _______ _____ _____    ______ ____
ROOT
ATOM      1  C   UNL     1       0.369  11.500  19.308  0.00  0.00    +0.000 A 
ATOM      2  C   UNL     1       1.085  10.555  18.568  0.00  0.00    +0.000 A 
ATOM      3  C   UNL     1       1.374   9.344  19.171  0.00  0.00    +0.000 A 
ATOM      4  C   UNL     1       0.988   9.027  20.470  0.00  0.00    +0.000 A 
ATOM      5  C   UNL     1       0.293   9.950  21.240  0.00  0.00    +0.000 A 
ATOM      6  C   UNL     1      -0.017  11.187  20.636  0.00  0.00    +0.000 A 
ATOM      7  C   UNL     1       1.436   7.639  20.794  0.00  0.00    +0.000 C 
ATOM      8  N   UNL     1       2.131   7.216  19.587  0.00  0.00    +0.000 N 
ATOM      9  C   UNL     1       2.110   8.211  18.608  0.00  0.00    +0.000 C 
ATOM     10  O   UNL     1       2.571   8.247  17.482  0.00  0.00    +0.000 OA
ENDROOT
BRANCH   8  11
ATOM     11  C   UNL     1       2.793   5.964  19.500  0.00  0.00    +0.000 A 
ATOM     12  C   UNL     1       4.174   5.887  19.286  0.00  0.00    +0.000 A 
ATOM     13  C   UNL     1       4.830   4.655  19.252  0.00  0.00    +0.000 A 
ATOM     14  C   UNL     1       4.109   3.474  19.406  0.00  0.00    +0.000 A 
ATOM     15  C   UNL     1       2.726   3.518  19.586  0.00  0.00    +0.000 A 
ATOM     16  C   UNL     1       1.921   2.257  19.691  0.00  0.00    +0.000 C 
ATOM     17  C   UNL     1       2.080   4.766  19.643  0.00  0.00    +0.000 A 
ENDBRANCH   8  11
BRANCH   5  18
ATOM     18  C   UNL     1      -0.126   9.684  22.661  0.00  0.00    +0.000 C 
ATOM     19  F   UNL     1       0.916   9.421  23.499  0.00  0.00    +0.000 F 
ATOM     20  F   UNL     1      -0.788  10.737  23.213  0.00  0.00    +0.000 F 
ATOM     21  F   UNL     1      -0.963   8.617  22.764  0.00  0.00    +0.000 F 
ENDBRANCH   5  18
BRANCH   1  22
ATOM     22  C   UNL     1      -0.008  12.828  18.690  0.00  0.00    +0.000 C 
BRANCH  22  23
ATOM     23  N   UNL     1      -0.892  12.644  17.543  0.00  0.00    +0.000 NA
ATOM     24  H   UNL     1      -1.147  13.550  17.158  0.00  0.00    +0.000 HD
BRANCH  23  25
ATOM     25  C   UNL     1      -2.119  11.948  17.923  0.00  0.00    +0.000 C 
BRANCH  25  29
ATOM     26  C   UNL     1      -3.213  10.382  14.958  0.00  0.00    +0.000 C 
ATOM     27  C   UNL     1      -2.929  10.235  16.234  0.00  0.00    +0.000 C 
ATOM     28  C   UNL     1      -3.293   9.610  17.440  0.00  0.00    +0.000 C 
ATOM     29  C   UNL     1      -2.070  10.589  17.293  0.00  0.00    +0.000 C 
ENDBRANCH  25  29
ENDBRANCH  23  25
ENDBRANCH  22  23
ENDBRANCH   1  22
TORSDOF 6
ENDMDL
MODEL 7
REMARK VINA RESULT:      -8.8      3.124      7.802
REMARK  Name = 
REMARK  7 active torsions:
REMARK  status: ('A' for Active; 'I' for Inactive)
REMARK    1  A    between atoms: C_4  and  C_5
REMARK    2  A    between atoms: C_5  and  N_6
REMARK    3  A    between atoms: N_6  and  C_7
REMARK    4  A    between atoms: C_7  and  C_8
REMARK    5  A    between atoms: C_12  and  C_13
REMARK    6  A    between atoms: N_19  and  C_20
REMARK    7  A    between atoms: C_24  and  C_25
REMARK                            x       y       z     vdW  Elec       q    Type
REMARK                         _______ _______ _______ _____ _____    ______ ____
ROOT
ATOM      1  C   UNL     1       0.290  11.468  19.295  0.00  0.00    +0.000 A 
ATOM      2  C   UNL     1       1.047  10.537  18.577  0.00  0.00    +0.000 A 
ATOM      3  C   UNL     1       1.365   9.344  19.201  0.00  0.00    +0.000 A 
ATOM      4  C   UNL     1       0.970   9.032  20.498  0.00  0.00    +0.000 A 
ATOM      5  C   UNL     1       0.236   9.943  21.246  0.00  0.00    +0.000 A 
ATOM      6  C   UNL     1      -0.105  11.161  20.621  0.00  0.00    +0.000 A 
ATOM      7  C   UNL     1       1.458   7.663  20.847  0.00  0.00    +0.000 C 
ATOM      8  N   UNL     1       2.183   7.246  19.656  0.00  0.00    +0.000 N 
ATOM      9  C   UNL     1       2.144   8.227  18.663  0.00  0.00    +0.000 C 
ATOM     10  O   UNL     1       2.620   8.263  17.544  0.00  0.00    +0.000 OA
ENDROOT
BRANCH   8  11
ATOM     11  C   UNL     1       2.885   6.016  19.595  0.00  0.00    +0.000 A 
ATOM     12  C   UNL     1       2.327   4.835  20.097  0.00  0.00    +0.000 A 
ATOM     13  C   UNL     1       3.000   3.617  19.988  0.00  0.00    +0.000 A 
ATOM     14  C   UNL     1       4.259   3.563  19.397  0.00  0.00    +0.000 A 
ATOM     15  C   UNL     1       4.857   4.730  18.919  0.00  0.00    +0.000 A 
ATOM     16  C   UNL     1       6.239   4.706  18.336  0.00  0.00    +0.000 C 
ATOM     17  C   UNL     1       4.158   5.947  19.012  0.00  0.00    +0.000 A 
ENDBRANCH   8  11
BRANCH   5  18
ATOM     18  C   UNL     1      -0.195   9.682  22.665  0.00  0.00    +0.000 C 
ATOM     19  F   UNL     1      -1.005   8.595  22.800  0.00  0.00    +0.000 F 
ATOM     20  F   UNL     1       0.860   9.464  23.496  0.00  0.00    +0.000 F 
ATOM     21  F   UNL     1      -0.884  10.727  23.197  0.00  0.00    +0.000 F 
ENDBRANCH   5  18
BRANCH   1  22
ATOM     22  C   UNL     1      -0.120  12.775  18.653  0.00  0.00    +0.000 C 
BRANCH  22  23
ATOM     23  N   UNL     1      -0.986  12.549  17.500  0.00  0.00    +0.000 NA
ATOM     24  H   UNL     1      -1.232  13.439  17.076  0.00  0.00    +0.000 HD
BRANCH  23  25
ATOM     25  C   UNL     1      -2.221  11.872  17.888  0.00  0.00    +0.000 C 
BRANCH  25  29
ATOM     26  C   UNL     1      -3.070  10.225  14.887  0.00  0.00    +0.000 C 
ATOM     27  C   UNL     1      -2.924  10.121  16.190  0.00  0.00    +0.000 C 
ATOM     28  C   UNL     1      -3.436   9.561  17.375  0.00  0.00    +0.000 C 
ATOM     29  C   UNL     1      -2.164  10.487  17.318  0.00  0.00    +0.000 C 
ENDBRANCH  25  29
ENDBRANCH  23  25
ENDBRANCH  22  23
ENDBRANCH   1  22
TORSDOF 6
ENDMDL
MODEL 8
REMARK VINA RESULT:      -8.7      1.785      7.290
REMARK  Name = 
REMARK  7 active torsions:
REMARK  status: ('A' for Active; 'I' for Inactive)
REMARK    1  A    between atoms: C_4  and  C_5
REMARK    2  A    between atoms: C_5  and  N_6
REMARK    3  A    between atoms: N_6  and  C_7
REMARK    4  A    between atoms: C_7  and  C_8
REMARK    5  A    between atoms: C_12  and  C_13
REMARK    6  A    between atoms: N_19  and  C_20
REMARK    7  A    between atoms: C_24  and  C_25
REMARK                            x       y       z     vdW  Elec       q    Type
REMARK                         _______ _______ _______ _____ _____    ______ ____
ROOT
ATOM      1  C   UNL     1       1.649   6.417  20.467  0.00  0.00    +0.000 A 
ATOM      2  C   UNL     1       2.517   6.925  19.497  0.00  0.00    +0.000 A 
ATOM      3  C   UNL     1       3.104   6.029  18.621  0.00  0.00    +0.000 A 
ATOM      4  C   UNL     1       2.871   4.658  18.662  0.00  0.00    +0.000 A 
ATOM      5  C   UNL     1       2.030   4.118  19.626  0.00  0.00    +0.000 A 
ATOM      6  C   UNL     1       1.417   5.019  20.522  0.00  0.00    +0.000 A 
ATOM      7  C   UNL     1       3.637   3.993  17.564  0.00  0.00    +0.000 C 
ATOM      8  N   UNL     1       4.341   5.095  16.925  0.00  0.00    +0.000 N 
ATOM      9  C   UNL     1       4.043   6.315  17.535  0.00  0.00    +0.000 C 
ATOM     10  O   UNL     1       4.421   7.448  17.302  0.00  0.00    +0.000 OA
ENDROOT
BRANCH   8  11
ATOM     11  C   UNL     1       5.261   4.887  15.867  0.00  0.00    +0.000 A 
ATOM     12  C   UNL     1       6.598   5.287  15.977  0.00  0.00    +0.000 A 
ATOM     13  C   UNL     1       7.512   5.034  14.953  0.00  0.00    +0.000 A 
ATOM     14  C   UNL     1       7.098   4.398  13.786  0.00  0.00    +0.000 A 
ATOM     15  C   UNL     1       5.764   4.018  13.633  0.00  0.00    +0.000 A 
ATOM     16  C   UNL     1       5.282   3.389  12.359  0.00  0.00    +0.000 C 
ATOM     17  C   UNL     1       4.857   4.256  14.681  0.00  0.00    +0.000 A 
ENDBRANCH   8  11
BRANCH   5  18
ATOM     18  C   UNL     1       1.761   2.641  19.747  0.00  0.00    +0.000 C 
ATOM     19  F   UNL     1       1.087   2.299  20.881  0.00  0.00    +0.000 F 
ATOM     20  F   UNL     1       1.016   2.163  18.714  0.00  0.00    +0.000 F 
ATOM     21  F   UNL     1       2.905   1.906  19.760  0.00  0.00    +0.000 F 
ENDBRANCH   5  18
BRANCH   1  22
ATOM     22  C   UNL     1       0.950   7.351  21.430  0.00  0.00    +0.000 C 
BRANCH  22  23
ATOM     23  N   UNL     1       1.682   8.606  21.573  0.00  0.00    +0.000 NA
ATOM     24  H   UNL     1       2.246   8.579  22.418  0.00  0.00    +0.000 HD
BRANCH  23  25
ATOM     25  C   UNL     1       0.771   9.744  21.669  0.00  0.00    +0.000 C 
BRANCH  25  29
ATOM     26  C   UNL     1       0.891   9.796  18.145  0.00  0.00    +0.000 C 
ATOM     27  C   UNL     1       0.183  10.060  19.220  0.00  0.00    +0.000 C 
ATOM     28  C   UNL     1      -0.718  10.956  19.827  0.00  0.00    +0.000 C 
ATOM     29  C   UNL     1      -0.182   9.646  20.517  0.00  0.00    +0.000 C 
ENDBRANCH  25  29
ENDBRANCH  23  25
ENDBRANCH  22  23
ENDBRANCH   1  22
TORSDOF 6
ENDMDL
MODEL 9
REMARK VINA RESULT:      -8.7      1.587      2.417
REMARK  Name = 
REMARK  7 active torsions:
REMARK  status: ('A' for Active; 'I' for Inactive)
REMARK    1  A    between atoms: C_4  and  C_5
REMARK    2  A    between atoms: C_5  and  N_6
REMARK    3  A    between atoms: N_6  and  C_7
REMARK    4  A    between atoms: C_7  and  C_8
REMARK    5  A    between atoms: C_12  and  C_13
REMARK    6  A    between atoms: N_19  and  C_20
REMARK    7  A    between atoms: C_24  and  C_25
REMARK                            x       y       z     vdW  Elec       q    Type
REMARK                         _______ _______ _______ _____ _____    ______ ____
ROOT
ATOM      1  C   UNL     1       3.753   5.700  17.747  0.00  0.00    +0.000 A 
ATOM      2  C   UNL     1       3.292   7.013  17.872  0.00  0.00    +0.000 A 
ATOM      3  C   UNL     1       2.471   7.312  18.945  0.00  0.00    +0.000 A 
ATOM      4  C   UNL     1       2.089   6.372  19.897  0.00  0.00    +0.000 A 
ATOM      5  C   UNL     1       2.512   5.054  19.791  0.00  0.00    +0.000 A 
ATOM      6  C   UNL     1       3.356   4.735  18.706  0.00  0.00    +0.000 A 
ATOM      7  C   UNL     1       1.230   7.033  20.926  0.00  0.00    +0.000 C 
ATOM      8  N   UNL     1       1.136   8.408  20.459  0.00  0.00    +0.000 N 
ATOM      9  C   UNL     1       1.864   8.600  19.283  0.00  0.00    +0.000 C 
ATOM     10  O   UNL     1       2.034   9.586  18.590  0.00  0.00    +0.000 OA
ENDROOT
BRANCH   8  11
ATOM     11  C   UNL     1       0.330   9.372  21.115  0.00  0.00    +0.000 A 
ATOM     12  C   UNL     1       0.079   9.295  22.490  0.00  0.00    +0.000 A 
ATOM     13  C   UNL     1      -0.672  10.274  23.142  0.00  0.00    +0.000 A 
ATOM     14  C   UNL     1      -1.209  11.338  22.422  0.00  0.00    +0.000 A 
ATOM     15  C   UNL     1      -1.006  11.424  21.045  0.00  0.00    +0.000 A 
ATOM     16  C   UNL     1      -1.628  12.526  20.240  0.00  0.00    +0.000 C 
ATOM     17  C   UNL     1      -0.227  10.444  20.403  0.00  0.00    +0.000 A 
ENDBRANCH   8  11
BRANCH   5  18
ATOM     18  C   UNL     1       2.108   3.981  20.767  0.00  0.00    +0.000 C 
ATOM     19  F   UNL     1       2.461   4.251  22.055  0.00  0.00    +0.000 F 
ATOM     20  F   UNL     1       0.763   3.776  20.786  0.00  0.00    +0.000 F 
ATOM     21  F   UNL     1       2.669   2.776  20.474  0.00  0.00    +0.000 F 
ENDBRANCH   5  18
BRANCH   1  22
ATOM     22  C   UNL     1       4.682   5.322  16.614  0.00  0.00    +0.000 C 
BRANCH  22  23
ATOM     23  N   UNL     1       5.502   4.168  16.968  0.00  0.00    +0.000 NA
ATOM     24  H   UNL     1       6.345   4.479  17.444  0.00  0.00    +0.000 HD
BRANCH  23  25
ATOM     25  C   UNL     1       5.902   3.416  15.780  0.00  0.00    +0.000 C 
BRANCH  25  29
ATOM     26  C   UNL     1       5.805   3.220  12.261  0.00  0.00    +0.000 C 
ATOM     27  C   UNL     1       6.144   3.939  13.308  0.00  0.00    +0.000 C 
ATOM     28  C   UNL     1       7.103   4.810  13.858  0.00  0.00    +0.000 C 
ATOM     29  C   UNL     1       5.800   4.349  14.612  0.00  0.00    +0.000 C 
ENDBRANCH  25  29
ENDBRANCH  23  25
ENDBRANCH  22  23
ENDBRANCH   1  22
TORSDOF 6
ENDMDL
