MODEL 1
REMARK VINA RESULT:      -9.6      0.000      0.000
REMARK  Name = 
REMARK  6 active torsions:
REMARK  status: ('A' for Active; 'I' for Inactive)
REMARK    1  A    between atoms: C_2  and  C_3
REMARK    2  A    between atoms: C_3  and  O_4
REMARK    3  A    between atoms: O_4  and  C_5
REMARK    4  A    between atoms: C_10  and  O_11
REMARK    5  A    between atoms: C_18  and  C_19
REMARK    6  A    between atoms: C_21  and  C_22
REMARK                            x       y       z     vdW  Elec       q    Type
REMARK                         _______ _______ _______ _____ _____    ______ ____
ROOT
ATOM      1  O   UNL     1       6.866   6.526  18.030  0.00  0.00    +0.000 OA
ATOM      2  C   UNL     1       6.398   5.490  17.549  0.00  0.00    +0.000 C 
ATOM      3  N   UNL     1       5.112   5.083  17.842  0.00  0.00    +0.000 N 
ATOM      4  C   UNL     1       4.375   3.980  17.332  0.00  0.00    +0.000 C 
ATOM      5  C   UNL     1       2.948   4.298  17.784  0.00  0.00    +0.000 C 
ATOM      6  C   UNL     1       2.281   2.987  18.234  0.00  0.00    +0.000 C 
ATOM      7  C   UNL     1       1.180   3.449  19.143  0.00  0.00    +0.000 C 
ATOM      8  C   UNL     1       1.321   4.955  19.078  0.00  0.00    +0.000 C 
ATOM      9  C   UNL     1       2.911   5.268  19.069  0.00  0.00    +0.000 C 
ATOM     10  C   UNL     1       4.213   6.000  18.476  0.00  0.00    +0.000 C 
ENDROOT
BRANCH   9  11
ATOM     11  C   UNL     1       2.494   6.707  19.487  0.00  0.00    +0.000 A 
ATOM     12  N   UNL     1       2.166   7.253  20.642  0.00  0.00    +0.000 NA
ATOM     13  C   UNL     1       1.554   8.433  20.238  0.00  0.00    +0.000 A 
ATOM     14  N   UNL     1       1.660   8.675  18.925  0.00  0.00    +0.000 NA
ATOM     15  O   UNL     1       2.257   7.533  18.419  0.00  0.00    +0.000 OA
BRANCH  13  16
ATOM     16  C   UNL     1       0.757   9.252  21.132  0.00  0.00    +0.000 A 
ATOM     17  C   UNL     1      -0.251  10.091  20.644  0.00  0.00    +0.000 A 
ATOM     18  C   UNL     1      -1.054  10.806  21.529  0.00  0.00    +0.000 A 
ATOM     19  C   UNL     1      -0.821  10.663  22.885  0.00  0.00    +0.000 A 
ATOM     20  N   UNL     1       0.143   9.869  23.400  0.00  0.00    +0.000 NA
ATOM     21  C   UNL     1       0.904   9.176  22.513  0.00  0.00    +0.000 A 
ENDBRANCH  13  16
ENDBRANCH   9  11
BRANCH   2  22
ATOM     22  C   UNL     1       7.221   4.665  16.571  0.00  0.00    +0.000 C 
BRANCH  22  23
ATOM     23  O   UNL     1       7.429   5.398  15.383  0.00  0.00    +0.000 OA
BRANCH  23  24
ATOM     24  C   UNL     1       7.011   4.818  14.215  0.00  0.00    +0.000 A 
ATOM     25  C   UNL     1       5.912   3.960  14.089  0.00  0.00    +0.000 A 
ATOM     26  C   UNL     1       5.598   3.392  12.850  0.00  0.00    +0.000 A 
ATOM     27  C   UNL     1       6.375   3.679  11.730  0.00  0.00    +0.000 A 
ATOM     28  C   UNL     1       7.459   4.547  11.838  0.00  0.00    +0.000 A 
ATOM     29  C   UNL     1       7.769   5.112  13.075  0.00  0.00    +0.000 A 
BRANCH  29  30
ATOM     30  O   UNL     1       8.833   5.968  13.186  0.00  0.00    +0.000 OA
ATOM     31  H   UNL     1       9.178   6.158  12.300  0.00  0.00    +0.000 HD
ENDBRANCH  29  30
ENDBRANCH  23  24
ENDBRANCH  22  23
ENDBRANCH   2  22
TORSDOF 6
ENDMDL
MODEL 2
REMARK VINA RESULT:      -9.1      1.557      2.111
REMARK  Name = 
REMARK  6 active torsions:
REMARK  status: ('A' for Active; 'I' for Inactive)
REMARK    1  A    between atoms: C_2  and  C_3
REMARK    2  A    between atoms: C_3  and  O_4
REMARK    3  A    between atoms: O_4  and  C_5
REMARK    4  A    between atoms: C_10  and  O_11
REMARK    5  A    between atoms: C_18  and  C_19
REMARK    6  A    between atoms: C_21  and  C_22
REMARK                            x       y       z     vdW  Elec       q    Type
REMARK                         _______ _______ _______ _____ _____    ______ ____
ROOT
ATOM      1  O   UNL     1       6.226   6.987  17.455  0.00  0.00    +0.000 OA
ATOM      2  C   UNL     1       6.134   5.759  17.550  0.00  0.00    +0.000 C 
ATOM      3  N   UNL     1       5.138   5.174  18.307  0.00  0.00    +0.000 N 
ATOM      4  C   UNL     1       4.821   3.799  18.473  0.00  0.00    +0.000 C 
ATOM      5  C   UNL     1       3.440   3.855  19.131  0.00  0.00    +0.000 C 
ATOM      6  C   UNL     1       3.373   2.759  20.207  0.00  0.00    +0.000 C 
ATOM      7  C   UNL     1       2.289   3.238  21.128  0.00  0.00    +0.000 C 
ATOM      8  C   UNL     1       1.842   4.519  20.457  0.00  0.00    +0.000 C 
ATOM      9  C   UNL     1       3.184   5.243  19.906  0.00  0.00    +0.000 C 
ATOM     10  C   UNL     1       4.037   5.971  18.756  0.00  0.00    +0.000 C 
ENDROOT
BRANCH   9  11
ATOM     11  C   UNL     1       2.304   6.523  19.838  0.00  0.00    +0.000 A 
ATOM     12  N   UNL     1       2.255   7.542  19.003  0.00  0.00    +0.000 NA
ATOM     13  C   UNL     1       1.531   8.478  19.733  0.00  0.00    +0.000 A 
ATOM     14  N   UNL     1       1.020   7.995  20.872  0.00  0.00    +0.000 NA
ATOM     15  O   UNL     1       1.542   6.716  20.961  0.00  0.00    +0.000 OA
BRANCH  13  16
ATOM     16  C   UNL     1       1.457   9.879  19.361  0.00  0.00    +0.000 A 
ATOM     17  C   UNL     1       0.757  10.801  20.147  0.00  0.00    +0.000 A 
ATOM     18  C   UNL     1       0.767  12.154  19.811  0.00  0.00    +0.000 A 
ATOM     19  C   UNL     1       1.479  12.544  18.692  0.00  0.00    +0.000 A 
ATOM     20  N   UNL     1       2.165  11.687  17.904  0.00  0.00    +0.000 NA
ATOM     21  C   UNL     1       2.145  10.377  18.260  0.00  0.00    +0.000 A 
ENDBRANCH  13  16
ENDBRANCH   9  11
BRANCH   2  22
ATOM     22  C   UNL     1       7.091   4.862  16.782  0.00  0.00    +0.000 C 
BRANCH  22  23
ATOM     23  O   UNL     1       7.436   5.469  15.554  0.00  0.00    +0.000 OA
BRANCH  23  24
ATOM     24  C   UNL     1       6.989   4.857  14.413  0.00  0.00    +0.000 A 
ATOM     25  C   UNL     1       5.876   4.012  14.334  0.00  0.00    +0.000 A 
ATOM     26  C   UNL     1       5.533   3.409  13.120  0.00  0.00    +0.000 A 
ATOM     27  C   UNL     1       6.294   3.647  11.978  0.00  0.00    +0.000 A 
ATOM     28  C   UNL     1       7.393   4.501  12.040  0.00  0.00    +0.000 A 
ATOM     29  C   UNL     1       7.733   5.102  13.252  0.00  0.00    +0.000 A 
BRANCH  29  30
ATOM     30  O   UNL     1       8.810   5.945  13.317  0.00  0.00    +0.000 OA
ATOM     31  H   UNL     1       8.763   6.453  14.142  0.00  0.00    +0.000 HD
ENDBRANCH  29  30
ENDBRANCH  23  24
ENDBRANCH  22  23
ENDBRANCH   2  22
TORSDOF 6
ENDMDL
MODEL 3
REMARK VINA RESULT:      -8.9      1.647      1.975
REMARK  Name = 
REMARK  6 active torsions:
REMARK  status: ('A' for Active; 'I' for Inactive)
REMARK    1  A    between atoms: C_2  and  C_3
REMARK    2  A    between atoms: C_3  and  O_4
REMARK    3  A    between atoms: O_4  and  C_5
REMARK    4  A    between atoms: C_10  and  O_11
REMARK    5  A    between atoms: C_18  and  C_19
REMARK    6  A    between atoms: C_21  and  C_22
REMARK                            x       y       z     vdW  Elec       q    Type
REMARK                         _______ _______ _______ _____ _____    ______ ____
ROOT
ATOM      1  O   UNL     1       6.277   6.908  16.468  0.00  0.00    +0.000 OA
ATOM      2  C   UNL     1       5.989   5.773  16.861  0.00  0.00    +0.000 C 
ATOM      3  N   UNL     1       4.957   5.568  17.755  0.00  0.00    +0.000 N 
ATOM      4  C   UNL     1       4.427   4.349  18.257  0.00  0.00    +0.000 C 
ATOM      5  C   UNL     1       3.116   4.799  18.904  0.00  0.00    +0.000 C 
ATOM      6  C   UNL     1       2.932   4.020  20.217  0.00  0.00    +0.000 C 
ATOM      7  C   UNL     1       1.997   4.885  21.010  0.00  0.00    +0.000 C 
ATOM      8  C   UNL     1       1.729   6.028  20.054  0.00  0.00    +0.000 C 
ATOM      9  C   UNL     1       3.138   6.355  19.321  0.00  0.00    +0.000 C 
ATOM     10  C   UNL     1       4.031   6.628  18.013  0.00  0.00    +0.000 C 
ENDROOT
BRANCH   9  11
ATOM     11  C   UNL     1       2.479   7.715  18.956  0.00  0.00    +0.000 A 
ATOM     12  N   UNL     1       1.597   8.484  19.564  0.00  0.00    +0.000 NA
ATOM     13  C   UNL     1       1.184   9.319  18.532  0.00  0.00    +0.000 A 
ATOM     14  N   UNL     1       1.898   9.182  17.408  0.00  0.00    +0.000 NA
ATOM     15  O   UNL     1       2.738   8.113  17.670  0.00  0.00    +0.000 OA
BRANCH  13  16
ATOM     16  C   UNL     1       0.002  10.156  18.623  0.00  0.00    +0.000 A 
ATOM     17  C   UNL     1      -1.019  10.076  17.670  0.00  0.00    +0.000 A 
ATOM     18  C   UNL     1      -2.179  10.834  17.823  0.00  0.00    +0.000 A 
ATOM     19  C   UNL     1      -2.281  11.655  18.931  0.00  0.00    +0.000 A 
ATOM     20  N   UNL     1      -1.319  11.766  19.873  0.00  0.00    +0.000 NA
ATOM     21  C   UNL     1      -0.204  11.009  19.703  0.00  0.00    +0.000 A 
ENDBRANCH  13  16
ENDBRANCH   9  11
BRANCH   2  22
ATOM     22  C   UNL     1       6.739   4.566  16.320  0.00  0.00    +0.000 C 
BRANCH  22  23
ATOM     23  O   UNL     1       7.525   4.949  15.211  0.00  0.00    +0.000 OA
BRANCH  23  24
ATOM     24  C   UNL     1       7.098   4.535  13.977  0.00  0.00    +0.000 A 
ATOM     25  C   UNL     1       6.023   3.670  13.743  0.00  0.00    +0.000 A 
ATOM     26  C   UNL     1       5.699   3.283  12.439  0.00  0.00    +0.000 A 
ATOM     27  C   UNL     1       6.441   3.759  11.361  0.00  0.00    +0.000 A 
ATOM     28  C   UNL     1       7.502   4.637  11.579  0.00  0.00    +0.000 A 
ATOM     29  C   UNL     1       7.822   5.021  12.881  0.00  0.00    +0.000 A 
BRANCH  29  30
ATOM     30  O   UNL     1       8.861   5.886  13.100  0.00  0.00    +0.000 OA
ATOM     31  H   UNL     1       9.505   5.462  13.690  0.00  0.00    +0.000 HD
ENDBRANCH  29  30
ENDBRANCH  23  24
ENDBRANCH  22  23
ENDBRANCH   2  22
TORSDOF 6
ENDMDL
MODEL 4
REMARK VINA RESULT:      -8.9      1.405      1.979
REMARK  Name = 
REMARK  6 active torsions:
REMARK  status: ('A' for Active; 'I' for Inactive)
REMARK    1  A    between atoms: C_2  and  C_3
REMARK    2  A    between atoms: C_3  and  O_4
REMARK    3  A    between atoms: O_4  and  C_5
REMARK    4  A    between atoms: C_10  and  O_11
REMARK    5  A    between atoms: C_18  and  C_19
REMARK    6  A    between atoms: C_21  and  C_22
REMARK                            x       y       z     vdW  Elec       q    Type
REMARK                         _______ _______ _______ _____ _____    ______ ____
ROOT
ATOM      1  O   UNL     1       6.611   6.474  18.040  0.00  0.00    +0.000 OA
ATOM      2  C   UNL     1       6.364   5.381  17.521  0.00  0.00    +0.000 C 
ATOM      3  N   UNL     1       5.145   4.761  17.709  0.00  0.00    +0.000 N 
ATOM      4  C   UNL     1       4.646   3.558  17.139  0.00  0.00    +0.000 C 
ATOM      5  C   UNL     1       3.155   3.626  17.474  0.00  0.00    +0.000 C 
ATOM      6  C   UNL     1       2.683   2.216  17.866  0.00  0.00    +0.000 C 
ATOM      7  C   UNL     1       1.451   2.474  18.684  0.00  0.00    +0.000 C 
ATOM      8  C   UNL     1       1.342   3.983  18.633  0.00  0.00    +0.000 C 
ATOM      9  C   UNL     1       2.853   4.557  18.753  0.00  0.00    +0.000 C 
ATOM     10  C   UNL     1       4.057   5.505  18.269  0.00  0.00    +0.000 C 
ENDROOT
BRANCH   9  11
ATOM     11  C   UNL     1       2.169   5.900  19.139  0.00  0.00    +0.000 A 
ATOM     12  N   UNL     1       1.855   6.982  18.456  0.00  0.00    +0.000 NA
ATOM     13  C   UNL     1       1.631   7.907  19.470  0.00  0.00    +0.000 A 
ATOM     14  N   UNL     1       1.637   7.373  20.698  0.00  0.00    +0.000 NA
ATOM     15  O   UNL     1       2.012   6.056  20.492  0.00  0.00    +0.000 OA
BRANCH  13  16
ATOM     16  C   UNL     1       1.540   9.335  19.227  0.00  0.00    +0.000 A 
ATOM     17  C   UNL     1       0.842  10.176  20.099  0.00  0.00    +0.000 A 
ATOM     18  C   UNL     1       0.835  11.553  19.886  0.00  0.00    +0.000 A 
ATOM     19  C   UNL     1       1.531  12.049  18.799  0.00  0.00    +0.000 A 
ATOM     20  N   UNL     1       2.215  11.274  17.930  0.00  0.00    +0.000 NA
ATOM     21  C   UNL     1       2.212   9.937  18.168  0.00  0.00    +0.000 A 
ENDBRANCH  13  16
ENDBRANCH   9  11
BRANCH   2  22
ATOM     22  C   UNL     1       7.388   4.720  16.612  0.00  0.00    +0.000 C 
BRANCH  22  23
ATOM     23  O   UNL     1       7.519   5.463  15.419  0.00  0.00    +0.000 OA
BRANCH  23  24
ATOM     24  C   UNL     1       7.096   4.861  14.264  0.00  0.00    +0.000 A 
ATOM     25  C   UNL     1       6.014   3.979  14.164  0.00  0.00    +0.000 A 
ATOM     26  C   UNL     1       5.693   3.391  12.937  0.00  0.00    +0.000 A 
ATOM     27  C   UNL     1       6.445   3.683  11.801  0.00  0.00    +0.000 A 
ATOM     28  C   UNL     1       7.512   4.575  11.883  0.00  0.00    +0.000 A 
ATOM     29  C   UNL     1       7.829   5.160  13.109  0.00  0.00    +0.000 A 
BRANCH  29  30
ATOM     30  O   UNL     1       8.875   6.040  13.194  0.00  0.00    +0.000 OA
ATOM     31  H   UNL     1       9.707   5.552  13.090  0.00  0.00    +0.000 HD
ENDBRANCH  29  30
ENDBRANCH  23  24
ENDBRANCH  22  23
ENDBRANCH   2  22
TORSDOF 6
ENDMDL
MODEL 5
REMARK VINA RESULT:      -8.7      2.082      9.419
REMARK  Name = 
REMARK  6 active torsions:
REMARK  status: ('A' for Active; 'I' for Inactive)
REMARK    1  A    between atoms: C_2  and  C_3
REMARK    2  A    between atoms: C_3  and  O_4
REMARK    3  A    between atoms: O_4  and  C_5
REMARK    4  A    between atoms: C_10  and  O_11
REMARK    5  A    between atoms: C_18  and  C_19
REMARK    6  A    between atoms: C_21  and  C_22
REMARK                            x       y       z     vdW  Elec       q    Type
REMARK                         _______ _______ _______ _____ _____    ______ ____
ROOT
ATOM      1  O   UNL     1       2.289   8.381  19.058  0.00  0.00    +0.000 OA
ATOM      2  C   UNL     1       1.906   7.558  19.895  0.00  0.00    +0.000 C 
ATOM      3  N   UNL     1       2.203   6.216  19.765  0.00  0.00    +0.000 N 
ATOM      4  C   UNL     1       1.926   5.140  20.650  0.00  0.00    +0.000 C 
ATOM      5  C   UNL     1       2.805   4.018  20.093  0.00  0.00    +0.000 C 
ATOM      6  C   UNL     1       2.016   2.700  20.173  0.00  0.00    +0.000 C 
ATOM      7  C   UNL     1       2.678   1.832  19.143  0.00  0.00    +0.000 C 
ATOM      8  C   UNL     1       3.780   2.732  18.626  0.00  0.00    +0.000 C 
ATOM      9  C   UNL     1       3.152   4.224  18.534  0.00  0.00    +0.000 C 
ATOM     10  C   UNL     1       3.194   5.805  18.817  0.00  0.00    +0.000 C 
ENDROOT
BRANCH   9  11
ATOM     11  C   UNL     1       4.350   4.525  17.590  0.00  0.00    +0.000 A 
ATOM     12  N   UNL     1       4.439   4.820  16.308  0.00  0.00    +0.000 NA
ATOM     13  C   UNL     1       5.785   4.586  16.052  0.00  0.00    +0.000 A 
ATOM     14  N   UNL     1       6.508   4.334  17.150  0.00  0.00    +0.000 NA
ATOM     15  O   UNL     1       5.568   4.269  18.165  0.00  0.00    +0.000 OA
BRANCH  13  16
ATOM     16  C   UNL     1       6.324   4.487  14.708  0.00  0.00    +0.000 A 
ATOM     17  C   UNL     1       5.781   3.600  13.772  0.00  0.00    +0.000 A 
ATOM     18  C   UNL     1       6.265   3.580  12.465  0.00  0.00    +0.000 A 
ATOM     19  C   UNL     1       7.285   4.453  12.133  0.00  0.00    +0.000 A 
ATOM     20  N   UNL     1       7.840   5.323  13.005  0.00  0.00    +0.000 NA
ATOM     21  C   UNL     1       7.342   5.326  14.269  0.00  0.00    +0.000 A 
ENDBRANCH  13  16
ENDBRANCH   9  11
BRANCH   2  22
ATOM     22  C   UNL     1       1.140   8.021  21.124  0.00  0.00    +0.000 C 
BRANCH  22  23
ATOM     23  O   UNL     1       1.423   9.380  21.381  0.00  0.00    +0.000 OA
BRANCH  23  24
ATOM     24  C   UNL     1       0.357  10.238  21.421  0.00  0.00    +0.000 A 
ATOM     25  C   UNL     1      -0.167  10.926  20.321  0.00  0.00    +0.000 A 
ATOM     26  C   UNL     1      -1.238  11.810  20.485  0.00  0.00    +0.000 A 
ATOM     27  C   UNL     1      -1.796  12.010  21.746  0.00  0.00    +0.000 A 
ATOM     28  C   UNL     1      -1.296  11.316  22.846  0.00  0.00    +0.000 A 
ATOM     29  C   UNL     1      -0.228  10.435  22.679  0.00  0.00    +0.000 A 
BRANCH  29  30
ATOM     30  O   UNL     1       0.265   9.748  23.756  0.00  0.00    +0.000 OA
ATOM     31  H   UNL     1       1.035  10.221  24.106  0.00  0.00    +0.000 HD
ENDBRANCH  29  30
ENDBRANCH  23  24
ENDBRANCH  22  23
ENDBRANCH   2  22
TORSDOF 6
ENDMDL
MODEL 6
REMARK VINA RESULT:      -8.6      1.302      1.794
REMARK  Name = 
REMARK  6 active torsions:
REMARK  status: ('A' for Active; 'I' for Inactive)
REMARK    1  A    between atoms: C_2  and  C_3
REMARK    2  A    between atoms: C_3  and  O_4
REMARK    3  A    between atoms: O_4  and  C_5
REMARK    4  A    between atoms: C_10  and  O_11
REMARK    5  A    between atoms: C_18  and  C_19
REMARK    6  A    between atoms: C_21  and  C_22
REMARK                            x       y       z     vdW  Elec       q    Type
REMARK                         _______ _______ _______ _____ _____    ______ ____
ROOT
ATOM      1  O   UNL     1       4.889   5.909  16.416  0.00  0.00    +0.000 OA
ATOM      2  C   UNL     1       4.360   4.796  16.494  0.00  0.00    +0.000 C 
ATOM      3  N   UNL     1       3.520   4.477  17.543  0.00  0.00    +0.000 N 
ATOM      4  C   UNL     1       2.762   3.296  17.765  0.00  0.00    +0.000 C 
ATOM      5  C   UNL     1       1.809   3.719  18.885  0.00  0.00    +0.000 C 
ATOM      6  C   UNL     1       1.672   2.548  19.871  0.00  0.00    +0.000 C 
ATOM      7  C   UNL     1       1.225   3.210  21.142  0.00  0.00    +0.000 C 
ATOM      8  C   UNL     1       1.124   4.663  20.728  0.00  0.00    +0.000 C 
ATOM      9  C   UNL     1       2.384   4.951  19.749  0.00  0.00    +0.000 C 
ATOM     10  C   UNL     1       3.030   5.520  18.392  0.00  0.00    +0.000 C 
ENDROOT
BRANCH   9  11
ATOM     11  C   UNL     1       2.106   6.451  20.053  0.00  0.00    +0.000 A 
ATOM     12  N   UNL     1       1.513   7.075  21.051  0.00  0.00    +0.000 NA
ATOM     13  C   UNL     1       1.282   8.333  20.507  0.00  0.00    +0.000 A 
ATOM     14  N   UNL     1       1.857   8.517  19.311  0.00  0.00    +0.000 NA
ATOM     15  O   UNL     1       2.382   7.276  18.995  0.00  0.00    +0.000 OA
BRANCH  13  16
ATOM     16  C   UNL     1       0.387   9.300  21.114  0.00  0.00    +0.000 A 
ATOM     17  C   UNL     1       0.263   9.402  22.504  0.00  0.00    +0.000 A 
ATOM     18  C   UNL     1      -0.543  10.391  23.063  0.00  0.00    +0.000 A 
ATOM     19  C   UNL     1      -1.207  11.253  22.210  0.00  0.00    +0.000 A 
ATOM     20  N   UNL     1      -1.119  11.189  20.863  0.00  0.00    +0.000 NA
ATOM     21  C   UNL     1      -0.319  10.220  20.346  0.00  0.00    +0.000 A 
ENDBRANCH  13  16
ENDBRANCH   9  11
BRANCH   2  22
ATOM     22  C   UNL     1       4.583   3.767  15.398  0.00  0.00    +0.000 C 
BRANCH  22  23
ATOM     23  O   UNL     1       5.967   3.569  15.201  0.00  0.00    +0.000 OA
BRANCH  23  24
ATOM     24  C   UNL     1       6.496   4.015  14.019  0.00  0.00    +0.000 A 
ATOM     25  C   UNL     1       6.251   3.449  12.763  0.00  0.00    +0.000 A 
ATOM     26  C   UNL     1       6.877   3.964  11.623  0.00  0.00    +0.000 A 
ATOM     27  C   UNL     1       7.745   5.048  11.728  0.00  0.00    +0.000 A 
ATOM     28  C   UNL     1       7.982   5.632  12.971  0.00  0.00    +0.000 A 
ATOM     29  C   UNL     1       7.356   5.117  14.106  0.00  0.00    +0.000 A 
BRANCH  29  30
ATOM     30  O   UNL     1       7.582   5.689  15.329  0.00  0.00    +0.000 OA
ATOM     31  H   UNL     1       8.508   5.545  15.578  0.00  0.00    +0.000 HD
ENDBRANCH  29  30
ENDBRANCH  23  24
ENDBRANCH  22  23
ENDBRANCH   2  22
TORSDOF 6
ENDMDL
MODEL 7
REMARK VINA RESULT:      -8.4      2.702      9.185
REMARK  Name = 
REMARK  6 active torsions:
REMARK  status: ('A' for Active; 'I' for Inactive)
REMARK    1  A    between atoms: C_2  and  C_3
REMARK    2  A    between atoms: C_3  and  O_4
REMARK    3  A    between atoms: O_4  and  C_5
REMARK    4  A    between atoms: C_10  and  O_11
REMARK    5  A    between atoms: C_18  and  C_19
REMARK    6  A    between atoms: C_21  and  C_22
REMARK                            x       y       z     vdW  Elec       q    Type
REMARK                         _______ _______ _______ _____ _____    ______ ____
ROOT
ATOM      1  O   UNL     1       2.211   9.328  17.382  0.00  0.00    +0.000 OA
ATOM      2  C   UNL     1       1.825   8.895  18.472  0.00  0.00    +0.000 C 
ATOM      3  N   UNL     1       2.176   7.631  18.904  0.00  0.00    +0.000 N 
ATOM      4  C   UNL     1       1.903   6.993  20.143  0.00  0.00    +0.000 C 
ATOM      5  C   UNL     1       2.844   5.786  20.109  0.00  0.00    +0.000 C 
ATOM      6  C   UNL     1       2.101   4.577  20.698  0.00  0.00    +0.000 C 
ATOM      7  C   UNL     1       2.835   3.400  20.123  0.00  0.00    +0.000 C 
ATOM      8  C   UNL     1       3.923   4.068  19.310  0.00  0.00    +0.000 C 
ATOM      9  C   UNL     1       3.245   5.362  18.607  0.00  0.00    +0.000 C 
ATOM     10  C   UNL     1       3.218   6.922  18.225  0.00  0.00    +0.000 C 
ENDROOT
BRANCH   9  11
ATOM     11  C   UNL     1       4.468   5.315  17.648  0.00  0.00    +0.000 A 
ATOM     12  N   UNL     1       4.614   5.547  16.359  0.00  0.00    +0.000 NA
ATOM     13  C   UNL     1       5.848   4.960  16.100  0.00  0.00    +0.000 A 
ATOM     14  N   UNL     1       6.493   4.551  17.200  0.00  0.00    +0.000 NA
ATOM     15  O   UNL     1       5.582   4.760  18.222  0.00  0.00    +0.000 OA
BRANCH  13  16
ATOM     16  C   UNL     1       6.324   4.692  14.755  0.00  0.00    +0.000 A 
ATOM     17  C   UNL     1       5.684   3.760  13.931  0.00  0.00    +0.000 A 
ATOM     18  C   UNL     1       6.113   3.578  12.618  0.00  0.00    +0.000 A 
ATOM     19  C   UNL     1       7.177   4.338  12.167  0.00  0.00    +0.000 A 
ATOM     20  N   UNL     1       7.826   5.246  12.929  0.00  0.00    +0.000 NA
ATOM     21  C   UNL     1       7.380   5.408  14.202  0.00  0.00    +0.000 A 
ENDBRANCH  13  16
ENDBRANCH   9  11
BRANCH   2  22
ATOM     22  C   UNL     1       0.994   9.777  19.391  0.00  0.00    +0.000 C 
BRANCH  22  23
ATOM     23  O   UNL     1       0.323  10.760  18.633  0.00  0.00    +0.000 OA
BRANCH  23  24
ATOM     24  C   UNL     1       0.545  12.067  18.976  0.00  0.00    +0.000 A 
ATOM     25  C   UNL     1       1.519  12.509  19.879  0.00  0.00    +0.000 A 
ATOM     26  C   UNL     1       1.633  13.868  20.186  0.00  0.00    +0.000 A 
ATOM     27  C   UNL     1       0.780  14.796  19.591  0.00  0.00    +0.000 A 
ATOM     28  C   UNL     1      -0.181  14.371  18.676  0.00  0.00    +0.000 A 
ATOM     29  C   UNL     1      -0.291  13.014  18.372  0.00  0.00    +0.000 A 
BRANCH  29  30
ATOM     30  O   UNL     1      -1.232  12.591  17.470  0.00  0.00    +0.000 OA
ATOM     31  H   UNL     1      -0.784  12.159  16.727  0.00  0.00    +0.000 HD
ENDBRANCH  29  30
ENDBRANCH  23  24
ENDBRANCH  22  23
ENDBRANCH   2  22
TORSDOF 6
ENDMDL
MODEL 8
REMARK VINA RESULT:      -8.4      4.283      6.989
REMARK  Name = 
REMARK  6 active torsions:
REMARK  status: ('A' for Active; 'I' for Inactive)
REMARK    1  A    between atoms: C_2  and  C_3
REMARK    2  A    between atoms: C_3  and  O_4
REMARK    3  A    between atoms: O_4  and  C_5
REMARK    4  A    between atoms: C_10  and  O_11
REMARK    5  A    between atoms: C_18  and  C_19
REMARK    6  A    between atoms: C_21  and  C_22
REMARK                            x       y       z     vdW  Elec       q    Type
REMARK                         _______ _______ _______ _____ _____    ______ ____
ROOT
ATOM      1  O   UNL     1       2.171   8.669  17.303  0.00  0.00    +0.000 OA
ATOM      2  C   UNL     1       2.283   8.199  18.439  0.00  0.00    +0.000 C 
ATOM      3  N   UNL     1       1.531   8.686  19.490  0.00  0.00    +0.000 N 
ATOM      4  C   UNL     1       1.459   8.231  20.834  0.00  0.00    +0.000 C 
ATOM      5  C   UNL     1       0.218   8.955  21.362  0.00  0.00    +0.000 C 
ATOM      6  C   UNL     1       0.502   9.413  22.802  0.00  0.00    +0.000 C 
ATOM      7  C   UNL     1      -0.470  10.538  23.010  0.00  0.00    +0.000 C 
ATOM      8  C   UNL     1      -1.213  10.567  21.692  0.00  0.00    +0.000 C 
ATOM      9  C   UNL     1      -0.110  10.298  20.535  0.00  0.00    +0.000 C 
ATOM     10  C   UNL     1       0.415   9.540  19.218  0.00  0.00    +0.000 C 
ENDROOT
BRANCH   9  11
ATOM     11  C   UNL     1      -1.172  10.895  19.569  0.00  0.00    +0.000 A 
ATOM     12  N   UNL     1      -2.155  11.758  19.730  0.00  0.00    +0.000 NA
ATOM     13  C   UNL     1      -2.916  11.545  18.586  0.00  0.00    +0.000 A 
ATOM     14  N   UNL     1      -2.337  10.727  17.698  0.00  0.00    +0.000 NA
ATOM     15  O   UNL     1      -1.199  10.276  18.346  0.00  0.00    +0.000 OA
BRANCH  13  16
ATOM     16  C   UNL     1      -4.268  12.050  18.434  0.00  0.00    +0.000 A 
ATOM     17  C   UNL     1      -4.946  11.953  17.214  0.00  0.00    +0.000 A 
ATOM     18  C   UNL     1      -6.270  12.374  17.116  0.00  0.00    +0.000 A 
ATOM     19  C   UNL     1      -6.879  12.884  18.247  0.00  0.00    +0.000 A 
ATOM     20  N   UNL     1      -6.262  12.999  19.444  0.00  0.00    +0.000 NA
ATOM     21  C   UNL     1      -4.974  12.572  19.512  0.00  0.00    +0.000 A 
ENDBRANCH  13  16
ENDBRANCH   9  11
BRANCH   2  22
ATOM     22  C   UNL     1       3.220   7.029  18.691  0.00  0.00    +0.000 C 
BRANCH  22  23
ATOM     23  O   UNL     1       2.652   5.842  18.180  0.00  0.00    +0.000 OA
BRANCH  23  24
ATOM     24  C   UNL     1       2.219   4.918  19.094  0.00  0.00    +0.000 A 
ATOM     25  C   UNL     1       2.548   4.916  20.455  0.00  0.00    +0.000 A 
ATOM     26  C   UNL     1       2.079   3.898  21.292  0.00  0.00    +0.000 A 
ATOM     27  C   UNL     1       1.277   2.881  20.780  0.00  0.00    +0.000 A 
ATOM     28  C   UNL     1       0.927   2.884  19.431  0.00  0.00    +0.000 A 
ATOM     29  C   UNL     1       1.396   3.900  18.599  0.00  0.00    +0.000 A 
BRANCH  29  30
ATOM     30  O   UNL     1       1.052   3.909  17.273  0.00  0.00    +0.000 OA
ATOM     31  H   UNL     1       0.427   4.633  17.114  0.00  0.00    +0.000 HD
ENDBRANCH  29  30
ENDBRANCH  23  24
ENDBRANCH  22  23
ENDBRANCH   2  22
TORSDOF 6
ENDMDL
MODEL 9
REMARK VINA RESULT:      -8.3      2.079      9.055
REMARK  Name = 
REMARK  6 active torsions:
REMARK  status: ('A' for Active; 'I' for Inactive)
REMARK    1  A    between atoms: C_2  and  C_3
REMARK    2  A    between atoms: C_3  and  O_4
REMARK    3  A    between atoms: O_4  and  C_5
REMARK    4  A    between atoms: C_10  and  O_11
REMARK    5  A    between atoms: C_18  and  C_19
REMARK    6  A    between atoms: C_21  and  C_22
REMARK                            x       y       z     vdW  Elec       q    Type
REMARK                         _______ _______ _______ _____ _____    ______ ____
ROOT
ATOM      1  O   UNL     1       2.238   8.911  18.525  0.00  0.00    +0.000 OA
ATOM      2  C   UNL     1       1.841   8.246  19.487  0.00  0.00    +0.000 C 
ATOM      3  N   UNL     1       2.142   6.903  19.601  0.00  0.00    +0.000 N 
ATOM      4  C   UNL     1       1.850   5.999  20.657  0.00  0.00    +0.000 C 
ATOM      5  C   UNL     1       2.740   4.800  20.322  0.00  0.00    +0.000 C 
ATOM      6  C   UNL     1       1.952   3.514  20.619  0.00  0.00    +0.000 C 
ATOM      7  C   UNL     1       2.633   2.481  19.770  0.00  0.00    +0.000 C 
ATOM      8  C   UNL     1       3.744   3.281  19.122  0.00  0.00    +0.000 C 
ATOM      9  C   UNL     1       3.115   4.730  18.757  0.00  0.00    +0.000 C 
ATOM     10  C   UNL     1       3.150   6.337  18.757  0.00  0.00    +0.000 C 
ENDROOT
BRANCH   9  11
ATOM     11  C   UNL     1       4.330   4.866  17.796  0.00  0.00    +0.000 A 
ATOM     12  N   UNL     1       4.439   5.141  16.512  0.00  0.00    +0.000 NA
ATOM     13  C   UNL     1       5.739   4.729  16.239  0.00  0.00    +0.000 A 
ATOM     14  N   UNL     1       6.437   4.387  17.330  0.00  0.00    +0.000 NA
ATOM     15  O   UNL     1       5.511   4.452  18.357  0.00  0.00    +0.000 OA
BRANCH  13  16
ATOM     16  C   UNL     1       6.242   4.555  14.889  0.00  0.00    +0.000 A 
ATOM     17  C   UNL     1       5.618   3.682  13.990  0.00  0.00    +0.000 A 
ATOM     18  C   UNL     1       6.072   3.591  12.676  0.00  0.00    +0.000 A 
ATOM     19  C   UNL     1       7.145   4.379  12.300  0.00  0.00    +0.000 A 
ATOM     20  N   UNL     1       7.779   5.231  13.135  0.00  0.00    +0.000 NA
ATOM     21  C   UNL     1       7.308   5.306  14.407  0.00  0.00    +0.000 A 
ENDBRANCH  13  16
ENDBRANCH   9  11
BRANCH   2  22
ATOM     22  C   UNL     1       1.052   8.915  20.602  0.00  0.00    +0.000 C 
BRANCH  22  23
ATOM     23  O   UNL     1      -0.212   9.317  20.119  0.00  0.00    +0.000 OA
BRANCH  23  24
ATOM     24  C   UNL     1      -0.426  10.663  19.985  0.00  0.00    +0.000 A 
ATOM     25  C   UNL     1      -0.565  11.566  21.045  0.00  0.00    +0.000 A 
ATOM     26  C   UNL     1      -0.820  12.918  20.792  0.00  0.00    +0.000 A 
ATOM     27  C   UNL     1      -0.932  13.377  19.482  0.00  0.00    +0.000 A 
ATOM     28  C   UNL     1      -0.776  12.491  18.417  0.00  0.00    +0.000 A 
ATOM     29  C   UNL     1      -0.522  11.144  18.673  0.00  0.00    +0.000 A 
BRANCH  29  30
ATOM     30  O   UNL     1      -0.364  10.270  17.631  0.00  0.00    +0.000 OA
ATOM     31  H   UNL     1      -0.415  10.762  16.797  0.00  0.00    +0.000 HD
ENDBRANCH  29  30
ENDBRANCH  23  24
ENDBRANCH  22  23
ENDBRANCH   2  22
TORSDOF 6
ENDMDL
