MODEL 1
REMARK VINA RESULT:      -8.7      0.000      0.000
REMARK  Name = 
REMARK  6 active torsions:
REMARK  status: ('A' for Active; 'I' for Inactive)
REMARK    1  A    between atoms: C_1  and  C_2
REMARK    2  A    between atoms: C_2  and  C_3
REMARK    3  A    between atoms: C_2  and  C_4
REMARK    4  A    between atoms: C_2  and  C_5
REMARK    5  A    between atoms: C_8  and  C_9
REMARK    6  A    between atoms: C_14  and  C_15
REMARK                            x       y       z     vdW  Elec       q    Type
REMARK                         _______ _______ _______ _____ _____    ______ ____
ROOT
ATOM      1  C   UNL     1       3.339   3.815  19.834  0.00  0.00    +0.000 A 
ATOM      2  C   UNL     1       3.546   2.934  20.917  0.00  0.00    +0.000 A 
ATOM      3  C   UNL     1       2.477   2.429  21.658  0.00  0.00    +0.000 A 
ATOM      4  C   UNL     1       1.174   2.760  21.308  0.00  0.00    +0.000 A 
ATOM      5  C   UNL     1       0.944   3.612  20.228  0.00  0.00    +0.000 A 
ATOM      6  C   UNL     1       2.021   4.180  19.524  0.00  0.00    +0.000 A 
ENDROOT
BRANCH   6   7
ATOM      7  C   UNL     1       1.700   5.099  18.408  0.00  0.00    +0.000 C 
ATOM      8  O   UNL     1       1.449   4.598  17.314  0.00  0.00    +0.000 OA
ATOM      9  N   UNL     1       1.686   6.472  18.652  0.00  0.00    +0.000 N 
ATOM     10  C   UNL     1       1.333   7.370  17.537  0.00  0.00    +0.000 C 
ATOM     11  C   UNL     1       2.010   8.745  17.647  0.00  0.00    +0.000 C 
ATOM     12  C   UNL     1       1.584   9.343  18.965  0.00  0.00    +0.000 A 
ATOM     13  C   UNL     1       1.088  10.643  19.089  0.00  0.00    +0.000 A 
ATOM     14  C   UNL     1       0.588  11.075  20.321  0.00  0.00    +0.000 A 
ATOM     15  C   UNL     1       0.609  10.216  21.418  0.00  0.00    +0.000 A 
ATOM     16  F   UNL     1       0.097  10.631  22.585  0.00  0.00    +0.000 F 
ATOM     17  C   UNL     1       1.135   8.935  21.306  0.00  0.00    +0.000 A 
ATOM     18  F   UNL     1       1.140   8.117  22.369  0.00  0.00    +0.000 F 
ATOM     19  C   UNL     1       1.621   8.486  20.081  0.00  0.00    +0.000 A 
ATOM     20  C   UNL     1       2.169   7.100  19.896  0.00  0.00    +0.000 C 
ENDBRANCH   6   7
BRANCH   1  24
ATOM     21  C   UNL     1       5.899   5.003  17.717  0.00  0.00    +0.000 A 
ATOM     22  N   UNL     1       6.671   4.372  18.617  0.00  0.00    +0.000 NA
ATOM     23  O   UNL     1       5.743   3.863  19.533  0.00  0.00    +0.000 OA
ATOM     24  C   UNL     1       4.511   4.246  19.089  0.00  0.00    +0.000 A 
ATOM     25  N   UNL     1       4.554   4.907  17.954  0.00  0.00    +0.000 NA
BRANCH  21  27
ATOM     26  C   UNL     1       7.193   4.828  15.582  0.00  0.00    +0.000 C 
ATOM     27  C   UNL     1       6.453   5.773  16.547  0.00  0.00    +0.000 C 
ATOM     28  C   UNL     1       7.424   6.859  17.048  0.00  0.00    +0.000 C 
ATOM     29  C   UNL     1       5.319   6.471  15.763  0.00  0.00    +0.000 C 
ENDBRANCH  21  27
ENDBRANCH   1  24
TORSDOF 3
ENDMDL
MODEL 2
REMARK VINA RESULT:      -7.9      6.637      8.931
REMARK  Name = 
REMARK  6 active torsions:
REMARK  status: ('A' for Active; 'I' for Inactive)
REMARK    1  A    between atoms: C_1  and  C_2
REMARK    2  A    between atoms: C_2  and  C_3
REMARK    3  A    between atoms: C_2  and  C_4
REMARK    4  A    between atoms: C_2  and  C_5
REMARK    5  A    between atoms: C_8  and  C_9
REMARK    6  A    between atoms: C_14  and  C_15
REMARK                            x       y       z     vdW  Elec       q    Type
REMARK                         _______ _______ _______ _____ _____    ______ ____
ROOT
ATOM      1  C   UNL     1      -0.420  13.978  22.401  0.00  0.00    +0.000 A 
ATOM      2  C   UNL     1      -1.050  15.034  23.093  0.00  0.00    +0.000 A 
ATOM      3  C   UNL     1      -2.210  14.825  23.840  0.00  0.00    +0.000 A 
ATOM      4  C   UNL     1      -2.745  13.547  23.946  0.00  0.00    +0.000 A 
ATOM      5  C   UNL     1      -2.128  12.484  23.288  0.00  0.00    +0.000 A 
ATOM      6  C   UNL     1      -1.001  12.703  22.476  0.00  0.00    +0.000 A 
ENDROOT
BRANCH   6   7
ATOM      7  C   UNL     1      -0.416  11.530  21.785  0.00  0.00    +0.000 C 
ATOM      8  O   UNL     1       0.403  10.856  22.404  0.00  0.00    +0.000 OA
ATOM      9  N   UNL     1      -0.830  11.244  20.484  0.00  0.00    +0.000 N 
ATOM     10  C   UNL     1      -0.261  10.055  19.823  0.00  0.00    +0.000 C 
ATOM     11  C   UNL     1      -0.174  10.210  18.297  0.00  0.00    +0.000 C 
ATOM     12  C   UNL     1      -1.573  10.476  17.799  0.00  0.00    +0.000 A 
ATOM     13  C   UNL     1      -2.151   9.779  16.735  0.00  0.00    +0.000 A 
ATOM     14  C   UNL     1      -3.497   9.990  16.424  0.00  0.00    +0.000 A 
ATOM     15  C   UNL     1      -4.245  10.907  17.160  0.00  0.00    +0.000 A 
ATOM     16  F   UNL     1      -5.542  11.076  16.872  0.00  0.00    +0.000 F 
ATOM     17  C   UNL     1      -3.663  11.628  18.196  0.00  0.00    +0.000 A 
ATOM     18  F   UNL     1      -4.397  12.501  18.900  0.00  0.00    +0.000 F 
ATOM     19  C   UNL     1      -2.328  11.416  18.527  0.00  0.00    +0.000 A 
ATOM     20  C   UNL     1      -1.658  12.143  19.659  0.00  0.00    +0.000 C 
ENDBRANCH   6   7
BRANCH   1  24
ATOM     21  C   UNL     1       2.353  14.612  20.314  0.00  0.00    +0.000 A 
ATOM     22  N   UNL     1       2.975  14.724  21.499  0.00  0.00    +0.000 NA
ATOM     23  O   UNL     1       1.946  14.500  22.422  0.00  0.00    +0.000 OA
ATOM     24  C   UNL     1       0.813  14.283  21.694  0.00  0.00    +0.000 A 
ATOM     25  N   UNL     1       1.023  14.295  20.396  0.00  0.00    +0.000 NA
BRANCH  21  27
ATOM     26  C   UNL     1       2.779  13.649  18.044  0.00  0.00    +0.000 C 
ATOM     27  C   UNL     1       3.044  14.831  18.994  0.00  0.00    +0.000 C 
ATOM     28  C   UNL     1       4.561  14.982  19.216  0.00  0.00    +0.000 C 
ATOM     29  C   UNL     1       2.530  16.120  18.314  0.00  0.00    +0.000 C 
ENDBRANCH  21  27
ENDBRANCH   1  24
TORSDOF 3
ENDMDL
MODEL 3
REMARK VINA RESULT:      -7.8      6.953      9.543
REMARK  Name = 
REMARK  6 active torsions:
REMARK  status: ('A' for Active; 'I' for Inactive)
REMARK    1  A    between atoms: C_1  and  C_2
REMARK    2  A    between atoms: C_2  and  C_3
REMARK    3  A    between atoms: C_2  and  C_4
REMARK    4  A    between atoms: C_2  and  C_5
REMARK    5  A    between atoms: C_8  and  C_9
REMARK    6  A    between atoms: C_14  and  C_15
REMARK                            x       y       z     vdW  Elec       q    Type
REMARK                         _______ _______ _______ _____ _____    ______ ____
ROOT
ATOM      1  C   UNL     1      -1.664  14.042  23.109  0.00  0.00    +0.000 A 
ATOM      2  C   UNL     1      -2.567  14.958  23.688  0.00  0.00    +0.000 A 
ATOM      3  C   UNL     1      -3.794  14.541  24.207  0.00  0.00    +0.000 A 
ATOM      4  C   UNL     1      -4.128  13.192  24.196  0.00  0.00    +0.000 A 
ATOM      5  C   UNL     1      -3.242  12.266  23.647  0.00  0.00    +0.000 A 
ATOM      6  C   UNL     1      -2.038  12.691  23.059  0.00  0.00    +0.000 A 
ENDROOT
BRANCH   6   7
ATOM      7  C   UNL     1      -1.160  11.652  22.471  0.00  0.00    +0.000 C 
ATOM      8  O   UNL     1      -0.392  11.062  23.227  0.00  0.00    +0.000 OA
ATOM      9  N   UNL     1      -1.256  11.389  21.104  0.00  0.00    +0.000 N 
ATOM     10  C   UNL     1      -0.397  10.331  20.542  0.00  0.00    +0.000 C 
ATOM     11  C   UNL     1      -0.028  10.586  19.072  0.00  0.00    +0.000 C 
ATOM     12  C   UNL     1      -1.321  10.685  18.302  0.00  0.00    +0.000 A 
ATOM     13  C   UNL     1      -1.564   9.979  17.121  0.00  0.00    +0.000 A 
ATOM     14  C   UNL     1      -2.836  10.020  16.543  0.00  0.00    +0.000 A 
ATOM     15  C   UNL     1      -3.843  10.780  17.135  0.00  0.00    +0.000 A 
ATOM     16  F   UNL     1      -5.067  10.785  16.588  0.00  0.00    +0.000 F 
ATOM     17  C   UNL     1      -3.594  11.512  18.289  0.00  0.00    +0.000 A 
ATOM     18  F   UNL     1      -4.576  12.232  18.851  0.00  0.00    +0.000 F 
ATOM     19  C   UNL     1      -2.337  11.467  18.885  0.00  0.00    +0.000 A 
ATOM     20  C   UNL     1      -2.024  12.212  20.152  0.00  0.00    +0.000 C 
ENDBRANCH   6   7
BRANCH   1  24
ATOM     21  C   UNL     1       1.371  15.054  21.621  0.00  0.00    +0.000 A 
ATOM     22  N   UNL     1       1.545  15.628  22.823  0.00  0.00    +0.000 NA
ATOM     23  O   UNL     1       0.370  15.297  23.508  0.00  0.00    +0.000 OA
ATOM     24  C   UNL     1      -0.389  14.563  22.644  0.00  0.00    +0.000 A 
ATOM     25  N   UNL     1       0.203  14.349  21.491  0.00  0.00    +0.000 NA
BRANCH  21  27
ATOM     26  C   UNL     1       3.603  15.965  20.952  0.00  0.00    +0.000 C 
ATOM     27  C   UNL     1       2.360  15.181  20.493  0.00  0.00    +0.000 C 
ATOM     28  C   UNL     1       1.704  15.908  19.302  0.00  0.00    +0.000 C 
ATOM     29  C   UNL     1       2.821  13.788  20.007  0.00  0.00    +0.000 C 
ENDBRANCH  21  27
ENDBRANCH   1  24
TORSDOF 3
ENDMDL
MODEL 4
REMARK VINA RESULT:      -7.8      0.881      1.028
REMARK  Name = 
REMARK  6 active torsions:
REMARK  status: ('A' for Active; 'I' for Inactive)
REMARK    1  A    between atoms: C_1  and  C_2
REMARK    2  A    between atoms: C_2  and  C_3
REMARK    3  A    between atoms: C_2  and  C_4
REMARK    4  A    between atoms: C_2  and  C_5
REMARK    5  A    between atoms: C_8  and  C_9
REMARK    6  A    between atoms: C_14  and  C_15
REMARK                            x       y       z     vdW  Elec       q    Type
REMARK                         _______ _______ _______ _____ _____    ______ ____
ROOT
ATOM      1  C   UNL     1       3.181   3.579  19.546  0.00  0.00    +0.000 A 
ATOM      2  C   UNL     1       3.434   2.701  20.621  0.00  0.00    +0.000 A 
ATOM      3  C   UNL     1       2.460   2.430  21.583  0.00  0.00    +0.000 A 
ATOM      4  C   UNL     1       1.197   2.998  21.470  0.00  0.00    +0.000 A 
ATOM      5  C   UNL     1       0.918   3.852  20.404  0.00  0.00    +0.000 A 
ATOM      6  C   UNL     1       1.918   4.185  19.473  0.00  0.00    +0.000 A 
ENDROOT
BRANCH   6   7
ATOM      7  C   UNL     1       1.556   5.121  18.384  0.00  0.00    +0.000 C 
ATOM      8  O   UNL     1       1.251   4.638  17.297  0.00  0.00    +0.000 OA
ATOM      9  N   UNL     1       1.566   6.492  18.647  0.00  0.00    +0.000 N 
ATOM     10  C   UNL     1       1.173   7.408  17.561  0.00  0.00    +0.000 C 
ATOM     11  C   UNL     1       1.867   8.775  17.658  0.00  0.00    +0.000 C 
ATOM     12  C   UNL     1       1.508   9.359  19.002  0.00  0.00    +0.000 A 
ATOM     13  C   UNL     1       1.030  10.662  19.165  0.00  0.00    +0.000 A 
ATOM     14  C   UNL     1       0.591  11.081  20.424  0.00  0.00    +0.000 A 
ATOM     15  C   UNL     1       0.654  10.207  21.508  0.00  0.00    +0.000 A 
ATOM     16  F   UNL     1       0.200  10.612  22.702  0.00  0.00    +0.000 F 
ATOM     17  C   UNL     1       1.162   8.923  21.355  0.00  0.00    +0.000 A 
ATOM     18  F   UNL     1       1.207   8.091  22.406  0.00  0.00    +0.000 F 
ATOM     19  C   UNL     1       1.586   8.486  20.104  0.00  0.00    +0.000 A 
ATOM     20  C   UNL     1       2.112   7.098  19.876  0.00  0.00    +0.000 C 
ENDBRANCH   6   7
BRANCH   1  24
ATOM     21  C   UNL     1       5.878   4.361  17.410  0.00  0.00    +0.000 A 
ATOM     22  N   UNL     1       5.299   3.416  16.651  0.00  0.00    +0.000 NA
ATOM     23  O   UNL     1       4.202   3.015  17.422  0.00  0.00    +0.000 OA
ATOM     24  C   UNL     1       4.240   3.758  18.566  0.00  0.00    +0.000 A 
ATOM     25  N   UNL     1       5.223   4.630  18.583  0.00  0.00    +0.000 NA
BRANCH  21  27
ATOM     26  C   UNL     1       7.437   4.882  15.523  0.00  0.00    +0.000 C 
ATOM     27  C   UNL     1       7.153   5.065  17.025  0.00  0.00    +0.000 C 
ATOM     28  C   UNL     1       8.329   4.499  17.843  0.00  0.00    +0.000 C 
ATOM     29  C   UNL     1       7.053   6.580  17.316  0.00  0.00    +0.000 C 
ENDBRANCH  21  27
ENDBRANCH   1  24
TORSDOF 3
ENDMDL
MODEL 5
REMARK VINA RESULT:      -7.8      5.768      9.559
REMARK  Name = 
REMARK  6 active torsions:
REMARK  status: ('A' for Active; 'I' for Inactive)
REMARK    1  A    between atoms: C_1  and  C_2
REMARK    2  A    between atoms: C_2  and  C_3
REMARK    3  A    between atoms: C_2  and  C_4
REMARK    4  A    between atoms: C_2  and  C_5
REMARK    5  A    between atoms: C_8  and  C_9
REMARK    6  A    between atoms: C_14  and  C_15
REMARK                            x       y       z     vdW  Elec       q    Type
REMARK                         _______ _______ _______ _____ _____    ______ ____
ROOT
ATOM      1  C   UNL     1      -2.453  13.980  21.183  0.00  0.00    +0.000 A 
ATOM      2  C   UNL     1      -2.412  15.340  20.811  0.00  0.00    +0.000 A 
ATOM      3  C   UNL     1      -1.805  16.299  21.624  0.00  0.00    +0.000 A 
ATOM      4  C   UNL     1      -1.190  15.914  22.808  0.00  0.00    +0.000 A 
ATOM      5  C   UNL     1      -1.200  14.572  23.186  0.00  0.00    +0.000 A 
ATOM      6  C   UNL     1      -1.872  13.614  22.406  0.00  0.00    +0.000 A 
ENDROOT
BRANCH   6   7
ATOM      7  C   UNL     1      -1.864  12.213  22.886  0.00  0.00    +0.000 C 
ATOM      8  O   UNL     1      -2.703  11.894  23.725  0.00  0.00    +0.000 OA
ATOM      9  N   UNL     1      -0.922  11.330  22.358  0.00  0.00    +0.000 N 
ATOM     10  C   UNL     1      -0.948   9.930  22.824  0.00  0.00    +0.000 C 
ATOM     11  C   UNL     1       0.439   9.270  22.794  0.00  0.00    +0.000 C 
ATOM     12  C   UNL     1       0.934   9.347  21.371  0.00  0.00    +0.000 A 
ATOM     13  C   UNL     1       1.452   8.247  20.682  0.00  0.00    +0.000 A 
ATOM     14  C   UNL     1       1.762   8.369  19.324  0.00  0.00    +0.000 A 
ATOM     15  C   UNL     1       1.574   9.588  18.676  0.00  0.00    +0.000 A 
ATOM     16  F   UNL     1       1.845   9.682  17.367  0.00  0.00    +0.000 F 
ATOM     17  C   UNL     1       1.093  10.693  19.368  0.00  0.00    +0.000 A 
ATOM     18  F   UNL     1       0.909  11.857  18.727  0.00  0.00    +0.000 F 
ATOM     19  C   UNL     1       0.764  10.582  20.715  0.00  0.00    +0.000 A 
ATOM     20  C   UNL     1       0.209  11.734  21.503  0.00  0.00    +0.000 C 
ENDBRANCH   6   7
BRANCH   1  24
ATOM     21  C   UNL     1      -3.526  11.696  18.718  0.00  0.00    +0.000 A 
ATOM     22  N   UNL     1      -4.725  11.983  19.249  0.00  0.00    +0.000 NA
ATOM     23  O   UNL     1      -4.414  12.890  20.269  0.00  0.00    +0.000 OA
ATOM     24  C   UNL     1      -3.059  13.049  20.246  0.00  0.00    +0.000 A 
ATOM     25  N   UNL     1      -2.477  12.372  19.282  0.00  0.00    +0.000 NA
BRANCH  21  27
ATOM     26  C   UNL     1      -4.039  11.180  16.323  0.00  0.00    +0.000 C 
ATOM     27  C   UNL     1      -3.331  10.701  17.604  0.00  0.00    +0.000 C 
ATOM     28  C   UNL     1      -3.899   9.331  18.023  0.00  0.00    +0.000 C 
ATOM     29  C   UNL     1      -1.830  10.520  17.286  0.00  0.00    +0.000 C 
ENDBRANCH  21  27
ENDBRANCH   1  24
TORSDOF 3
ENDMDL
MODEL 6
REMARK VINA RESULT:      -7.5      6.687      9.238
REMARK  Name = 
REMARK  6 active torsions:
REMARK  status: ('A' for Active; 'I' for Inactive)
REMARK    1  A    between atoms: C_1  and  C_2
REMARK    2  A    between atoms: C_2  and  C_3
REMARK    3  A    between atoms: C_2  and  C_4
REMARK    4  A    between atoms: C_2  and  C_5
REMARK    5  A    between atoms: C_8  and  C_9
REMARK    6  A    between atoms: C_14  and  C_15
REMARK                            x       y       z     vdW  Elec       q    Type
REMARK                         _______ _______ _______ _____ _____    ______ ____
ROOT
ATOM      1  C   UNL     1      -0.741  14.025  22.578  0.00  0.00    +0.000 A 
ATOM      2  C   UNL     1      -1.444  15.048  23.249  0.00  0.00    +0.000 A 
ATOM      3  C   UNL     1      -2.579  14.771  24.011  0.00  0.00    +0.000 A 
ATOM      4  C   UNL     1      -3.015  13.459  24.154  0.00  0.00    +0.000 A 
ATOM      5  C   UNL     1      -2.324  12.429  23.517  0.00  0.00    +0.000 A 
ATOM      6  C   UNL     1      -1.222  12.712  22.689  0.00  0.00    +0.000 A 
ENDROOT
BRANCH   6   7
ATOM      7  C   UNL     1      -0.556  11.570  22.023  0.00  0.00    +0.000 C 
ATOM      8  O   UNL     1       0.252  10.920  22.682  0.00  0.00    +0.000 OA
ATOM      9  N   UNL     1      -0.883  11.283  20.697  0.00  0.00    +0.000 N 
ATOM     10  C   UNL     1      -0.233  10.123  20.059  0.00  0.00    +0.000 C 
ATOM     11  C   UNL     1      -0.066  10.299  18.542  0.00  0.00    +0.000 C 
ATOM     12  C   UNL     1      -1.444  10.518  17.968  0.00  0.00    +0.000 A 
ATOM     13  C   UNL     1      -1.934   9.812  16.866  0.00  0.00    +0.000 A 
ATOM     14  C   UNL     1      -3.267   9.975  16.480  0.00  0.00    +0.000 A 
ATOM     15  C   UNL     1      -4.089  10.856  17.181  0.00  0.00    +0.000 A 
ATOM     16  F   UNL     1      -5.374  10.979  16.821  0.00  0.00    +0.000 F 
ATOM     17  C   UNL     1      -3.595  11.586  18.255  0.00  0.00    +0.000 A 
ATOM     18  F   UNL     1      -4.401  12.423  18.924  0.00  0.00    +0.000 F 
ATOM     19  C   UNL     1      -2.274  11.421  18.660  0.00  0.00    +0.000 A 
ATOM     20  C   UNL     1      -1.697  12.159  19.834  0.00  0.00    +0.000 C 
ENDBRANCH   6   7
BRANCH   1  24
ATOM     21  C   UNL     1       2.374  14.962  21.211  0.00  0.00    +0.000 A 
ATOM     22  N   UNL     1       1.634  15.071  20.096  0.00  0.00    +0.000 NA
ATOM     23  O   UNL     1       0.354  14.702  20.524  0.00  0.00    +0.000 OA
ATOM     24  C   UNL     1       0.460  14.405  21.852  0.00  0.00    +0.000 A 
ATOM     25  N   UNL     1       1.670  14.594  22.327  0.00  0.00    +0.000 NA
BRANCH  21  27
ATOM     26  C   UNL     1       4.477  14.953  19.856  0.00  0.00    +0.000 C 
ATOM     27  C   UNL     1       3.860  15.202  21.244  0.00  0.00    +0.000 C 
ATOM     28  C   UNL     1       4.519  14.265  22.275  0.00  0.00    +0.000 C 
ATOM     29  C   UNL     1       4.171  16.659  21.655  0.00  0.00    +0.000 C 
ENDBRANCH  21  27
ENDBRANCH   1  24
TORSDOF 3
ENDMDL
MODEL 7
REMARK VINA RESULT:      -7.5      6.588      8.937
REMARK  Name = 
REMARK  6 active torsions:
REMARK  status: ('A' for Active; 'I' for Inactive)
REMARK    1  A    between atoms: C_1  and  C_2
REMARK    2  A    between atoms: C_2  and  C_3
REMARK    3  A    between atoms: C_2  and  C_4
REMARK    4  A    between atoms: C_2  and  C_5
REMARK    5  A    between atoms: C_8  and  C_9
REMARK    6  A    between atoms: C_14  and  C_15
REMARK                            x       y       z     vdW  Elec       q    Type
REMARK                         _______ _______ _______ _____ _____    ______ ____
ROOT
ATOM      1  C   UNL     1       0.221  14.096  22.144  0.00  0.00    +0.000 A 
ATOM      2  C   UNL     1      -0.339  15.149  22.899  0.00  0.00    +0.000 A 
ATOM      3  C   UNL     1      -1.496  14.965  23.657  0.00  0.00    +0.000 A 
ATOM      4  C   UNL     1      -2.097  13.714  23.711  0.00  0.00    +0.000 A 
ATOM      5  C   UNL     1      -1.550  12.654  22.990  0.00  0.00    +0.000 A 
ATOM      6  C   UNL     1      -0.427  12.852  22.168  0.00  0.00    +0.000 A 
ENDROOT
BRANCH   6   7
ATOM      7  C   UNL     1       0.081  11.685  21.410  0.00  0.00    +0.000 C 
ATOM      8  O   UNL     1       1.004  11.043  21.906  0.00  0.00    +0.000 OA
ATOM      9  N   UNL     1      -0.515  11.368  20.189  0.00  0.00    +0.000 N 
ATOM     10  C   UNL     1      -0.018  10.185  19.463  0.00  0.00    +0.000 C 
ATOM     11  C   UNL     1      -0.167  10.319  17.940  0.00  0.00    +0.000 C 
ATOM     12  C   UNL     1      -1.632  10.539  17.657  0.00  0.00    +0.000 A 
ATOM     13  C   UNL     1      -2.344   9.810  16.700  0.00  0.00    +0.000 A 
ATOM     14  C   UNL     1      -3.727   9.978  16.594  0.00  0.00    +0.000 A 
ATOM     15  C   UNL     1      -4.381  10.886  17.425  0.00  0.00    +0.000 A 
ATOM     16  F   UNL     1      -5.712  11.014  17.334  0.00  0.00    +0.000 F 
ATOM     17  C   UNL     1      -3.671  11.638  18.352  0.00  0.00    +0.000 A 
ATOM     18  F   UNL     1      -4.317  12.501  19.150  0.00  0.00    +0.000 F 
ATOM     19  C   UNL     1      -2.296  11.468  18.480  0.00  0.00    +0.000 A 
ATOM     20  C   UNL     1      -1.485  12.230  19.489  0.00  0.00    +0.000 C 
ENDBRANCH   6   7
BRANCH   1  24
ATOM     21  C   UNL     1       2.963  14.910  20.080  0.00  0.00    +0.000 A 
ATOM     22  N   UNL     1       3.634  14.258  21.042  0.00  0.00    +0.000 NA
ATOM     23  O   UNL     1       2.627  13.893  21.942  0.00  0.00    +0.000 OA
ATOM     24  C   UNL     1       1.456  14.369  21.429  0.00  0.00    +0.000 A 
ATOM     25  N   UNL     1       1.607  14.960  20.264  0.00  0.00    +0.000 NA
BRANCH  21  27
ATOM     26  C   UNL     1       4.464  16.773  19.346  0.00  0.00    +0.000 C 
ATOM     27  C   UNL     1       3.634  15.557  18.896  0.00  0.00    +0.000 C 
ATOM     28  C   UNL     1       2.572  16.008  17.875  0.00  0.00    +0.000 C 
ATOM     29  C   UNL     1       4.582  14.561  18.191  0.00  0.00    +0.000 C 
ENDBRANCH  21  27
ENDBRANCH   1  24
TORSDOF 3
ENDMDL
MODEL 8
REMARK VINA RESULT:      -7.5      5.830     10.522
REMARK  Name = 
REMARK  6 active torsions:
REMARK  status: ('A' for Active; 'I' for Inactive)
REMARK    1  A    between atoms: C_1  and  C_2
REMARK    2  A    between atoms: C_2  and  C_3
REMARK    3  A    between atoms: C_2  and  C_4
REMARK    4  A    between atoms: C_2  and  C_5
REMARK    5  A    between atoms: C_8  and  C_9
REMARK    6  A    between atoms: C_14  and  C_15
REMARK                            x       y       z     vdW  Elec       q    Type
REMARK                         _______ _______ _______ _____ _____    ______ ____
ROOT
ATOM      1  C   UNL     1      -2.861  14.203  21.315  0.00  0.00    +0.000 A 
ATOM      2  C   UNL     1      -2.799  15.550  20.900  0.00  0.00    +0.000 A 
ATOM      3  C   UNL     1      -1.955  16.467  21.527  0.00  0.00    +0.000 A 
ATOM      4  C   UNL     1      -1.122  16.049  22.558  0.00  0.00    +0.000 A 
ATOM      5  C   UNL     1      -1.150  14.718  22.971  0.00  0.00    +0.000 A 
ATOM      6  C   UNL     1      -2.051  13.807  22.391  0.00  0.00    +0.000 A 
ENDROOT
BRANCH   6   7
ATOM      7  C   UNL     1      -2.044  12.417  22.901  0.00  0.00    +0.000 C 
ATOM      8  O   UNL     1      -2.887  12.116  23.743  0.00  0.00    +0.000 OA
ATOM      9  N   UNL     1      -1.099  11.523  22.397  0.00  0.00    +0.000 N 
ATOM     10  C   UNL     1      -1.126  10.135  22.893  0.00  0.00    +0.000 C 
ATOM     11  C   UNL     1       0.262   9.476  22.884  0.00  0.00    +0.000 C 
ATOM     12  C   UNL     1       0.764   9.521  21.462  0.00  0.00    +0.000 A 
ATOM     13  C   UNL     1       1.286   8.408  20.800  0.00  0.00    +0.000 A 
ATOM     14  C   UNL     1       1.603   8.500  19.442  0.00  0.00    +0.000 A 
ATOM     15  C   UNL     1       1.417   9.704  18.765  0.00  0.00    +0.000 A 
ATOM     16  F   UNL     1       1.694   9.770  17.456  0.00  0.00    +0.000 F 
ATOM     17  C   UNL     1       0.931  10.824  19.431  0.00  0.00    +0.000 A 
ATOM     18  F   UNL     1       0.750  11.973  18.764  0.00  0.00    +0.000 F 
ATOM     19  C   UNL     1       0.596  10.741  20.779  0.00  0.00    +0.000 A 
ATOM     20  C   UNL     1       0.035  11.910  21.538  0.00  0.00    +0.000 C 
ENDBRANCH   6   7
BRANCH   1  24
ATOM     21  C   UNL     1      -5.292  12.159  19.780  0.00  0.00    +0.000 A 
ATOM     22  N   UNL     1      -4.218  11.720  19.105  0.00  0.00    +0.000 NA
ATOM     23  O   UNL     1      -3.173  12.488  19.632  0.00  0.00    +0.000 OA
ATOM     24  C   UNL     1      -3.731  13.311  20.566  0.00  0.00    +0.000 A 
ATOM     25  N   UNL     1      -5.020  13.114  20.724  0.00  0.00    +0.000 NA
BRANCH  21  27
ATOM     26  C   UNL     1      -7.391  12.559  18.477  0.00  0.00    +0.000 C 
ATOM     27  C   UNL     1      -6.691  11.666  19.519  0.00  0.00    +0.000 C 
ATOM     28  C   UNL     1      -7.501  11.674  20.829  0.00  0.00    +0.000 C 
ATOM     29  C   UNL     1      -6.671  10.219  18.977  0.00  0.00    +0.000 C 
ENDBRANCH  21  27
ENDBRANCH   1  24
TORSDOF 3
ENDMDL
MODEL 9
REMARK VINA RESULT:      -7.4      6.936      9.608
REMARK  Name = 
REMARK  6 active torsions:
REMARK  status: ('A' for Active; 'I' for Inactive)
REMARK    1  A    between atoms: C_1  and  C_2
REMARK    2  A    between atoms: C_2  and  C_3
REMARK    3  A    between atoms: C_2  and  C_4
REMARK    4  A    between atoms: C_2  and  C_5
REMARK    5  A    between atoms: C_8  and  C_9
REMARK    6  A    between atoms: C_14  and  C_15
REMARK                            x       y       z     vdW  Elec       q    Type
REMARK                         _______ _______ _______ _____ _____    ______ ____
ROOT
ATOM      1  C   UNL     1      -1.465  14.087  22.858  0.00  0.00    +0.000 A 
ATOM      2  C   UNL     1      -2.301  15.020  23.507  0.00  0.00    +0.000 A 
ATOM      3  C   UNL     1      -3.433  14.613  24.215  0.00  0.00    +0.000 A 
ATOM      4  C   UNL     1      -3.733  13.261  24.325  0.00  0.00    +0.000 A 
ATOM      5  C   UNL     1      -2.909  12.319  23.709  0.00  0.00    +0.000 A 
ATOM      6  C   UNL     1      -1.809  12.729  22.935  0.00  0.00    +0.000 A 
ENDROOT
BRANCH   6   7
ATOM      7  C   UNL     1      -0.996  11.673  22.288  0.00  0.00    +0.000 C 
ATOM      8  O   UNL     1      -0.189  11.067  22.989  0.00  0.00    +0.000 OA
ATOM      9  N   UNL     1      -1.194  11.412  20.932  0.00  0.00    +0.000 N 
ATOM     10  C   UNL     1      -0.398  10.336  20.312  0.00  0.00    +0.000 C 
ATOM     11  C   UNL     1      -0.129  10.584  18.819  0.00  0.00    +0.000 C 
ATOM     12  C   UNL     1      -1.472  10.710  18.143  0.00  0.00    +0.000 A 
ATOM     13  C   UNL     1      -1.811  10.009  16.983  0.00  0.00    +0.000 A 
ATOM     14  C   UNL     1      -3.120  10.076  16.496  0.00  0.00    +0.000 A 
ATOM     15  C   UNL     1      -4.067  10.856  17.156  0.00  0.00    +0.000 A 
ATOM     16  F   UNL     1      -5.326  10.886  16.697  0.00  0.00    +0.000 F 
ATOM     17  C   UNL     1      -3.722  11.583  18.289  0.00  0.00    +0.000 A 
ATOM     18  F   UNL     1      -4.647  12.323  18.917  0.00  0.00    +0.000 F 
ATOM     19  C   UNL     1      -2.428  11.512  18.795  0.00  0.00    +0.000 A 
ATOM     20  C   UNL     1      -2.010  12.250  20.035  0.00  0.00    +0.000 C 
ENDBRANCH   6   7
BRANCH   1  24
ATOM     21  C   UNL     1       1.627  15.245  21.616  0.00  0.00    +0.000 A 
ATOM     22  N   UNL     1       0.848  15.652  20.601  0.00  0.00    +0.000 NA
ATOM     23  O   UNL     1      -0.428  15.225  20.987  0.00  0.00    +0.000 OA
ATOM     24  C   UNL     1      -0.280  14.601  22.192  0.00  0.00    +0.000 A 
ATOM     25  N   UNL     1       0.955  14.630  22.639  0.00  0.00    +0.000 NA
BRANCH  21  27
ATOM     26  C   UNL     1       3.576  16.025  22.979  0.00  0.00    +0.000 C 
ATOM     27  C   UNL     1       3.122  15.426  21.635  0.00  0.00    +0.000 C 
ATOM     28  C   UNL     1       3.550  16.360  20.486  0.00  0.00    +0.000 C 
ATOM     29  C   UNL     1       3.842  14.072  21.444  0.00  0.00    +0.000 C 
ENDBRANCH  21  27
ENDBRANCH   1  24
TORSDOF 3
ENDMDL
