MODEL 1
REMARK VINA RESULT:      -9.4      0.000      0.000
REMARK  Name = 
REMARK  4 active torsions:
REMARK  status: ('A' for Active; 'I' for Inactive)
REMARK    1  A    between atoms: C_1  and  C_2
REMARK    2  A    between atoms: C_4  and  N_5
REMARK    3  A    between atoms: N_5  and  C_6
REMARK    4  A    between atoms: C_17  and  C_18
REMARK                            x       y       z     vdW  Elec       q    Type
REMARK                         _______ _______ _______ _____ _____    ______ ____
ROOT
ATOM      1  C   UNL     1       7.704   6.877  18.382  0.00  0.00    +0.000 C 
ATOM      2  C   UNL     1       7.189   5.947  17.310  0.00  0.00    +0.000 A 
ATOM      3  C   UNL     1       6.292   4.835  17.754  0.00  0.00    +0.000 A 
ATOM      4  C   UNL     1       5.885   3.967  16.811  0.00  0.00    +0.000 A 
ATOM      5  N   UNL     1       6.316   4.193  15.480  0.00  0.00    +0.000 N 
ATOM      6  N   UNL     1       6.018   3.477  14.358  0.00  0.00    +0.000 NA
ATOM      7  C   UNL     1       6.653   4.174  13.391  0.00  0.00    +0.000 A 
ATOM      8  N   UNL     1       7.332   5.283  13.852  0.00  0.00    +0.000 NA
ATOM      9  C   UNL     1       7.118   5.286  15.147  0.00  0.00    +0.000 A 
ATOM     10  N   UNL     1       7.567   6.163  16.088  0.00  0.00    +0.000 NA
ENDROOT
BRANCH   7  11
ATOM     11  C   UNL     1       6.650   3.806  11.921  0.00  0.00    +0.000 C 
ATOM     12  F   UNL     1       7.293   2.633  11.664  0.00  0.00    +0.000 F 
ATOM     13  F   UNL     1       5.389   3.665  11.429  0.00  0.00    +0.000 F 
ATOM     14  F   UNL     1       7.263   4.752  11.155  0.00  0.00    +0.000 F 
ENDBRANCH   7  11
BRANCH   4  15
ATOM     15  N   UNL     1       5.092   2.844  17.081  0.00  0.00    +0.000 N 
ATOM     16  H   UNL     1       5.086   2.213  16.267  0.00  0.00    +0.000 HD
BRANCH  15  17
ATOM     17  C   UNL     1       3.775   2.930  17.735  0.00  0.00    +0.000 C 
ATOM     18  C   UNL     1       3.217   4.352  17.539  0.00  0.00    +0.000 C 
ATOM     19  C   UNL     1       1.828   4.492  18.167  0.00  0.00    +0.000 C 
ATOM     20  C   UNL     1       1.800   3.933  19.542  0.00  0.00    +0.000 A 
ATOM     21  N   UNL     1       0.941   4.156  20.510  0.00  0.00    +0.000 NA
ATOM     22  C   UNL     1       1.408   3.368  21.527  0.00  0.00    +0.000 A 
ATOM     23  N   UNL     1       2.507   2.659  21.238  0.00  0.00    +0.000 NA
ATOM     24  N   UNL     1       2.730   3.032  19.971  0.00  0.00    +0.000 N 
ATOM     25  C   UNL     1       3.884   2.580  19.231  0.00  0.00    +0.000 C 
ENDBRANCH  15  17
ENDBRANCH   4  15
TORSDOF 3
ENDMDL
MODEL 2
REMARK VINA RESULT:      -9.2      0.997      1.272
REMARK  Name = 
REMARK  4 active torsions:
REMARK  status: ('A' for Active; 'I' for Inactive)
REMARK    1  A    between atoms: C_1  and  C_2
REMARK    2  A    between atoms: C_4  and  N_5
REMARK    3  A    between atoms: N_5  and  C_6
REMARK    4  A    between atoms: C_17  and  C_18
REMARK                            x       y       z     vdW  Elec       q    Type
REMARK                         _______ _______ _______ _____ _____    ______ ____
ROOT
ATOM      1  C   UNL     1       8.195   7.990  18.327  0.00  0.00    +0.000 C 
ATOM      2  C   UNL     1       7.568   6.827  17.596  0.00  0.00    +0.000 A 
ATOM      3  C   UNL     1       6.986   5.735  18.436  0.00  0.00    +0.000 A 
ATOM      4  C   UNL     1       6.485   4.668  17.787  0.00  0.00    +0.000 A 
ATOM      5  N   UNL     1       6.528   4.681  16.370  0.00  0.00    +0.000 N 
ATOM      6  N   UNL     1       6.066   3.740  15.499  0.00  0.00    +0.000 NA
ATOM      7  C   UNL     1       6.326   4.303  14.298  0.00  0.00    +0.000 A 
ATOM      8  N   UNL     1       6.929   5.541  14.377  0.00  0.00    +0.000 NA
ATOM      9  C   UNL     1       7.051   5.766  15.665  0.00  0.00    +0.000 A 
ATOM     10  N   UNL     1       7.589   6.846  16.299  0.00  0.00    +0.000 NA
ENDROOT
BRANCH   7  11
ATOM     11  C   UNL     1       6.006   3.666  12.961  0.00  0.00    +0.000 C 
ATOM     12  F   UNL     1       6.711   4.209  11.930  0.00  0.00    +0.000 F 
ATOM     13  F   UNL     1       6.279   2.332  12.948  0.00  0.00    +0.000 F 
ATOM     14  F   UNL     1       4.690   3.797  12.633  0.00  0.00    +0.000 F 
ENDBRANCH   7  11
BRANCH   4  15
ATOM     15  N   UNL     1       5.961   3.543  18.435  0.00  0.00    +0.000 N 
ATOM     16  H   UNL     1       6.404   2.688  18.070  0.00  0.00    +0.000 HD
BRANCH  15  17
ATOM     17  C   UNL     1       4.522   3.364  18.693  0.00  0.00    +0.000 C 
ATOM     18  C   UNL     1       3.811   4.715  18.494  0.00  0.00    +0.000 C 
ATOM     19  C   UNL     1       2.301   4.583  18.712  0.00  0.00    +0.000 C 
ATOM     20  C   UNL     1       2.001   3.833  19.957  0.00  0.00    +0.000 A 
ATOM     21  N   UNL     1       0.891   3.802  20.659  0.00  0.00    +0.000 NA
ATOM     22  C   UNL     1       1.194   2.942  21.680  0.00  0.00    +0.000 A 
ATOM     23  N   UNL     1       2.431   2.429  21.644  0.00  0.00    +0.000 NA
ATOM     24  N   UNL     1       2.918   3.006  20.538  0.00  0.00    +0.000 N 
ATOM     25  C   UNL     1       4.286   2.818  20.114  0.00  0.00    +0.000 C 
ENDBRANCH  15  17
ENDBRANCH   4  15
TORSDOF 3
ENDMDL
MODEL 3
REMARK VINA RESULT:      -8.9      1.334      1.601
REMARK  Name = 
REMARK  4 active torsions:
REMARK  status: ('A' for Active; 'I' for Inactive)
REMARK    1  A    between atoms: C_1  and  C_2
REMARK    2  A    between atoms: C_4  and  N_5
REMARK    3  A    between atoms: N_5  and  C_6
REMARK    4  A    between atoms: C_17  and  C_18
REMARK                            x       y       z     vdW  Elec       q    Type
REMARK                         _______ _______ _______ _____ _____    ______ ____
ROOT
ATOM      1  C   UNL     1       8.085   7.682  18.262  0.00  0.00    +0.000 C 
ATOM      2  C   UNL     1       7.225   6.867  17.326  0.00  0.00    +0.000 A 
ATOM      3  C   UNL     1       5.800   6.656  17.730  0.00  0.00    +0.000 A 
ATOM      4  C   UNL     1       5.050   5.876  16.931  0.00  0.00    +0.000 A 
ATOM      5  N   UNL     1       5.661   5.346  15.768  0.00  0.00    +0.000 N 
ATOM      6  N   UNL     1       5.107   4.559  14.801  0.00  0.00    +0.000 NA
ATOM      7  C   UNL     1       6.127   4.409  13.928  0.00  0.00    +0.000 A 
ATOM      8  N   UNL     1       7.287   5.056  14.303  0.00  0.00    +0.000 NA
ATOM      9  C   UNL     1       6.988   5.632  15.444  0.00  0.00    +0.000 A 
ATOM     10  N   UNL     1       7.777   6.396  16.251  0.00  0.00    +0.000 NA
ENDROOT
BRANCH   7  11
ATOM     11  C   UNL     1       6.051   3.608  12.644  0.00  0.00    +0.000 C 
ATOM     12  F   UNL     1       6.915   4.051  11.688  0.00  0.00    +0.000 F 
ATOM     13  F   UNL     1       6.343   2.293  12.841  0.00  0.00    +0.000 F 
ATOM     14  F   UNL     1       4.809   3.652  12.086  0.00  0.00    +0.000 F 
ENDBRANCH   7  11
BRANCH   4  15
ATOM     15  N   UNL     1       3.718   5.538  17.206  0.00  0.00    +0.000 N 
ATOM     16  H   UNL     1       3.179   6.386  17.430  0.00  0.00    +0.000 HD
BRANCH  15  17
ATOM     17  C   UNL     1       3.340   4.392  18.051  0.00  0.00    +0.000 C 
ATOM     18  C   UNL     1       2.018   3.804  17.524  0.00  0.00    +0.000 C 
ATOM     19  C   UNL     1       1.591   2.582  18.343  0.00  0.00    +0.000 C 
ATOM     20  C   UNL     1       1.684   2.851  19.799  0.00  0.00    +0.000 A 
ATOM     21  N   UNL     1       1.109   2.219  20.797  0.00  0.00    +0.000 NA
ATOM     22  C   UNL     1       1.566   2.894  21.896  0.00  0.00    +0.000 A 
ATOM     23  N   UNL     1       2.404   3.906  21.634  0.00  0.00    +0.000 NA
ATOM     24  N   UNL     1       2.466   3.852  20.298  0.00  0.00    +0.000 N 
ATOM     25  C   UNL     1       3.207   4.820  19.525  0.00  0.00    +0.000 C 
ENDBRANCH  15  17
ENDBRANCH   4  15
TORSDOF 3
ENDMDL
MODEL 4
REMARK VINA RESULT:      -8.8      4.583      6.273
REMARK  Name = 
REMARK  4 active torsions:
REMARK  status: ('A' for Active; 'I' for Inactive)
REMARK    1  A    between atoms: C_1  and  C_2
REMARK    2  A    between atoms: C_4  and  N_5
REMARK    3  A    between atoms: N_5  and  C_6
REMARK    4  A    between atoms: C_17  and  C_18
REMARK                            x       y       z     vdW  Elec       q    Type
REMARK                         _______ _______ _______ _____ _____    ______ ____
ROOT
ATOM      1  C   UNL     1       1.361   2.874  21.249  0.00  0.00    +0.000 C 
ATOM      2  C   UNL     1       2.071   3.884  20.381  0.00  0.00    +0.000 A 
ATOM      3  C   UNL     1       1.942   5.322  20.772  0.00  0.00    +0.000 A 
ATOM      4  C   UNL     1       2.520   6.228  19.964  0.00  0.00    +0.000 A 
ATOM      5  N   UNL     1       3.222   5.746  18.831  0.00  0.00    +0.000 N 
ATOM      6  N   UNL     1       3.904   6.457  17.889  0.00  0.00    +0.000 NA
ATOM      7  C   UNL     1       4.403   5.484  17.095  0.00  0.00    +0.000 A 
ATOM      8  N   UNL     1       4.063   4.207  17.491  0.00  0.00    +0.000 NA
ATOM      9  C   UNL     1       3.330   4.380  18.567  0.00  0.00    +0.000 A 
ATOM     10  N   UNL     1       2.730   3.443  19.354  0.00  0.00    +0.000 NA
ENDROOT
BRANCH   7  11
ATOM     11  C   UNL     1       5.259   5.728  15.869  0.00  0.00    +0.000 C 
ATOM     12  F   UNL     1       4.919   6.865  15.200  0.00  0.00    +0.000 F 
ATOM     13  F   UNL     1       6.579   5.849  16.179  0.00  0.00    +0.000 F 
ATOM     14  F   UNL     1       5.162   4.712  14.967  0.00  0.00    +0.000 F 
ENDBRANCH   7  11
BRANCH   4  15
ATOM     15  N   UNL     1       2.436   7.612  20.165  0.00  0.00    +0.000 N 
ATOM     16  H   UNL     1       3.207   7.928  20.769  0.00  0.00    +0.000 HD
BRANCH  15  17
ATOM     17  C   UNL     1       1.170   8.303  20.464  0.00  0.00    +0.000 C 
ATOM     18  C   UNL     1       0.985   9.454  19.458  0.00  0.00    +0.000 C 
ATOM     19  C   UNL     1      -0.337  10.189  19.696  0.00  0.00    +0.000 C 
ATOM     20  C   UNL     1      -0.526  10.505  21.133  0.00  0.00    +0.000 A 
ATOM     21  N   UNL     1      -1.320  11.391  21.690  0.00  0.00    +0.000 NA
ATOM     22  C   UNL     1      -1.081  11.225  23.027  0.00  0.00    +0.000 A 
ATOM     23  N   UNL     1      -0.187  10.275  23.332  0.00  0.00    +0.000 NA
ATOM     24  N   UNL     1       0.144   9.831  22.113  0.00  0.00    +0.000 N 
ATOM     25  C   UNL     1       1.162   8.828  21.912  0.00  0.00    +0.000 C 
ENDBRANCH  15  17
ENDBRANCH   4  15
TORSDOF 3
ENDMDL
MODEL 5
REMARK VINA RESULT:      -8.7      4.746      6.484
REMARK  Name = 
REMARK  4 active torsions:
REMARK  status: ('A' for Active; 'I' for Inactive)
REMARK    1  A    between atoms: C_1  and  C_2
REMARK    2  A    between atoms: C_4  and  N_5
REMARK    3  A    between atoms: N_5  and  C_6
REMARK    4  A    between atoms: C_17  and  C_18
REMARK                            x       y       z     vdW  Elec       q    Type
REMARK                         _______ _______ _______ _____ _____    ______ ____
ROOT
ATOM      1  C   UNL     1       1.152   2.783  20.862  0.00  0.00    +0.000 C 
ATOM      2  C   UNL     1       2.228   3.734  20.394  0.00  0.00    +0.000 A 
ATOM      3  C   UNL     1       1.883   5.190  20.376  0.00  0.00    +0.000 A 
ATOM      4  C   UNL     1       2.817   6.032  19.899  0.00  0.00    +0.000 A 
ATOM      5  N   UNL     1       4.051   5.475  19.481  0.00  0.00    +0.000 N 
ATOM      6  N   UNL     1       5.150   6.118  18.991  0.00  0.00    +0.000 NA
ATOM      7  C   UNL     1       6.026   5.104  18.816  0.00  0.00    +0.000 A 
ATOM      8  N   UNL     1       5.529   3.866  19.166  0.00  0.00    +0.000 NA
ATOM      9  C   UNL     1       4.305   4.106  19.576  0.00  0.00    +0.000 A 
ATOM     10  N   UNL     1       3.365   3.229  20.029  0.00  0.00    +0.000 NA
ENDROOT
BRANCH   7  11
ATOM     11  C   UNL     1       7.434   5.267  18.281  0.00  0.00    +0.000 C 
ATOM     12  F   UNL     1       7.586   6.377  17.507  0.00  0.00    +0.000 F 
ATOM     13  F   UNL     1       8.354   5.370  19.279  0.00  0.00    +0.000 F 
ATOM     14  F   UNL     1       7.814   4.210  17.510  0.00  0.00    +0.000 F 
ENDBRANCH   7  11
BRANCH   4  15
ATOM     15  N   UNL     1       2.620   7.412  19.765  0.00  0.00    +0.000 N 
ATOM     16  H   UNL     1       3.460   7.919  20.076  0.00  0.00    +0.000 HD
BRANCH  15  17
ATOM     17  C   UNL     1       1.374   8.087  20.167  0.00  0.00    +0.000 C 
ATOM     18  C   UNL     1       1.167   9.320  19.268  0.00  0.00    +0.000 C 
ATOM     19  C   UNL     1      -0.136  10.045  19.615  0.00  0.00    +0.000 C 
ATOM     20  C   UNL     1      -0.269  10.241  21.080  0.00  0.00    +0.000 A 
ATOM     21  N   UNL     1      -1.031  11.085  21.738  0.00  0.00    +0.000 NA
ATOM     22  C   UNL     1      -0.745  10.805  23.047  0.00  0.00    +0.000 A 
ATOM     23  N   UNL     1       0.147   9.825  23.237  0.00  0.00    +0.000 NA
ATOM     24  N   UNL     1       0.428   9.481  21.974  0.00  0.00    +0.000 N 
ATOM     25  C   UNL     1       1.426   8.488  21.653  0.00  0.00    +0.000 C 
ENDBRANCH  15  17
ENDBRANCH   4  15
TORSDOF 3
ENDMDL
MODEL 6
REMARK VINA RESULT:      -8.7      4.610      6.385
REMARK  Name = 
REMARK  4 active torsions:
REMARK  status: ('A' for Active; 'I' for Inactive)
REMARK    1  A    between atoms: C_1  and  C_2
REMARK    2  A    between atoms: C_4  and  N_5
REMARK    3  A    between atoms: N_5  and  C_6
REMARK    4  A    between atoms: C_17  and  C_18
REMARK                            x       y       z     vdW  Elec       q    Type
REMARK                         _______ _______ _______ _____ _____    ______ ____
ROOT
ATOM      1  C   UNL     1       1.050   2.146  18.933  0.00  0.00    +0.000 C 
ATOM      2  C   UNL     1       2.165   3.152  19.091  0.00  0.00    +0.000 A 
ATOM      3  C   UNL     1       1.821   4.443  19.764  0.00  0.00    +0.000 A 
ATOM      4  C   UNL     1       2.795   5.366  19.847  0.00  0.00    +0.000 A 
ATOM      5  N   UNL     1       4.066   5.029  19.317  0.00  0.00    +0.000 N 
ATOM      6  N   UNL     1       5.206   5.777  19.306  0.00  0.00    +0.000 NA
ATOM      7  C   UNL     1       6.097   4.941  18.729  0.00  0.00    +0.000 A 
ATOM      8  N   UNL     1       5.571   3.715  18.377  0.00  0.00    +0.000 NA
ATOM      9  C   UNL     1       4.312   3.780  18.745  0.00  0.00    +0.000 A 
ATOM     10  N   UNL     1       3.334   2.839  18.623  0.00  0.00    +0.000 NA
ENDROOT
BRANCH   7  11
ATOM     11  C   UNL     1       7.551   5.279  18.468  0.00  0.00    +0.000 C 
ATOM     12  F   UNL     1       7.711   6.430  17.757  0.00  0.00    +0.000 F 
ATOM     13  F   UNL     1       8.255   5.443  19.621  0.00  0.00    +0.000 F 
ATOM     14  F   UNL     1       8.184   4.302  17.761  0.00  0.00    +0.000 F 
ENDBRANCH   7  11
BRANCH   4  15
ATOM     15  N   UNL     1       2.610   6.641  20.395  0.00  0.00    +0.000 N 
ATOM     16  H   UNL     1       2.535   6.577  21.420  0.00  0.00    +0.000 HD
BRANCH  15  17
ATOM     17  C   UNL     1       1.681   7.632  19.825  0.00  0.00    +0.000 C 
ATOM     18  C   UNL     1       2.309   8.224  18.550  0.00  0.00    +0.000 C 
ATOM     19  C   UNL     1       1.370   9.237  17.890  0.00  0.00    +0.000 C 
ATOM     20  C   UNL     1       0.823  10.192  18.885  0.00  0.00    +0.000 A 
ATOM     21  N   UNL     1       0.282  11.373  18.691  0.00  0.00    +0.000 NA
ATOM     22  C   UNL     1      -0.044  11.777  19.957  0.00  0.00    +0.000 A 
ATOM     23  N   UNL     1       0.257  10.905  20.928  0.00  0.00    +0.000 NA
ATOM     24  N   UNL     1       0.800   9.907  20.220  0.00  0.00    +0.000 N 
ATOM     25  C   UNL     1       1.365   8.737  20.851  0.00  0.00    +0.000 C 
ENDBRANCH  15  17
ENDBRANCH   4  15
TORSDOF 3
ENDMDL
MODEL 7
REMARK VINA RESULT:      -8.5      4.259      5.916
REMARK  Name = 
REMARK  4 active torsions:
REMARK  status: ('A' for Active; 'I' for Inactive)
REMARK    1  A    between atoms: C_1  and  C_2
REMARK    2  A    between atoms: C_4  and  N_5
REMARK    3  A    between atoms: N_5  and  C_6
REMARK    4  A    between atoms: C_17  and  C_18
REMARK                            x       y       z     vdW  Elec       q    Type
REMARK                         _______ _______ _______ _____ _____    ______ ____
ROOT
ATOM      1  C   UNL     1       0.745   2.168  18.770  0.00  0.00    +0.000 C 
ATOM      2  C   UNL     1       1.927   3.104  18.707  0.00  0.00    +0.000 A 
ATOM      3  C   UNL     1       1.799   4.406  19.434  0.00  0.00    +0.000 A 
ATOM      4  C   UNL     1       2.825   5.269  19.325  0.00  0.00    +0.000 A 
ATOM      5  N   UNL     1       3.946   4.864  18.558  0.00  0.00    +0.000 N 
ATOM      6  N   UNL     1       5.104   5.544  18.324  0.00  0.00    +0.000 NA
ATOM      7  C   UNL     1       5.814   4.663  17.585  0.00  0.00    +0.000 A 
ATOM      8  N   UNL     1       5.157   3.474  17.344  0.00  0.00    +0.000 NA
ATOM      9  C   UNL     1       4.000   3.609  17.949  0.00  0.00    +0.000 A 
ATOM     10  N   UNL     1       2.962   2.728  18.021  0.00  0.00    +0.000 NA
ENDROOT
BRANCH   7  11
ATOM     11  C   UNL     1       7.208   4.917  17.046  0.00  0.00    +0.000 C 
ATOM     12  F   UNL     1       7.354   4.535  15.747  0.00  0.00    +0.000 F 
ATOM     13  F   UNL     1       7.545   6.235  17.096  0.00  0.00    +0.000 F 
ATOM     14  F   UNL     1       8.160   4.244  17.751  0.00  0.00    +0.000 F 
ENDBRANCH   7  11
BRANCH   4  15
ATOM     15  N   UNL     1       2.827   6.547  19.898  0.00  0.00    +0.000 N 
ATOM     16  H   UNL     1       2.988   6.478  20.912  0.00  0.00    +0.000 HD
BRANCH  15  17
ATOM     17  C   UNL     1       1.834   7.580  19.556  0.00  0.00    +0.000 C 
ATOM     18  C   UNL     1       2.354   8.387  18.352  0.00  0.00    +0.000 C 
ATOM     19  C   UNL     1       1.344   9.456  17.925  0.00  0.00    +0.000 C 
ATOM     20  C   UNL     1       0.847  10.223  19.094  0.00  0.00    +0.000 A 
ATOM     21  N   UNL     1       0.263  11.400  19.127  0.00  0.00    +0.000 NA
ATOM     22  C   UNL     1       0.020  11.588  20.460  0.00  0.00    +0.000 A 
ATOM     23  N   UNL     1       0.412  10.586  21.257  0.00  0.00    +0.000 NA
ATOM     24  N   UNL     1       0.927   9.732  20.365  0.00  0.00    +0.000 N 
ATOM     25  C   UNL     1       1.565   8.499  20.763  0.00  0.00    +0.000 C 
ENDBRANCH  15  17
ENDBRANCH   4  15
TORSDOF 3
ENDMDL
MODEL 8
REMARK VINA RESULT:      -8.5      1.524      1.757
REMARK  Name = 
REMARK  4 active torsions:
REMARK  status: ('A' for Active; 'I' for Inactive)
REMARK    1  A    between atoms: C_1  and  C_2
REMARK    2  A    between atoms: C_4  and  N_5
REMARK    3  A    between atoms: N_5  and  C_6
REMARK    4  A    between atoms: C_17  and  C_18
REMARK                            x       y       z     vdW  Elec       q    Type
REMARK                         _______ _______ _______ _____ _____    ______ ____
ROOT
ATOM      1  C   UNL     1       8.235   5.547  19.275  0.00  0.00    +0.000 C 
ATOM      2  C   UNL     1       7.328   5.395  18.078  0.00  0.00    +0.000 A 
ATOM      3  C   UNL     1       5.941   5.940  18.206  0.00  0.00    +0.000 A 
ATOM      4  C   UNL     1       5.112   5.748  17.165  0.00  0.00    +0.000 A 
ATOM      5  N   UNL     1       5.627   5.073  16.030  0.00  0.00    +0.000 N 
ATOM      6  N   UNL     1       4.998   4.785  14.855  0.00  0.00    +0.000 NA
ATOM      7  C   UNL     1       5.977   4.189  14.139  0.00  0.00    +0.000 A 
ATOM      8  N   UNL     1       7.179   4.087  14.808  0.00  0.00    +0.000 NA
ATOM      9  C   UNL     1       6.952   4.637  15.979  0.00  0.00    +0.000 A 
ATOM     10  N   UNL     1       7.804   4.794  17.031  0.00  0.00    +0.000 NA
ENDROOT
BRANCH   7  11
ATOM     11  C   UNL     1       5.812   3.661  12.729  0.00  0.00    +0.000 C 
ATOM     12  F   UNL     1       6.057   2.324  12.628  0.00  0.00    +0.000 F 
ATOM     13  F   UNL     1       4.552   3.854  12.251  0.00  0.00    +0.000 F 
ATOM     14  F   UNL     1       6.658   4.270  11.852  0.00  0.00    +0.000 F 
ENDBRANCH   7  11
BRANCH   4  15
ATOM     15  N   UNL     1       3.770   6.147  17.159  0.00  0.00    +0.000 N 
ATOM     16  H   UNL     1       3.707   7.173  17.088  0.00  0.00    +0.000 HD
BRANCH  15  17
ATOM     17  C   UNL     1       2.761   5.585  18.074  0.00  0.00    +0.000 C 
ATOM     18  C   UNL     1       2.849   6.325  19.421  0.00  0.00    +0.000 C 
ATOM     19  C   UNL     1       1.795   5.808  20.405  0.00  0.00    +0.000 C 
ATOM     20  C   UNL     1       1.777   4.324  20.443  0.00  0.00    +0.000 A 
ATOM     21  N   UNL     1       1.289   3.524  21.364  0.00  0.00    +0.000 NA
ATOM     22  C   UNL     1       1.544   2.278  20.858  0.00  0.00    +0.000 A 
ATOM     23  N   UNL     1       2.155   2.262  19.667  0.00  0.00    +0.000 NA
ATOM     24  N   UNL     1       2.285   3.572  19.424  0.00  0.00    +0.000 N 
ATOM     25  C   UNL     1       2.976   4.071  18.258  0.00  0.00    +0.000 C 
ENDBRANCH  15  17
ENDBRANCH   4  15
TORSDOF 3
ENDMDL
MODEL 9
REMARK VINA RESULT:      -8.5      1.291      1.747
REMARK  Name = 
REMARK  4 active torsions:
REMARK  status: ('A' for Active; 'I' for Inactive)
REMARK    1  A    between atoms: C_1  and  C_2
REMARK    2  A    between atoms: C_4  and  N_5
REMARK    3  A    between atoms: N_5  and  C_6
REMARK    4  A    between atoms: C_17  and  C_18
REMARK                            x       y       z     vdW  Elec       q    Type
REMARK                         _______ _______ _______ _____ _____    ______ ____
ROOT
ATOM      1  C   UNL     1       8.213   7.749  18.471  0.00  0.00    +0.000 C 
ATOM      2  C   UNL     1       7.566   6.625  17.698  0.00  0.00    +0.000 A 
ATOM      3  C   UNL     1       6.958   5.517  18.499  0.00  0.00    +0.000 A 
ATOM      4  C   UNL     1       6.438   4.483  17.813  0.00  0.00    +0.000 A 
ATOM      5  N   UNL     1       6.486   4.544  16.397  0.00  0.00    +0.000 N 
ATOM      6  N   UNL     1       6.007   3.642  15.493  0.00  0.00    +0.000 NA
ATOM      7  C   UNL     1       6.283   4.240  14.313  0.00  0.00    +0.000 A 
ATOM      8  N   UNL     1       6.911   5.463  14.436  0.00  0.00    +0.000 NA
ATOM      9  C   UNL     1       7.033   5.641  15.731  0.00  0.00    +0.000 A 
ATOM     10  N   UNL     1       7.591   6.687  16.403  0.00  0.00    +0.000 NA
ENDROOT
BRANCH   7  11
ATOM     11  C   UNL     1       5.955   3.655  12.954  0.00  0.00    +0.000 C 
ATOM     12  F   UNL     1       6.705   4.189  11.949  0.00  0.00    +0.000 F 
ATOM     13  F   UNL     1       6.160   2.311  12.909  0.00  0.00    +0.000 F 
ATOM     14  F   UNL     1       4.653   3.862  12.609  0.00  0.00    +0.000 F 
ENDBRANCH   7  11
BRANCH   4  15
ATOM     15  N   UNL     1       5.888   3.348  18.420  0.00  0.00    +0.000 N 
ATOM     16  H   UNL     1       5.850   2.571  17.746  0.00  0.00    +0.000 HD
BRANCH  15  17
ATOM     17  C   UNL     1       4.698   3.398  19.287  0.00  0.00    +0.000 C 
ATOM     18  C   UNL     1       3.627   2.453  18.712  0.00  0.00    +0.000 C 
ATOM     19  C   UNL     1       2.375   2.435  19.594  0.00  0.00    +0.000 C 
ATOM     20  C   UNL     1       1.948   3.811  19.951  0.00  0.00    +0.000 A 
ATOM     21  N   UNL     1       0.780   4.231  20.382  0.00  0.00    +0.000 NA
ATOM     22  C   UNL     1       0.979   5.574  20.554  0.00  0.00    +0.000 A 
ATOM     23  N   UNL     1       2.211   6.009  20.263  0.00  0.00    +0.000 NA
ATOM     24  N   UNL     1       2.807   4.870  19.890  0.00  0.00    +0.000 N 
ATOM     25  C   UNL     1       4.164   4.839  19.397  0.00  0.00    +0.000 C 
ENDBRANCH  15  17
ENDBRANCH   4  15
TORSDOF 3
ENDMDL
