MODEL 1
REMARK VINA RESULT:      -9.0      0.000      0.000
REMARK  Name = 
REMARK  4 active torsions:
REMARK  status: ('A' for Active; 'I' for Inactive)
REMARK    1  A    between atoms: C_2  and  C_4
REMARK    2  A    between atoms: C_8  and  N_9
REMARK    3  A    between atoms: N_9  and  S_10
REMARK    4  A    between atoms: S_10  and  C_13
REMARK                            x       y       z     vdW  Elec       q    Type
REMARK                         _______ _______ _______ _____ _____    ______ ____
ROOT
ATOM      1  S   UNL     1       5.949   6.185  16.497  0.00  0.00    +0.000 S 
ATOM      2  O   UNL     1       7.053   6.917  17.082  0.00  0.00    +0.000 OA
ATOM      3  O   UNL     1       5.096   6.781  15.494  0.00  0.00    +0.000 OA
ENDROOT
BRANCH   1   4
ATOM      4  C   UNL     1       4.926   5.637  17.849  0.00  0.00    +0.000 A 
ATOM      5  C   UNL     1       3.895   6.484  18.277  0.00  0.00    +0.000 A 
ATOM      6  C   UNL     1       3.079   6.094  19.333  0.00  0.00    +0.000 A 
ATOM      7  C   UNL     1       3.269   4.839  19.903  0.00  0.00    +0.000 A 
ATOM      8  O   UNL     1       2.363   4.475  20.916  0.00  0.00    +0.000 OA
ATOM      9  C   UNL     1       2.286   3.162  21.347  0.00  0.00    +0.000 A 
ATOM     10  O   UNL     1       1.381   2.764  22.072  0.00  0.00    +0.000 OA
ATOM     11  C   UNL     1       3.358   2.253  20.904  0.00  0.00    +0.000 A 
ATOM     12  C   UNL     1       4.304   2.625  20.033  0.00  0.00    +0.000 A 
ATOM     13  C   UNL     1       4.254   3.958  19.451  0.00  0.00    +0.000 A 
ATOM     14  C   UNL     1       5.107   4.368  18.420  0.00  0.00    +0.000 A 
ENDBRANCH   1   4
BRANCH   1  15
ATOM     15  N   UNL     1       6.596   4.734  15.912  0.00  0.00    +0.000 N 
ATOM     16  H   UNL     1       6.251   3.923  16.425  0.00  0.00    +0.000 HD
BRANCH  15  21
ATOM     17  C   UNL     1       6.251   3.523  12.405  0.00  0.00    +0.000 A 
ATOM     18  C   UNL     1       7.176   4.353  11.757  0.00  0.00    +0.000 A 
ATOM     19  C   UNL     1       7.897   5.296  12.491  0.00  0.00    +0.000 A 
ATOM     20  C   UNL     1       7.689   5.415  13.865  0.00  0.00    +0.000 A 
ATOM     21  C   UNL     1       6.775   4.586  14.508  0.00  0.00    +0.000 A 
ATOM     22  C   UNL     1       6.047   3.643  13.787  0.00  0.00    +0.000 A 
BRANCH  17  24
ATOM     23  N   UNL     1       5.985   1.286  11.471  0.00  0.00    +0.000 N 
ATOM     24  C   UNL     1       5.443   2.525  11.660  0.00  0.00    +0.000 C 
ATOM     25  O   UNL     1       4.319   2.794  11.257  0.00  0.00    +0.000 OA
ATOM     26  H   UNL     1       5.387   0.591  11.040  0.00  0.00    +0.000 HD
ATOM     27  H   UNL     1       6.795   0.955  11.976  0.00  0.00    +0.000 HD
ENDBRANCH  17  24
ENDBRANCH  15  21
ENDBRANCH   1  15
TORSDOF 4
ENDMDL
MODEL 2
REMARK VINA RESULT:      -9.0      0.745      1.536
REMARK  Name = 
REMARK  4 active torsions:
REMARK  status: ('A' for Active; 'I' for Inactive)
REMARK    1  A    between atoms: C_2  and  C_4
REMARK    2  A    between atoms: C_8  and  N_9
REMARK    3  A    between atoms: N_9  and  S_10
REMARK    4  A    between atoms: S_10  and  C_13
REMARK                            x       y       z     vdW  Elec       q    Type
REMARK                         _______ _______ _______ _____ _____    ______ ____
ROOT
ATOM      1  S   UNL     1       6.058   6.236  16.396  0.00  0.00    +0.000 S 
ATOM      2  O   UNL     1       6.887   7.154  17.149  0.00  0.00    +0.000 OA
ATOM      3  O   UNL     1       5.165   6.704  15.359  0.00  0.00    +0.000 OA
ENDROOT
BRANCH   1   4
ATOM      4  C   UNL     1       5.105   5.315  17.586  0.00  0.00    +0.000 A 
ATOM      5  C   UNL     1       5.562   4.042  17.949  0.00  0.00    +0.000 A 
ATOM      6  C   UNL     1       4.842   3.291  18.871  0.00  0.00    +0.000 A 
ATOM      7  C   UNL     1       3.711   3.849  19.458  0.00  0.00    +0.000 A 
ATOM      8  O   UNL     1       3.070   3.067  20.437  0.00  0.00    +0.000 OA
ATOM      9  C   UNL     1       2.120   3.630  21.271  0.00  0.00    +0.000 A 
ATOM     10  O   UNL     1       1.691   3.047  22.260  0.00  0.00    +0.000 OA
ATOM     11  C   UNL     1       1.629   4.972  20.909  0.00  0.00    +0.000 A 
ATOM     12  C   UNL     1       2.146   5.679  19.898  0.00  0.00    +0.000 A 
ATOM     13  C   UNL     1       3.273   5.139  19.151  0.00  0.00    +0.000 A 
ATOM     14  C   UNL     1       3.969   5.878  18.188  0.00  0.00    +0.000 A 
ENDBRANCH   1   4
BRANCH   1  15
ATOM     15  N   UNL     1       7.101   5.060  15.767  0.00  0.00    +0.000 N 
ATOM     16  H   UNL     1       7.154   4.234  16.362  0.00  0.00    +0.000 HD
BRANCH  15  21
ATOM     17  C   UNL     1       6.354   3.696  12.380  0.00  0.00    +0.000 A 
ATOM     18  C   UNL     1       7.202   4.489  11.594  0.00  0.00    +0.000 A 
ATOM     19  C   UNL     1       8.005   5.458  12.198  0.00  0.00    +0.000 A 
ATOM     20  C   UNL     1       7.955   5.640  13.580  0.00  0.00    +0.000 A 
ATOM     21  C   UNL     1       7.118   4.848  14.359  0.00  0.00    +0.000 A 
ATOM     22  C   UNL     1       6.309   3.880  13.769  0.00  0.00    +0.000 A 
BRANCH  17  24
ATOM     23  N   UNL     1       5.966   1.414  11.614  0.00  0.00    +0.000 N 
ATOM     24  C   UNL     1       5.463   2.673  11.777  0.00  0.00    +0.000 C 
ATOM     25  O   UNL     1       4.310   2.942  11.467  0.00  0.00    +0.000 OA
ATOM     26  H   UNL     1       5.319   0.707  11.285  0.00  0.00    +0.000 HD
ATOM     27  H   UNL     1       6.816   1.097  12.059  0.00  0.00    +0.000 HD
ENDBRANCH  17  24
ENDBRANCH  15  21
ENDBRANCH   1  15
TORSDOF 4
ENDMDL
MODEL 3
REMARK VINA RESULT:      -8.8      2.887      4.914
REMARK  Name = 
REMARK  4 active torsions:
REMARK  status: ('A' for Active; 'I' for Inactive)
REMARK    1  A    between atoms: C_2  and  C_4
REMARK    2  A    between atoms: C_8  and  N_9
REMARK    3  A    between atoms: N_9  and  S_10
REMARK    4  A    between atoms: S_10  and  C_13
REMARK                            x       y       z     vdW  Elec       q    Type
REMARK                         _______ _______ _______ _____ _____    ______ ____
ROOT
ATOM      1  S   UNL     1       3.593   3.191  18.793  0.00  0.00    +0.000 S 
ATOM      2  O   UNL     1       3.476   2.979  17.365  0.00  0.00    +0.000 OA
ATOM      3  O   UNL     1       3.054   2.243  19.742  0.00  0.00    +0.000 OA
ENDROOT
BRANCH   1   4
ATOM      4  C   UNL     1       2.882   4.790  19.131  0.00  0.00    +0.000 A 
ATOM      5  C   UNL     1       2.414   5.039  20.428  0.00  0.00    +0.000 A 
ATOM      6  C   UNL     1       1.849   6.273  20.728  0.00  0.00    +0.000 A 
ATOM      7  C   UNL     1       1.816   7.257  19.745  0.00  0.00    +0.000 A 
ATOM      8  O   UNL     1       1.300   8.506  20.135  0.00  0.00    +0.000 OA
ATOM      9  C   UNL     1       1.477   9.618  19.331  0.00  0.00    +0.000 A 
ATOM     10  O   UNL     1       1.228  10.753  19.722  0.00  0.00    +0.000 OA
ATOM     11  C   UNL     1       1.974   9.378  17.965  0.00  0.00    +0.000 A 
ATOM     12  C   UNL     1       2.353   8.168  17.538  0.00  0.00    +0.000 A 
ATOM     13  C   UNL     1       2.330   7.045  18.464  0.00  0.00    +0.000 A 
ATOM     14  C   UNL     1       2.856   5.788  18.145  0.00  0.00    +0.000 A 
ENDBRANCH   1   4
BRANCH   1  15
ATOM     15  N   UNL     1       5.237   3.444  19.104  0.00  0.00    +0.000 N 
ATOM     16  H   UNL     1       5.721   2.580  19.347  0.00  0.00    +0.000 HD
BRANCH  15  21
ATOM     17  C   UNL     1       6.869   5.086  16.184  0.00  0.00    +0.000 A 
ATOM     18  C   UNL     1       7.341   6.262  16.785  0.00  0.00    +0.000 A 
ATOM     19  C   UNL     1       7.112   6.489  18.142  0.00  0.00    +0.000 A 
ATOM     20  C   UNL     1       6.408   5.550  18.895  0.00  0.00    +0.000 A 
ATOM     21  C   UNL     1       5.946   4.381  18.300  0.00  0.00    +0.000 A 
ATOM     22  C   UNL     1       6.164   4.143  16.945  0.00  0.00    +0.000 A 
BRANCH  17  24
ATOM     23  N   UNL     1       6.389   3.763  14.193  0.00  0.00    +0.000 N 
ATOM     24  C   UNL     1       7.066   4.816  14.738  0.00  0.00    +0.000 C 
ATOM     25  O   UNL     1       7.785   5.532  14.053  0.00  0.00    +0.000 OA
ATOM     26  H   UNL     1       6.465   3.647  13.189  0.00  0.00    +0.000 HD
ATOM     27  H   UNL     1       5.623   3.298  14.659  0.00  0.00    +0.000 HD
ENDBRANCH  17  24
ENDBRANCH  15  21
ENDBRANCH   1  15
TORSDOF 4
ENDMDL
MODEL 4
REMARK VINA RESULT:      -8.8      1.238      1.535
REMARK  Name = 
REMARK  4 active torsions:
REMARK  status: ('A' for Active; 'I' for Inactive)
REMARK    1  A    between atoms: C_2  and  C_4
REMARK    2  A    between atoms: C_8  and  N_9
REMARK    3  A    between atoms: N_9  and  S_10
REMARK    4  A    between atoms: S_10  and  C_13
REMARK                            x       y       z     vdW  Elec       q    Type
REMARK                         _______ _______ _______ _____ _____    ______ ____
ROOT
ATOM      1  S   UNL     1       6.118   6.181  16.311  0.00  0.00    +0.000 S 
ATOM      2  O   UNL     1       6.991   7.074  17.044  0.00  0.00    +0.000 OA
ATOM      3  O   UNL     1       5.217   6.674  15.293  0.00  0.00    +0.000 OA
ENDROOT
BRANCH   1   4
ATOM      4  C   UNL     1       5.162   5.293  17.524  0.00  0.00    +0.000 A 
ATOM      5  C   UNL     1       5.712   5.129  18.802  0.00  0.00    +0.000 A 
ATOM      6  C   UNL     1       4.998   4.437  19.774  0.00  0.00    +0.000 A 
ATOM      7  C   UNL     1       3.722   3.974  19.471  0.00  0.00    +0.000 A 
ATOM      8  O   UNL     1       3.024   3.348  20.519  0.00  0.00    +0.000 OA
ATOM      9  C   UNL     1       1.665   3.107  20.410  0.00  0.00    +0.000 A 
ATOM     10  O   UNL     1       0.985   2.756  21.368  0.00  0.00    +0.000 OA
ATOM     11  C   UNL     1       1.065   3.279  19.075  0.00  0.00    +0.000 A 
ATOM     12  C   UNL     1       1.753   3.758  18.032  0.00  0.00    +0.000 A 
ATOM     13  C   UNL     1       3.134   4.179  18.221  0.00  0.00    +0.000 A 
ATOM     14  C   UNL     1       3.870   4.833  17.226  0.00  0.00    +0.000 A 
ENDBRANCH   1   4
BRANCH   1  15
ATOM     15  N   UNL     1       7.109   4.971  15.664  0.00  0.00    +0.000 N 
ATOM     16  H   UNL     1       7.137   4.140  16.253  0.00  0.00    +0.000 HD
BRANCH  15  21
ATOM     17  C   UNL     1       6.276   3.660  12.276  0.00  0.00    +0.000 A 
ATOM     18  C   UNL     1       7.144   4.427  11.486  0.00  0.00    +0.000 A 
ATOM     19  C   UNL     1       7.988   5.361  12.087  0.00  0.00    +0.000 A 
ATOM     20  C   UNL     1       7.960   5.535  13.471  0.00  0.00    +0.000 A 
ATOM     21  C   UNL     1       7.103   4.769  14.254  0.00  0.00    +0.000 A 
ATOM     22  C   UNL     1       6.253   3.835  13.667  0.00  0.00    +0.000 A 
BRANCH  17  24
ATOM     23  N   UNL     1       4.086   3.104  11.359  0.00  0.00    +0.000 N 
ATOM     24  C   UNL     1       5.342   2.674  11.676  0.00  0.00    +0.000 C 
ATOM     25  O   UNL     1       5.697   1.525  11.446  0.00  0.00    +0.000 OA
ATOM     26  H   UNL     1       3.492   2.446  10.870  0.00  0.00    +0.000 HD
ATOM     27  H   UNL     1       3.831   4.081  11.319  0.00  0.00    +0.000 HD
ENDBRANCH  17  24
ENDBRANCH  15  21
ENDBRANCH   1  15
TORSDOF 4
ENDMDL
MODEL 5
REMARK VINA RESULT:      -8.6      2.994      4.934
REMARK  Name = 
REMARK  4 active torsions:
REMARK  status: ('A' for Active; 'I' for Inactive)
REMARK    1  A    between atoms: C_2  and  C_4
REMARK    2  A    between atoms: C_8  and  N_9
REMARK    3  A    between atoms: N_9  and  S_10
REMARK    4  A    between atoms: S_10  and  C_13
REMARK                            x       y       z     vdW  Elec       q    Type
REMARK                         _______ _______ _______ _____ _____    ______ ____
ROOT
ATOM      1  S   UNL     1       3.573   3.399  19.027  0.00  0.00    +0.000 S 
ATOM      2  O   UNL     1       3.379   2.883  17.688  0.00  0.00    +0.000 OA
ATOM      3  O   UNL     1       2.972   2.760  20.177  0.00  0.00    +0.000 OA
ENDROOT
BRANCH   1   4
ATOM      4  C   UNL     1       3.054   5.104  18.998  0.00  0.00    +0.000 A 
ATOM      5  C   UNL     1       3.155   5.800  17.786  0.00  0.00    +0.000 A 
ATOM      6  C   UNL     1       2.765   7.132  17.726  0.00  0.00    +0.000 A 
ATOM      7  C   UNL     1       2.225   7.729  18.861  0.00  0.00    +0.000 A 
ATOM      8  O   UNL     1       1.782   9.056  18.713  0.00  0.00    +0.000 OA
ATOM      9  C   UNL     1       0.985   9.640  19.682  0.00  0.00    +0.000 A 
ATOM     10  O   UNL     1       0.412  10.709  19.500  0.00  0.00    +0.000 OA
ATOM     11  C   UNL     1       0.861   8.921  20.962  0.00  0.00    +0.000 A 
ATOM     12  C   UNL     1       1.387   7.707  21.160  0.00  0.00    +0.000 A 
ATOM     13  C   UNL     1       2.064   7.034  20.061  0.00  0.00    +0.000 A 
ATOM     14  C   UNL     1       2.500   5.706  20.138  0.00  0.00    +0.000 A 
ENDBRANCH   1   4
BRANCH   1  15
ATOM     15  N   UNL     1       5.247   3.526  19.250  0.00  0.00    +0.000 N 
ATOM     16  H   UNL     1       5.680   2.622  19.434  0.00  0.00    +0.000 HD
BRANCH  15  21
ATOM     17  C   UNL     1       6.845   5.151  16.302  0.00  0.00    +0.000 A 
ATOM     18  C   UNL     1       7.410   6.282  16.910  0.00  0.00    +0.000 A 
ATOM     19  C   UNL     1       7.253   6.484  18.282  0.00  0.00    +0.000 A 
ATOM     20  C   UNL     1       6.528   5.567  19.042  0.00  0.00    +0.000 A 
ATOM     21  C   UNL     1       5.973   4.443  18.439  0.00  0.00    +0.000 A 
ATOM     22  C   UNL     1       6.120   4.230  17.070  0.00  0.00    +0.000 A 
BRANCH  17  24
ATOM     23  N   UNL     1       6.054   4.072  14.263  0.00  0.00    +0.000 N 
ATOM     24  C   UNL     1       6.964   4.910  14.842  0.00  0.00    +0.000 C 
ATOM     25  O   UNL     1       7.828   5.467  14.177  0.00  0.00    +0.000 OA
ATOM     26  H   UNL     1       6.094   3.988  13.255  0.00  0.00    +0.000 HD
ATOM     27  H   UNL     1       5.203   3.780  14.722  0.00  0.00    +0.000 HD
ENDBRANCH  17  24
ENDBRANCH  15  21
ENDBRANCH   1  15
TORSDOF 4
ENDMDL
MODEL 6
REMARK VINA RESULT:      -8.2      2.904      5.134
REMARK  Name = 
REMARK  4 active torsions:
REMARK  status: ('A' for Active; 'I' for Inactive)
REMARK    1  A    between atoms: C_2  and  C_4
REMARK    2  A    between atoms: C_8  and  N_9
REMARK    3  A    between atoms: N_9  and  S_10
REMARK    4  A    between atoms: S_10  and  C_13
REMARK                            x       y       z     vdW  Elec       q    Type
REMARK                         _______ _______ _______ _____ _____    ______ ____
ROOT
ATOM      1  S   UNL     1       5.410   5.251  15.220  0.00  0.00    +0.000 S 
ATOM      2  O   UNL     1       5.137   6.672  15.164  0.00  0.00    +0.000 OA
ATOM      3  O   UNL     1       5.139   4.386  14.093  0.00  0.00    +0.000 OA
ENDROOT
BRANCH   1   4
ATOM      4  C   UNL     1       4.534   4.618  16.636  0.00  0.00    +0.000 A 
ATOM      5  C   UNL     1       4.533   3.232  16.842  0.00  0.00    +0.000 A 
ATOM      6  C   UNL     1       3.856   2.701  17.933  0.00  0.00    +0.000 A 
ATOM      7  C   UNL     1       3.242   3.566  18.833  0.00  0.00    +0.000 A 
ATOM      8  O   UNL     1       2.638   2.970  19.954  0.00  0.00    +0.000 OA
ATOM      9  C   UNL     1       2.251   3.742  21.036  0.00  0.00    +0.000 A 
ATOM     10  O   UNL     1       1.914   3.247  22.105  0.00  0.00    +0.000 OA
ATOM     11  C   UNL     1       2.250   5.203  20.841  0.00  0.00    +0.000 A 
ATOM     12  C   UNL     1       2.707   5.782  19.725  0.00  0.00    +0.000 A 
ATOM     13  C   UNL     1       3.281   4.953  18.674  0.00  0.00    +0.000 A 
ATOM     14  C   UNL     1       3.921   5.488  17.551  0.00  0.00    +0.000 A 
ENDBRANCH   1   4
BRANCH   1  15
ATOM     15  N   UNL     1       7.030   5.095  15.688  0.00  0.00    +0.000 N 
ATOM     16  H   UNL     1       7.668   5.171  14.897  0.00  0.00    +0.000 HD
BRANCH  15  21
ATOM     17  C   UNL     1       8.093   7.603  18.232  0.00  0.00    +0.000 A 
ATOM     18  C   UNL     1       8.249   6.776  19.353  0.00  0.00    +0.000 A 
ATOM     19  C   UNL     1       8.002   5.407  19.247  0.00  0.00    +0.000 A 
ATOM     20  C   UNL     1       7.592   4.866  18.029  0.00  0.00    +0.000 A 
ATOM     21  C   UNL     1       7.443   5.686  16.915  0.00  0.00    +0.000 A 
ATOM     22  C   UNL     1       7.684   7.055  17.008  0.00  0.00    +0.000 A 
BRANCH  17  24
ATOM     23  N   UNL     1       9.180   9.527  19.260  0.00  0.00    +0.000 N 
ATOM     24  C   UNL     1       8.319   9.068  18.305  0.00  0.00    +0.000 C 
ATOM     25  O   UNL     1       7.777   9.832  17.518  0.00  0.00    +0.000 OA
ATOM     26  H   UNL     1       9.392  10.518  19.240  0.00  0.00    +0.000 HD
ATOM     27  H   UNL     1       9.813   8.926  19.769  0.00  0.00    +0.000 HD
ENDBRANCH  17  24
ENDBRANCH  15  21
ENDBRANCH   1  15
TORSDOF 4
ENDMDL
MODEL 7
REMARK VINA RESULT:      -8.2      3.075      7.230
REMARK  Name = 
REMARK  4 active torsions:
REMARK  status: ('A' for Active; 'I' for Inactive)
REMARK    1  A    between atoms: C_2  and  C_4
REMARK    2  A    between atoms: C_8  and  N_9
REMARK    3  A    between atoms: N_9  and  S_10
REMARK    4  A    between atoms: S_10  and  C_13
REMARK                            x       y       z     vdW  Elec       q    Type
REMARK                         _______ _______ _______ _____ _____    ______ ____
ROOT
ATOM      1  S   UNL     1       3.674   2.485  19.061  0.00  0.00    +0.000 S 
ATOM      2  O   UNL     1       4.138   2.733  20.410  0.00  0.00    +0.000 OA
ATOM      3  O   UNL     1       3.560   1.142  18.538  0.00  0.00    +0.000 OA
ENDROOT
BRANCH   1   4
ATOM      4  C   UNL     1       4.732   3.422  17.977  0.00  0.00    +0.000 A 
ATOM      5  C   UNL     1       5.729   4.217  18.558  0.00  0.00    +0.000 A 
ATOM      6  C   UNL     1       6.571   4.966  17.744  0.00  0.00    +0.000 A 
ATOM      7  C   UNL     1       6.442   4.862  16.363  0.00  0.00    +0.000 A 
ATOM      8  O   UNL     1       7.372   5.587  15.597  0.00  0.00    +0.000 OA
ATOM      9  C   UNL     1       7.511   5.338  14.243  0.00  0.00    +0.000 A 
ATOM     10  O   UNL     1       8.439   5.794  13.585  0.00  0.00    +0.000 OA
ATOM     11  C   UNL     1       6.475   4.498  13.613  0.00  0.00    +0.000 A 
ATOM     12  C   UNL     1       5.507   3.900  14.316  0.00  0.00    +0.000 A 
ATOM     13  C   UNL     1       5.493   4.030  15.766  0.00  0.00    +0.000 A 
ATOM     14  C   UNL     1       4.613   3.312  16.583  0.00  0.00    +0.000 A 
ENDBRANCH   1   4
BRANCH   1  15
ATOM     15  N   UNL     1       2.190   3.286  18.913  0.00  0.00    +0.000 N 
ATOM     16  H   UNL     1       1.406   2.703  19.202  0.00  0.00    +0.000 HD
BRANCH  15  21
ATOM     17  C   UNL     1       2.476   6.996  18.705  0.00  0.00    +0.000 A 
ATOM     18  C   UNL     1       1.978   7.360  19.964  0.00  0.00    +0.000 A 
ATOM     19  C   UNL     1       1.559   6.374  20.858  0.00  0.00    +0.000 A 
ATOM     20  C   UNL     1       1.628   5.030  20.492  0.00  0.00    +0.000 A 
ATOM     21  C   UNL     1       2.128   4.669  19.245  0.00  0.00    +0.000 A 
ATOM     22  C   UNL     1       2.547   5.644  18.343  0.00  0.00    +0.000 A 
BRANCH  17  24
ATOM     23  N   UNL     1       4.064   7.776  17.027  0.00  0.00    +0.000 N 
ATOM     24  C   UNL     1       2.907   8.013  17.714  0.00  0.00    +0.000 C 
ATOM     25  O   UNL     1       2.234   9.012  17.498  0.00  0.00    +0.000 OA
ATOM     26  H   UNL     1       4.297   8.434  16.292  0.00  0.00    +0.000 HD
ATOM     27  H   UNL     1       4.519   6.874  17.006  0.00  0.00    +0.000 HD
ENDBRANCH  17  24
ENDBRANCH  15  21
ENDBRANCH   1  15
TORSDOF 4
ENDMDL
MODEL 8
REMARK VINA RESULT:      -8.1      2.935      4.995
REMARK  Name = 
REMARK  4 active torsions:
REMARK  status: ('A' for Active; 'I' for Inactive)
REMARK    1  A    between atoms: C_2  and  C_4
REMARK    2  A    between atoms: C_8  and  N_9
REMARK    3  A    between atoms: N_9  and  S_10
REMARK    4  A    between atoms: S_10  and  C_13
REMARK                            x       y       z     vdW  Elec       q    Type
REMARK                         _______ _______ _______ _____ _____    ______ ____
ROOT
ATOM      1  S   UNL     1       5.460   5.417  15.170  0.00  0.00    +0.000 S 
ATOM      2  O   UNL     1       5.202   6.818  14.912  0.00  0.00    +0.000 OA
ATOM      3  O   UNL     1       5.154   4.400  14.189  0.00  0.00    +0.000 OA
ENDROOT
BRANCH   1   4
ATOM      4  C   UNL     1       4.611   5.011  16.683  0.00  0.00    +0.000 A 
ATOM      5  C   UNL     1       4.193   6.066  17.505  0.00  0.00    +0.000 A 
ATOM      6  C   UNL     1       3.532   5.788  18.695  0.00  0.00    +0.000 A 
ATOM      7  C   UNL     1       3.246   4.464  19.015  0.00  0.00    +0.000 A 
ATOM      8  O   UNL     1       2.510   4.257  20.195  0.00  0.00    +0.000 OA
ATOM      9  C   UNL     1       1.938   3.024  20.456  0.00  0.00    +0.000 A 
ATOM     10  O   UNL     1       1.126   2.858  21.359  0.00  0.00    +0.000 OA
ATOM     11  C   UNL     1       2.360   1.901  19.599  0.00  0.00    +0.000 A 
ATOM     12  C   UNL     1       3.163   2.064  18.542  0.00  0.00    +0.000 A 
ATOM     13  C   UNL     1       3.604   3.404  18.180  0.00  0.00    +0.000 A 
ATOM     14  C   UNL     1       4.311   3.678  17.004  0.00  0.00    +0.000 A 
ENDBRANCH   1   4
BRANCH   1  15
ATOM     15  N   UNL     1       7.089   5.308  15.620  0.00  0.00    +0.000 N 
ATOM     16  H   UNL     1       7.717   5.453  14.831  0.00  0.00    +0.000 HD
BRANCH  15  21
ATOM     17  C   UNL     1       8.133   7.712  18.270  0.00  0.00    +0.000 A 
ATOM     18  C   UNL     1       8.257   6.844  19.365  0.00  0.00    +0.000 A 
ATOM     19  C   UNL     1       7.995   5.483  19.206  0.00  0.00    +0.000 A 
ATOM     20  C   UNL     1       7.602   4.991  17.962  0.00  0.00    +0.000 A 
ATOM     21  C   UNL     1       7.485   5.851  16.875  0.00  0.00    +0.000 A 
ATOM     22  C   UNL     1       7.741   7.212  17.020  0.00  0.00    +0.000 A 
BRANCH  17  24
ATOM     23  N   UNL     1       9.237   9.584  19.375  0.00  0.00    +0.000 N 
ATOM     24  C   UNL     1       8.376   9.170  18.399  0.00  0.00    +0.000 C 
ATOM     25  O   UNL     1       7.848   9.969  17.637  0.00  0.00    +0.000 OA
ATOM     26  H   UNL     1       9.460  10.572  19.392  0.00  0.00    +0.000 HD
ATOM     27  H   UNL     1       9.860   8.957  19.864  0.00  0.00    +0.000 HD
ENDBRANCH  17  24
ENDBRANCH  15  21
ENDBRANCH   1  15
TORSDOF 4
ENDMDL
MODEL 9
REMARK VINA RESULT:      -8.1      4.009      5.535
REMARK  Name = 
REMARK  4 active torsions:
REMARK  status: ('A' for Active; 'I' for Inactive)
REMARK    1  A    between atoms: C_2  and  C_4
REMARK    2  A    between atoms: C_8  and  N_9
REMARK    3  A    between atoms: N_9  and  S_10
REMARK    4  A    between atoms: S_10  and  C_13
REMARK                            x       y       z     vdW  Elec       q    Type
REMARK                         _______ _______ _______ _____ _____    ______ ____
ROOT
ATOM      1  S   UNL     1       3.006   6.280  18.694  0.00  0.00    +0.000 S 
ATOM      2  O   UNL     1       2.107   5.546  17.828  0.00  0.00    +0.000 OA
ATOM      3  O   UNL     1       3.625   5.654  19.841  0.00  0.00    +0.000 OA
ENDROOT
BRANCH   1   4
ATOM      4  C   UNL     1       2.117   7.719  19.252  0.00  0.00    +0.000 A 
ATOM      5  C   UNL     1       1.830   8.718  18.312  0.00  0.00    +0.000 A 
ATOM      6  C   UNL     1       1.142   9.859  18.711  0.00  0.00    +0.000 A 
ATOM      7  C   UNL     1       0.701   9.954  20.027  0.00  0.00    +0.000 A 
ATOM      8  O   UNL     1      -0.052  11.098  20.347  0.00  0.00    +0.000 OA
ATOM      9  C   UNL     1      -0.767  11.157  21.531  0.00  0.00    +0.000 A 
ATOM     10  O   UNL     1      -1.591  12.037  21.753  0.00  0.00    +0.000 OA
ATOM     11  C   UNL     1      -0.483  10.112  22.530  0.00  0.00    +0.000 A 
ATOM     12  C   UNL     1       0.332   9.081  22.284  0.00  0.00    +0.000 A 
ATOM     13  C   UNL     1       0.928   8.943  20.962  0.00  0.00    +0.000 A 
ATOM     14  C   UNL     1       1.661   7.815  20.576  0.00  0.00    +0.000 A 
ENDBRANCH   1   4
BRANCH   1  15
ATOM     15  N   UNL     1       4.196   6.946  17.691  0.00  0.00    +0.000 N 
ATOM     16  H   UNL     1       4.388   7.921  17.915  0.00  0.00    +0.000 HD
BRANCH  15  21
ATOM     17  C   UNL     1       6.628   4.982  15.661  0.00  0.00    +0.000 A 
ATOM     18  C   UNL     1       7.499   4.539  16.667  0.00  0.00    +0.000 A 
ATOM     19  C   UNL     1       7.265   4.896  17.995  0.00  0.00    +0.000 A 
ATOM     20  C   UNL     1       6.172   5.699  18.318  0.00  0.00    +0.000 A 
ATOM     21  C   UNL     1       5.305   6.133  17.320  0.00  0.00    +0.000 A 
ATOM     22  C   UNL     1       5.528   5.787  15.990  0.00  0.00    +0.000 A 
BRANCH  17  24
ATOM     23  N   UNL     1       6.245   3.530  13.740  0.00  0.00    +0.000 N 
ATOM     24  C   UNL     1       6.853   4.649  14.232  0.00  0.00    +0.000 C 
ATOM     25  O   UNL     1       7.534   5.369  13.514  0.00  0.00    +0.000 OA
ATOM     26  H   UNL     1       6.335   3.366  12.745  0.00  0.00    +0.000 HD
ATOM     27  H   UNL     1       5.504   3.045  14.227  0.00  0.00    +0.000 HD
ENDBRANCH  17  24
ENDBRANCH  15  21
ENDBRANCH   1  15
TORSDOF 4
ENDMDL
