MODEL 1
REMARK VINA RESULT:      -8.7      0.000      0.000
REMARK  Name = 
REMARK  5 active torsions:
REMARK  status: ('A' for Active; 'I' for Inactive)
REMARK    1  A    between atoms: C_6  and  C_7
REMARK    2  A    between atoms: C_7  and  S_8
REMARK    3  A    between atoms: S_8  and  C_9
REMARK    4  A    between atoms: C_12  and  C_13
REMARK    5  A    between atoms: N_22  and  C_23
REMARK                            x       y       z     vdW  Elec       q    Type
REMARK                         _______ _______ _______ _____ _____    ______ ____
ROOT
ATOM      1  C   UNL     1       1.245   9.679  18.676  0.00  0.00    +0.000 A 
ATOM      2  N   UNL     1       1.837   9.557  17.510  0.00  0.00    +0.000 NA
ATOM      3  N   UNL     1       2.548   8.387  17.523  0.00  0.00    +0.000 NA
ATOM      4  C   UNL     1       2.366   7.774  18.686  0.00  0.00    +0.000 A 
ATOM      5  N   UNL     1       1.619   8.625  19.491  0.00  0.00    +0.000 N 
ENDROOT
BRANCH   4   6
ATOM      6  C   UNL     1       2.946   6.392  18.914  0.00  0.00    +0.000 A 
ATOM      7  C   UNL     1       4.146   6.066  18.301  0.00  0.00    +0.000 A 
ATOM      8  N   UNL     1       4.515   4.810  18.680  0.00  0.00    +0.000 N 
ATOM      9  C   UNL     1       3.587   4.292  19.548  0.00  0.00    +0.000 A 
ATOM     10  C   UNL     1       3.609   3.064  20.229  0.00  0.00    +0.000 A 
ATOM     11  C   UNL     1       2.518   2.742  21.032  0.00  0.00    +0.000 A 
ATOM     12  C   UNL     1       1.416   3.585  21.087  0.00  0.00    +0.000 A 
ATOM     13  C   UNL     1       1.407   4.801  20.383  0.00  0.00    +0.000 A 
ATOM     14  C   UNL     1       2.538   5.220  19.646  0.00  0.00    +0.000 A 
ATOM     15  H   UNL     1       5.351   4.328  18.377  0.00  0.00    +0.000 HD
ENDBRANCH   4   6
BRANCH   5  16
ATOM     16  C   UNL     1       1.424   8.445  20.919  0.00  0.00    +0.000 C 
ATOM     17  C   UNL     1       0.045   8.186  21.503  0.00  0.00    +0.000 C 
ATOM     18  C   UNL     1       0.798   9.409  21.903  0.00  0.00    +0.000 C 
ENDBRANCH   5  16
BRANCH   1  19
ATOM     19  S   UNL     1       0.258  11.042  19.103  0.00  0.00    +0.000 S 
BRANCH  19  20
ATOM     20  C   UNL     1      -1.381  10.286  19.326  0.00  0.00    +0.000 C 
BRANCH  20  26
ATOM     21  F   UNL     1      -2.722   9.675  14.660  0.00  0.00    +0.000 F 
ATOM     22  C   UNL     1      -2.943  10.256  15.844  0.00  0.00    +0.000 A 
ATOM     23  C   UNL     1      -4.010  11.137  15.982  0.00  0.00    +0.000 A 
ATOM     24  C   UNL     1      -4.239  11.744  17.215  0.00  0.00    +0.000 A 
ATOM     25  C   UNL     1      -3.399  11.468  18.303  0.00  0.00    +0.000 A 
ATOM     26  C   UNL     1      -2.309  10.585  18.170  0.00  0.00    +0.000 A 
ATOM     27  C   UNL     1      -2.104   9.981  16.923  0.00  0.00    +0.000 A 
ATOM     28  F   UNL     1      -1.076   9.135  16.757  0.00  0.00    +0.000 F 
ENDBRANCH  20  26
ENDBRANCH  19  20
ENDBRANCH   1  19
TORSDOF 5
ENDMDL
MODEL 2
REMARK VINA RESULT:      -8.5      1.488      1.757
REMARK  Name = 
REMARK  5 active torsions:
REMARK  status: ('A' for Active; 'I' for Inactive)
REMARK    1  A    between atoms: C_6  and  C_7
REMARK    2  A    between atoms: C_7  and  S_8
REMARK    3  A    between atoms: S_8  and  C_9
REMARK    4  A    between atoms: C_12  and  C_13
REMARK    5  A    between atoms: N_22  and  C_23
REMARK                            x       y       z     vdW  Elec       q    Type
REMARK                         _______ _______ _______ _____ _____    ______ ____
ROOT
ATOM      1  C   UNL     1       1.416   9.511  18.559  0.00  0.00    +0.000 A 
ATOM      2  N   UNL     1       1.956   9.354  17.372  0.00  0.00    +0.000 NA
ATOM      3  N   UNL     1       2.640   8.167  17.378  0.00  0.00    +0.000 NA
ATOM      4  C   UNL     1       2.491   7.580  18.558  0.00  0.00    +0.000 A 
ATOM      5  N   UNL     1       1.798   8.462  19.378  0.00  0.00    +0.000 N 
ENDROOT
BRANCH   4   6
ATOM      6  C   UNL     1       3.046   6.188  18.788  0.00  0.00    +0.000 A 
ATOM      7  C   UNL     1       4.380   6.056  19.144  0.00  0.00    +0.000 A 
ATOM      8  N   UNL     1       4.658   4.738  19.356  0.00  0.00    +0.000 N 
ATOM      9  C   UNL     1       3.528   3.985  19.161  0.00  0.00    +0.000 A 
ATOM     10  C   UNL     1       3.351   2.603  19.337  0.00  0.00    +0.000 A 
ATOM     11  C   UNL     1       2.106   2.058  19.030  0.00  0.00    +0.000 A 
ATOM     12  C   UNL     1       1.105   2.858  18.494  0.00  0.00    +0.000 A 
ATOM     13  C   UNL     1       1.311   4.236  18.307  0.00  0.00    +0.000 A 
ATOM     14  C   UNL     1       2.518   4.850  18.711  0.00  0.00    +0.000 A 
ATOM     15  H   UNL     1       5.558   4.365  19.626  0.00  0.00    +0.000 HD
ENDBRANCH   4   6
BRANCH   5  16
ATOM     16  C   UNL     1       1.658   8.312  20.815  0.00  0.00    +0.000 C 
ATOM     17  C   UNL     1       0.358   7.828  21.437  0.00  0.00    +0.000 C 
ATOM     18  C   UNL     1       0.876   9.186  21.772  0.00  0.00    +0.000 C 
ENDBRANCH   5  16
BRANCH   1  19
ATOM     19  S   UNL     1       0.479  10.904  19.001  0.00  0.00    +0.000 S 
BRANCH  19  20
ATOM     20  C   UNL     1      -1.184  10.205  19.230  0.00  0.00    +0.000 C 
BRANCH  20  26
ATOM     21  F   UNL     1      -5.061  12.322  17.127  0.00  0.00    +0.000 F 
ATOM     22  C   UNL     1      -4.007  11.507  17.017  0.00  0.00    +0.000 A 
ATOM     23  C   UNL     1      -3.758  10.875  15.804  0.00  0.00    +0.000 A 
ATOM     24  C   UNL     1      -2.660  10.024  15.689  0.00  0.00    +0.000 A 
ATOM     25  C   UNL     1      -1.818   9.809  16.790  0.00  0.00    +0.000 A 
ATOM     26  C   UNL     1      -2.069  10.436  18.026  0.00  0.00    +0.000 A 
ATOM     27  C   UNL     1      -3.174  11.293  18.114  0.00  0.00    +0.000 A 
ATOM     28  F   UNL     1      -3.445  11.908  19.274  0.00  0.00    +0.000 F 
ENDBRANCH  20  26
ENDBRANCH  19  20
ENDBRANCH   1  19
TORSDOF 5
ENDMDL
MODEL 3
REMARK VINA RESULT:      -8.4      1.363      1.753
REMARK  Name = 
REMARK  5 active torsions:
REMARK  status: ('A' for Active; 'I' for Inactive)
REMARK    1  A    between atoms: C_6  and  C_7
REMARK    2  A    between atoms: C_7  and  S_8
REMARK    3  A    between atoms: S_8  and  C_9
REMARK    4  A    between atoms: C_12  and  C_13
REMARK    5  A    between atoms: N_22  and  C_23
REMARK                            x       y       z     vdW  Elec       q    Type
REMARK                         _______ _______ _______ _____ _____    ______ ____
ROOT
ATOM      1  C   UNL     1       1.433   9.412  18.597  0.00  0.00    +0.000 A 
ATOM      2  N   UNL     1       2.138   9.224  17.505  0.00  0.00    +0.000 NA
ATOM      3  N   UNL     1       2.806   8.036  17.638  0.00  0.00    +0.000 NA
ATOM      4  C   UNL     1       2.485   7.479  18.799  0.00  0.00    +0.000 A 
ATOM      5  N   UNL     1       1.687   8.383  19.488  0.00  0.00    +0.000 N 
ENDROOT
BRANCH   4   6
ATOM      6  C   UNL     1       2.994   6.092  19.140  0.00  0.00    +0.000 A 
ATOM      7  C   UNL     1       4.286   5.749  18.771  0.00  0.00    +0.000 A 
ATOM      8  N   UNL     1       4.559   4.491  19.218  0.00  0.00    +0.000 N 
ATOM      9  C   UNL     1       3.476   3.989  19.894  0.00  0.00    +0.000 A 
ATOM     10  C   UNL     1       3.351   2.765  20.571  0.00  0.00    +0.000 A 
ATOM     11  C   UNL     1       2.122   2.460  21.149  0.00  0.00    +0.000 A 
ATOM     12  C   UNL     1       1.040   3.315  20.988  0.00  0.00    +0.000 A 
ATOM     13  C   UNL     1       1.182   4.527  20.290  0.00  0.00    +0.000 A 
ATOM     14  C   UNL     1       2.439   4.929  19.784  0.00  0.00    +0.000 A 
ATOM     15  H   UNL     1       5.432   3.999  19.085  0.00  0.00    +0.000 HD
ENDBRANCH   4   6
BRANCH   5  16
ATOM     16  C   UNL     1       1.341   8.270  20.893  0.00  0.00    +0.000 C 
ATOM     17  C   UNL     1      -0.108   8.259  21.353  0.00  0.00    +0.000 C 
ATOM     18  C   UNL     1       0.804   9.347  21.812  0.00  0.00    +0.000 C 
ENDBRANCH   5  16
BRANCH   1  19
ATOM     19  S   UNL     1       0.452  10.819  18.866  0.00  0.00    +0.000 S 
BRANCH  19  20
ATOM     20  C   UNL     1      -1.090  10.394  18.000  0.00  0.00    +0.000 C 
BRANCH  20  26
ATOM     21  F   UNL     1      -5.868  11.446  17.965  0.00  0.00    +0.000 F 
ATOM     22  C   UNL     1      -4.666  11.622  18.522  0.00  0.00    +0.000 A 
ATOM     23  C   UNL     1      -4.535  12.485  19.604  0.00  0.00    +0.000 A 
ATOM     24  C   UNL     1      -3.281  12.670  20.184  0.00  0.00    +0.000 A 
ATOM     25  C   UNL     1      -2.164  11.991  19.676  0.00  0.00    +0.000 A 
ATOM     26  C   UNL     1      -2.284  11.123  18.572  0.00  0.00    +0.000 A 
ATOM     27  C   UNL     1      -3.556  10.948  18.013  0.00  0.00    +0.000 A 
ATOM     28  F   UNL     1      -3.711  10.130  16.962  0.00  0.00    +0.000 F 
ENDBRANCH  20  26
ENDBRANCH  19  20
ENDBRANCH   1  19
TORSDOF 5
ENDMDL
MODEL 4
REMARK VINA RESULT:      -8.2      1.710      2.648
REMARK  Name = 
REMARK  5 active torsions:
REMARK  status: ('A' for Active; 'I' for Inactive)
REMARK    1  A    between atoms: C_6  and  C_7
REMARK    2  A    between atoms: C_7  and  S_8
REMARK    3  A    between atoms: S_8  and  C_9
REMARK    4  A    between atoms: C_12  and  C_13
REMARK    5  A    between atoms: N_22  and  C_23
REMARK                            x       y       z     vdW  Elec       q    Type
REMARK                         _______ _______ _______ _____ _____    ______ ____
ROOT
ATOM      1  C   UNL     1       1.079  10.041  18.755  0.00  0.00    +0.000 A 
ATOM      2  N   UNL     1       1.614  10.062  17.556  0.00  0.00    +0.000 NA
ATOM      3  N   UNL     1       2.345   8.914  17.404  0.00  0.00    +0.000 NA
ATOM      4  C   UNL     1       2.231   8.173  18.499  0.00  0.00    +0.000 A 
ATOM      5  N   UNL     1       1.511   8.912  19.429  0.00  0.00    +0.000 N 
ENDROOT
BRANCH   4   6
ATOM      6  C   UNL     1       2.845   6.787  18.543  0.00  0.00    +0.000 A 
ATOM      7  C   UNL     1       2.466   5.925  19.561  0.00  0.00    +0.000 A 
ATOM      8  N   UNL     1       3.086   4.724  19.383  0.00  0.00    +0.000 N 
ATOM      9  C   UNL     1       3.865   4.762  18.255  0.00  0.00    +0.000 A 
ATOM     10  C   UNL     1       4.616   3.731  17.670  0.00  0.00    +0.000 A 
ATOM     11  C   UNL     1       5.368   4.030  16.536  0.00  0.00    +0.000 A 
ATOM     12  C   UNL     1       5.423   5.332  16.056  0.00  0.00    +0.000 A 
ATOM     13  C   UNL     1       4.677   6.354  16.669  0.00  0.00    +0.000 A 
ATOM     14  C   UNL     1       3.814   6.072  17.752  0.00  0.00    +0.000 A 
ATOM     15  H   UNL     1       2.984   3.917  19.985  0.00  0.00    +0.000 HD
ENDBRANCH   4   6
BRANCH   5  16
ATOM     16  C   UNL     1       1.391   8.571  20.835  0.00  0.00    +0.000 C 
ATOM     17  C   UNL     1       0.047   8.221  21.452  0.00  0.00    +0.000 C 
ATOM     18  C   UNL     1       0.802   9.407  21.951  0.00  0.00    +0.000 C 
ENDBRANCH   5  16
BRANCH   1  19
ATOM     19  S   UNL     1       0.092  11.326  19.379  0.00  0.00    +0.000 S 
BRANCH  19  20
ATOM     20  C   UNL     1      -1.550  10.549  19.475  0.00  0.00    +0.000 C 
BRANCH  20  26
ATOM     21  F   UNL     1      -5.178  12.359  16.736  0.00  0.00    +0.000 F 
ATOM     22  C   UNL     1      -4.115  11.554  16.834  0.00  0.00    +0.000 A 
ATOM     23  C   UNL     1      -3.730  10.796  15.734  0.00  0.00    +0.000 A 
ATOM     24  C   UNL     1      -2.623   9.955  15.836  0.00  0.00    +0.000 A 
ATOM     25  C   UNL     1      -1.908   9.876  17.040  0.00  0.00    +0.000 A 
ATOM     26  C   UNL     1      -2.297  10.632  18.164  0.00  0.00    +0.000 A 
ATOM     27  C   UNL     1      -3.408  11.475  18.033  0.00  0.00    +0.000 A 
ATOM     28  F   UNL     1      -3.809  12.210  19.081  0.00  0.00    +0.000 F 
ENDBRANCH  20  26
ENDBRANCH  19  20
ENDBRANCH   1  19
TORSDOF 5
ENDMDL
MODEL 5
REMARK VINA RESULT:      -8.1      2.050      2.302
REMARK  Name = 
REMARK  5 active torsions:
REMARK  status: ('A' for Active; 'I' for Inactive)
REMARK    1  A    between atoms: C_6  and  C_7
REMARK    2  A    between atoms: C_7  and  S_8
REMARK    3  A    between atoms: S_8  and  C_9
REMARK    4  A    between atoms: C_12  and  C_13
REMARK    5  A    between atoms: N_22  and  C_23
REMARK                            x       y       z     vdW  Elec       q    Type
REMARK                         _______ _______ _______ _____ _____    ______ ____
ROOT
ATOM      1  C   UNL     1       1.341   9.638  18.874  0.00  0.00    +0.000 A 
ATOM      2  N   UNL     1       1.733   9.925  17.654  0.00  0.00    +0.000 NA
ATOM      3  N   UNL     1       2.484   8.876  17.198  0.00  0.00    +0.000 NA
ATOM      4  C   UNL     1       2.526   7.929  18.127  0.00  0.00    +0.000 A 
ATOM      5  N   UNL     1       1.891   8.426  19.257  0.00  0.00    +0.000 N 
ENDROOT
BRANCH   4   6
ATOM      6  C   UNL     1       3.193   6.601  17.825  0.00  0.00    +0.000 A 
ATOM      7  C   UNL     1       4.521   6.601  17.424  0.00  0.00    +0.000 A 
ATOM      8  N   UNL     1       4.938   5.314  17.262  0.00  0.00    +0.000 N 
ATOM      9  C   UNL     1       3.916   4.449  17.561  0.00  0.00    +0.000 A 
ATOM     10  C   UNL     1       3.932   3.046  17.592  0.00  0.00    +0.000 A 
ATOM     11  C   UNL     1       2.742   2.384  17.885  0.00  0.00    +0.000 A 
ATOM     12  C   UNL     1       1.568   3.102  18.065  0.00  0.00    +0.000 A 
ATOM     13  C   UNL     1       1.571   4.507  18.012  0.00  0.00    +0.000 A 
ATOM     14  C   UNL     1       2.775   5.222  17.828  0.00  0.00    +0.000 A 
ATOM     15  H   UNL     1       5.866   5.030  16.974  0.00  0.00    +0.000 HD
ENDBRANCH   4   6
BRANCH   5  16
ATOM     16  C   UNL     1       1.947   7.810  20.570  0.00  0.00    +0.000 C 
ATOM     17  C   UNL     1       1.063   6.626  20.927  0.00  0.00    +0.000 C 
ATOM     18  C   UNL     1       0.930   7.902  21.688  0.00  0.00    +0.000 C 
ENDBRANCH   5  16
BRANCH   1  19
ATOM     19  S   UNL     1       0.384  10.713  19.845  0.00  0.00    +0.000 S 
BRANCH  19  20
ATOM     20  C   UNL     1      -0.366  11.805  18.599  0.00  0.00    +0.000 C 
BRANCH  20  26
ATOM     21  F   UNL     1      -5.239  12.006  18.995  0.00  0.00    +0.000 F 
ATOM     22  C   UNL     1      -4.163  11.466  18.413  0.00  0.00    +0.000 A 
ATOM     23  C   UNL     1      -4.332  10.473  17.455  0.00  0.00    +0.000 A 
ATOM     24  C   UNL     1      -3.211   9.908  16.850  0.00  0.00    +0.000 A 
ATOM     25  C   UNL     1      -1.926  10.340  17.208  0.00  0.00    +0.000 A 
ATOM     26  C   UNL     1      -1.744  11.338  18.187  0.00  0.00    +0.000 A 
ATOM     27  C   UNL     1      -2.886  11.895  18.774  0.00  0.00    +0.000 A 
ATOM     28  F   UNL     1      -2.754  12.847  19.709  0.00  0.00    +0.000 F 
ENDBRANCH  20  26
ENDBRANCH  19  20
ENDBRANCH   1  19
TORSDOF 5
ENDMDL
MODEL 6
REMARK VINA RESULT:      -8.0      1.994      2.615
REMARK  Name = 
REMARK  5 active torsions:
REMARK  status: ('A' for Active; 'I' for Inactive)
REMARK    1  A    between atoms: C_6  and  C_7
REMARK    2  A    between atoms: C_7  and  S_8
REMARK    3  A    between atoms: S_8  and  C_9
REMARK    4  A    between atoms: C_12  and  C_13
REMARK    5  A    between atoms: N_22  and  C_23
REMARK                            x       y       z     vdW  Elec       q    Type
REMARK                         _______ _______ _______ _____ _____    ______ ____
ROOT
ATOM      1  C   UNL     1       1.538   9.709  18.684  0.00  0.00    +0.000 A 
ATOM      2  N   UNL     1       2.093   9.613  17.498  0.00  0.00    +0.000 NA
ATOM      3  N   UNL     1       2.610   8.350  17.379  0.00  0.00    +0.000 NA
ATOM      4  C   UNL     1       2.343   7.661  18.481  0.00  0.00    +0.000 A 
ATOM      5  N   UNL     1       1.746   8.533  19.383  0.00  0.00    +0.000 N 
ENDROOT
BRANCH   4   6
ATOM      6  C   UNL     1       2.698   6.189  18.559  0.00  0.00    +0.000 A 
ATOM      7  C   UNL     1       3.669   5.694  17.701  0.00  0.00    +0.000 A 
ATOM      8  N   UNL     1       3.874   4.374  17.972  0.00  0.00    +0.000 N 
ATOM      9  C   UNL     1       3.066   3.978  19.008  0.00  0.00    +0.000 A 
ATOM     10  C   UNL     1       3.005   2.730  19.648  0.00  0.00    +0.000 A 
ATOM     11  C   UNL     1       2.061   2.558  20.658  0.00  0.00    +0.000 A 
ATOM     12  C   UNL     1       1.164   3.575  20.958  0.00  0.00    +0.000 A 
ATOM     13  C   UNL     1       1.231   4.811  20.292  0.00  0.00    +0.000 A 
ATOM     14  C   UNL     1       2.244   5.067  19.340  0.00  0.00    +0.000 A 
ATOM     15  H   UNL     1       4.530   3.773  17.492  0.00  0.00    +0.000 HD
ENDBRANCH   4   6
BRANCH   5  16
ATOM     16  C   UNL     1       1.538   8.243  20.790  0.00  0.00    +0.000 C 
ATOM     17  C   UNL     1       0.144   8.232  21.397  0.00  0.00    +0.000 C 
ATOM     18  C   UNL     1       1.158   9.207  21.895  0.00  0.00    +0.000 C 
ENDBRANCH   5  16
BRANCH   1  19
ATOM     19  S   UNL     1       0.782  11.160  19.266  0.00  0.00    +0.000 S 
BRANCH  19  20
ATOM     20  C   UNL     1      -0.978  10.851  18.928  0.00  0.00    +0.000 C 
BRANCH  20  26
ATOM     21  F   UNL     1      -5.123  13.295  19.813  0.00  0.00    +0.000 F 
ATOM     22  C   UNL     1      -3.955  12.829  20.266  0.00  0.00    +0.000 A 
ATOM     23  C   UNL     1      -3.587  13.075  21.584  0.00  0.00    +0.000 A 
ATOM     24  C   UNL     1      -2.368  12.592  22.056  0.00  0.00    +0.000 A 
ATOM     25  C   UNL     1      -1.523  11.864  21.205  0.00  0.00    +0.000 A 
ATOM     26  C   UNL     1      -1.881  11.619  19.865  0.00  0.00    +0.000 A 
ATOM     27  C   UNL     1      -3.115  12.108  19.417  0.00  0.00    +0.000 A 
ATOM     28  F   UNL     1      -3.491  11.895  18.148  0.00  0.00    +0.000 F 
ENDBRANCH  20  26
ENDBRANCH  19  20
ENDBRANCH   1  19
TORSDOF 5
ENDMDL
MODEL 7
REMARK VINA RESULT:      -7.9      4.025      7.808
REMARK  Name = 
REMARK  5 active torsions:
REMARK  status: ('A' for Active; 'I' for Inactive)
REMARK    1  A    between atoms: C_6  and  C_7
REMARK    2  A    between atoms: C_7  and  S_8
REMARK    3  A    between atoms: S_8  and  C_9
REMARK    4  A    between atoms: C_12  and  C_13
REMARK    5  A    between atoms: N_22  and  C_23
REMARK                            x       y       z     vdW  Elec       q    Type
REMARK                         _______ _______ _______ _____ _____    ______ ____
ROOT
ATOM      1  C   UNL     1       3.511   6.043  18.671  0.00  0.00    +0.000 A 
ATOM      2  N   UNL     1       3.779   6.922  17.733  0.00  0.00    +0.000 NA
ATOM      3  N   UNL     1       2.965   8.006  17.931  0.00  0.00    +0.000 NA
ATOM      4  C   UNL     1       2.221   7.805  19.011  0.00  0.00    +0.000 A 
ATOM      5  N   UNL     1       2.469   6.511  19.453  0.00  0.00    +0.000 N 
ENDROOT
BRANCH   4   6
ATOM      6  C   UNL     1       1.319   8.910  19.526  0.00  0.00    +0.000 A 
ATOM      7  C   UNL     1       0.822   9.837  18.622  0.00  0.00    +0.000 A 
ATOM      8  N   UNL     1      -0.004  10.700  19.276  0.00  0.00    +0.000 N 
ATOM      9  C   UNL     1      -0.081  10.360  20.603  0.00  0.00    +0.000 A 
ATOM     10  C   UNL     1      -0.865  10.936  21.615  0.00  0.00    +0.000 A 
ATOM     11  C   UNL     1      -0.735  10.436  22.909  0.00  0.00    +0.000 A 
ATOM     12  C   UNL     1       0.200   9.449  23.187  0.00  0.00    +0.000 A 
ATOM     13  C   UNL     1       0.989   8.898  22.161  0.00  0.00    +0.000 A 
ATOM     14  C   UNL     1       0.811   9.297  20.817  0.00  0.00    +0.000 A 
ATOM     15  H   UNL     1      -0.498  11.474  18.852  0.00  0.00    +0.000 HD
ENDBRANCH   4   6
BRANCH   5  16
ATOM     16  C   UNL     1       1.671   5.814  20.445  0.00  0.00    +0.000 C 
ATOM     17  C   UNL     1       2.237   4.649  21.240  0.00  0.00    +0.000 C 
ATOM     18  C   UNL     1       1.061   4.432  20.349  0.00  0.00    +0.000 C 
ENDBRANCH   5  16
BRANCH   1  19
ATOM     19  S   UNL     1       4.297   4.498  18.780  0.00  0.00    +0.000 S 
BRANCH  19  20
ATOM     20  C   UNL     1       5.959   4.856  18.134  0.00  0.00    +0.000 C 
BRANCH  20  26
ATOM     21  F   UNL     1       8.016   5.680  13.772  0.00  0.00    +0.000 F 
ATOM     22  C   UNL     1       7.115   5.013  14.501  0.00  0.00    +0.000 A 
ATOM     23  C   UNL     1       6.285   4.088  13.878  0.00  0.00    +0.000 A 
ATOM     24  C   UNL     1       5.344   3.394  14.637  0.00  0.00    +0.000 A 
ATOM     25  C   UNL     1       5.239   3.630  16.015  0.00  0.00    +0.000 A 
ATOM     26  C   UNL     1       6.068   4.574  16.653  0.00  0.00    +0.000 A 
ATOM     27  C   UNL     1       7.010   5.253  15.870  0.00  0.00    +0.000 A 
ATOM     28  F   UNL     1       7.817   6.159  16.441  0.00  0.00    +0.000 F 
ENDBRANCH  20  26
ENDBRANCH  19  20
ENDBRANCH   1  19
TORSDOF 5
ENDMDL
MODEL 8
REMARK VINA RESULT:      -7.9      1.139      1.280
REMARK  Name = 
REMARK  5 active torsions:
REMARK  status: ('A' for Active; 'I' for Inactive)
REMARK    1  A    between atoms: C_6  and  C_7
REMARK    2  A    between atoms: C_7  and  S_8
REMARK    3  A    between atoms: S_8  and  C_9
REMARK    4  A    between atoms: C_12  and  C_13
REMARK    5  A    between atoms: N_22  and  C_23
REMARK                            x       y       z     vdW  Elec       q    Type
REMARK                         _______ _______ _______ _____ _____    ______ ____
ROOT
ATOM      1  C   UNL     1       0.658  10.147  19.379  0.00  0.00    +0.000 A 
ATOM      2  N   UNL     1       1.176  10.270  18.179  0.00  0.00    +0.000 NA
ATOM      3  N   UNL     1       1.949   9.164  17.941  0.00  0.00    +0.000 NA
ATOM      4  C   UNL     1       1.878   8.347  18.984  0.00  0.00    +0.000 A 
ATOM      5  N   UNL     1       1.142   8.992  19.969  0.00  0.00    +0.000 N 
ENDROOT
BRANCH   4   6
ATOM      6  C   UNL     1       2.545   6.986  18.927  0.00  0.00    +0.000 A 
ATOM      7  C   UNL     1       3.595   6.798  18.041  0.00  0.00    +0.000 A 
ATOM      8  N   UNL     1       4.084   5.535  18.189  0.00  0.00    +0.000 N 
ATOM      9  C   UNL     1       3.388   4.876  19.170  0.00  0.00    +0.000 A 
ATOM     10  C   UNL     1       3.604   3.589  19.688  0.00  0.00    +0.000 A 
ATOM     11  C   UNL     1       2.726   3.120  20.662  0.00  0.00    +0.000 A 
ATOM     12  C   UNL     1       1.631   3.884  21.044  0.00  0.00    +0.000 A 
ATOM     13  C   UNL     1       1.424   5.163  20.499  0.00  0.00    +0.000 A 
ATOM     14  C   UNL     1       2.351   5.723  19.592  0.00  0.00    +0.000 A 
ATOM     15  H   UNL     1       4.853   5.139  17.664  0.00  0.00    +0.000 HD
ENDBRANCH   4   6
BRANCH   5  16
ATOM     16  C   UNL     1       1.053   8.552  21.350  0.00  0.00    +0.000 C 
ATOM     17  C   UNL     1      -0.289   8.268  22.005  0.00  0.00    +0.000 C 
ATOM     18  C   UNL     1       0.587   9.343  22.553  0.00  0.00    +0.000 C 
ENDBRANCH   5  16
BRANCH   1  19
ATOM     19  S   UNL     1      -0.370  11.346  20.099  0.00  0.00    +0.000 S 
BRANCH  19  20
ATOM     20  C   UNL     1      -0.998  12.248  18.650  0.00  0.00    +0.000 C 
BRANCH  20  26
ATOM     21  F   UNL     1      -4.527  10.580  15.699  0.00  0.00    +0.000 F 
ATOM     22  C   UNL     1      -4.180  11.106  16.878  0.00  0.00    +0.000 A 
ATOM     23  C   UNL     1      -5.166  11.377  17.821  0.00  0.00    +0.000 A 
ATOM     24  C   UNL     1      -4.805  11.927  19.049  0.00  0.00    +0.000 A 
ATOM     25  C   UNL     1      -3.458  12.203  19.328  0.00  0.00    +0.000 A 
ATOM     26  C   UNL     1      -2.453  11.942  18.375  0.00  0.00    +0.000 A 
ATOM     27  C   UNL     1      -2.841  11.382  17.151  0.00  0.00    +0.000 A 
ATOM     28  F   UNL     1      -1.913  11.119  16.219  0.00  0.00    +0.000 F 
ENDBRANCH  20  26
ENDBRANCH  19  20
ENDBRANCH   1  19
TORSDOF 5
ENDMDL
MODEL 9
REMARK VINA RESULT:      -7.9      3.342      7.823
REMARK  Name = 
REMARK  5 active torsions:
REMARK  status: ('A' for Active; 'I' for Inactive)
REMARK    1  A    between atoms: C_6  and  C_7
REMARK    2  A    between atoms: C_7  and  S_8
REMARK    3  A    between atoms: S_8  and  C_9
REMARK    4  A    between atoms: C_12  and  C_13
REMARK    5  A    between atoms: N_22  and  C_23
REMARK                            x       y       z     vdW  Elec       q    Type
REMARK                         _______ _______ _______ _____ _____    ______ ____
ROOT
ATOM      1  C   UNL     1       2.920   5.776  18.516  0.00  0.00    +0.000 A 
ATOM      2  N   UNL     1       3.098   6.844  17.773  0.00  0.00    +0.000 NA
ATOM      3  N   UNL     1       2.475   7.894  18.394  0.00  0.00    +0.000 NA
ATOM      4  C   UNL     1       1.942   7.476  19.535  0.00  0.00    +0.000 A 
ATOM      5  N   UNL     1       2.117   6.099  19.597  0.00  0.00    +0.000 N 
ENDROOT
BRANCH   4   6
ATOM      6  C   UNL     1       1.298   8.471  20.480  0.00  0.00    +0.000 A 
ATOM      7  C   UNL     1       1.582   8.381  21.834  0.00  0.00    +0.000 A 
ATOM      8  N   UNL     1       0.952   9.395  22.492  0.00  0.00    +0.000 N 
ATOM      9  C   UNL     1       0.260  10.174  21.598  0.00  0.00    +0.000 A 
ATOM     10  C   UNL     1      -0.466  11.351  21.836  0.00  0.00    +0.000 A 
ATOM     11  C   UNL     1      -1.124  11.942  20.760  0.00  0.00    +0.000 A 
ATOM     12  C   UNL     1      -1.115  11.333  19.513  0.00  0.00    +0.000 A 
ATOM     13  C   UNL     1      -0.396  10.143  19.301  0.00  0.00    +0.000 A 
ATOM     14  C   UNL     1       0.377   9.570  20.336  0.00  0.00    +0.000 A 
ATOM     15  H   UNL     1       0.992   9.561  23.489  0.00  0.00    +0.000 HD
ENDBRANCH   4   6
BRANCH   5  16
ATOM     16  C   UNL     1       1.455   5.228  20.551  0.00  0.00    +0.000 C 
ATOM     17  C   UNL     1       2.236   4.211  21.367  0.00  0.00    +0.000 C 
ATOM     18  C   UNL     1       1.179   3.745  20.424  0.00  0.00    +0.000 C 
ENDBRANCH   5  16
BRANCH   1  19
ATOM     19  S   UNL     1       3.523   4.206  18.084  0.00  0.00    +0.000 S 
BRANCH  19  20
ATOM     20  C   UNL     1       4.845   4.603  16.900  0.00  0.00    +0.000 C 
BRANCH  20  26
ATOM     21  F   UNL     1       7.804   8.494  17.105  0.00  0.00    +0.000 F 
ATOM     22  C   UNL     1       7.432   7.316  17.615  0.00  0.00    +0.000 A 
ATOM     23  C   UNL     1       8.108   6.807  18.719  0.00  0.00    +0.000 A 
ATOM     24  C   UNL     1       7.722   5.578  19.250  0.00  0.00    +0.000 A 
ATOM     25  C   UNL     1       6.662   4.863  18.673  0.00  0.00    +0.000 A 
ATOM     26  C   UNL     1       5.979   5.365  17.547  0.00  0.00    +0.000 A 
ATOM     27  C   UNL     1       6.380   6.606  17.037  0.00  0.00    +0.000 A 
ATOM     28  F   UNL     1       5.753   7.117  15.967  0.00  0.00    +0.000 F 
ENDBRANCH  20  26
ENDBRANCH  19  20
ENDBRANCH   1  19
TORSDOF 5
ENDMDL
