MODEL 1
REMARK VINA RESULT:      -7.5      0.000      0.000
REMARK  Name = 
REMARK  7 active torsions:
REMARK  status: ('A' for Active; 'I' for Inactive)
REMARK    1  A    between atoms: C_1  and  N_2
REMARK    2  A    between atoms: C_6  and  C_7
REMARK    3  A    between atoms: C_7  and  C_8
REMARK    4  A    between atoms: C_12  and  N_13
REMARK    5  A    between atoms: C_18  and  C_19
REMARK    6  A    between atoms: C_19  and  N_20
REMARK    7  A    between atoms: C_22  and  C_23
REMARK                            x       y       z     vdW  Elec       q    Type
REMARK                         _______ _______ _______ _____ _____    ______ ____
ROOT
ATOM      1  N   UNL     1      -0.245  11.392  18.386  0.00  0.00    +0.000 N 
ATOM      2  C   UNL     1       0.513  10.602  19.387  0.00  0.00    +0.000 C 
ATOM      3  C   UNL     1       0.081  11.242  20.675  0.00  0.00    +0.000 A 
ATOM      4  C   UNL     1      -0.240  12.574  20.397  0.00  0.00    +0.000 A 
ATOM      5  C   UNL     1      -0.855  13.416  21.300  0.00  0.00    +0.000 A 
ATOM      6  C   UNL     1      -1.177  12.895  22.561  0.00  0.00    +0.000 A 
ATOM      7  C   UNL     1      -0.870  11.541  22.849  0.00  0.00    +0.000 A 
ATOM      8  C   UNL     1      -0.236  10.691  21.913  0.00  0.00    +0.000 A 
ATOM      9  C   UNL     1      -0.275  12.711  18.914  0.00  0.00    +0.000 C 
ATOM     10  O   UNL     1      -0.498  13.763  18.328  0.00  0.00    +0.000 OA
ENDROOT
BRANCH   1  15
ATOM     11  C   UNL     1      -3.826  11.466  17.625  0.00  0.00    +0.000 A 
ATOM     12  C   UNL     1      -3.747  10.678  16.469  0.00  0.00    +0.000 A 
ATOM     13  C   UNL     1      -2.696   9.783  16.300  0.00  0.00    +0.000 A 
ATOM     14  C   UNL     1      -1.661   9.753  17.219  0.00  0.00    +0.000 A 
ATOM     15  C   UNL     1      -1.560  10.783  18.167  0.00  0.00    +0.000 A 
ATOM     16  C   UNL     1      -2.712  11.526  18.474  0.00  0.00    +0.000 A 
BRANCH  11  17
ATOM     17  C   UNL     1      -5.103  12.214  17.930  0.00  0.00    +0.000 C 
BRANCH  17  23
ATOM     18  C   UNL     1      -5.301  13.261  20.896  0.00  0.00    +0.000 C 
ATOM     19  N   UNL     1      -6.018  12.153  20.314  0.00  0.00    +0.000 N 
ATOM     20  C   UNL     1      -6.961  11.417  20.980  0.00  0.00    +0.000 A 
ATOM     21  N   UNL     1      -7.485  10.493  20.210  0.00  0.00    +0.000 NA
ATOM     22  C   UNL     1      -6.857  10.633  19.003  0.00  0.00    +0.000 A 
ATOM     23  C   UNL     1      -5.932  11.657  19.032  0.00  0.00    +0.000 A 
ENDBRANCH  17  23
ENDBRANCH  11  17
ENDBRANCH   1  15
BRANCH   8  24
ATOM     24  C   UNL     1      -0.058   9.231  22.248  0.00  0.00    +0.000 C 
ATOM     25  F   UNL     1       1.211   8.771  22.080  0.00  0.00    +0.000 F 
ATOM     26  F   UNL     1      -0.376   8.961  23.545  0.00  0.00    +0.000 F 
ATOM     27  F   UNL     1      -0.852   8.419  21.495  0.00  0.00    +0.000 F 
ENDBRANCH   8  24
BRANCH   6  28
ATOM     28  C   UNL     1      -1.950  13.725  23.555  0.00  0.00    +0.000 C 
BRANCH  28  29
ATOM     29  N   UNL     1      -1.071  14.620  24.302  0.00  0.00    +0.000 NA
ATOM     30  H   UNL     1      -1.179  14.441  25.299  0.00  0.00    +0.000 HD
ATOM     31  H   UNL     1      -1.378  15.581  24.156  0.00  0.00    +0.000 HD
ENDBRANCH  28  29
ENDBRANCH   6  28
TORSDOF 6
ENDMDL
MODEL 2
REMARK VINA RESULT:      -7.4      7.089      9.700
REMARK  Name = 
REMARK  7 active torsions:
REMARK  status: ('A' for Active; 'I' for Inactive)
REMARK    1  A    between atoms: C_1  and  N_2
REMARK    2  A    between atoms: C_6  and  C_7
REMARK    3  A    between atoms: C_7  and  C_8
REMARK    4  A    between atoms: C_12  and  N_13
REMARK    5  A    between atoms: C_18  and  C_19
REMARK    6  A    between atoms: C_19  and  N_20
REMARK    7  A    between atoms: C_22  and  C_23
REMARK                            x       y       z     vdW  Elec       q    Type
REMARK                         _______ _______ _______ _____ _____    ______ ____
ROOT
ATOM      1  N   UNL     1       4.212   4.359  19.022  0.00  0.00    +0.000 N 
ATOM      2  C   UNL     1       5.545   4.979  19.218  0.00  0.00    +0.000 C 
ATOM      3  C   UNL     1       6.107   4.946  17.825  0.00  0.00    +0.000 A 
ATOM      4  C   UNL     1       5.529   3.859  17.164  0.00  0.00    +0.000 A 
ATOM      5  C   UNL     1       5.664   3.629  15.810  0.00  0.00    +0.000 A 
ATOM      6  C   UNL     1       6.419   4.546  15.066  0.00  0.00    +0.000 A 
ATOM      7  C   UNL     1       6.997   5.661  15.724  0.00  0.00    +0.000 A 
ATOM      8  C   UNL     1       6.852   5.881  17.114  0.00  0.00    +0.000 A 
ATOM      9  C   UNL     1       4.417   3.369  18.024  0.00  0.00    +0.000 C 
ATOM     10  O   UNL     1       3.716   2.400  17.753  0.00  0.00    +0.000 OA
ENDROOT
BRANCH   1  15
ATOM     11  C   UNL     1       2.278   7.406  19.639  0.00  0.00    +0.000 A 
ATOM     12  C   UNL     1       2.775   8.121  18.540  0.00  0.00    +0.000 A 
ATOM     13  C   UNL     1       3.271   7.446  17.430  0.00  0.00    +0.000 A 
ATOM     14  C   UNL     1       3.385   6.067  17.456  0.00  0.00    +0.000 A 
ATOM     15  C   UNL     1       3.231   5.392  18.677  0.00  0.00    +0.000 A 
ATOM     16  C   UNL     1       2.522   6.027  19.709  0.00  0.00    +0.000 A 
BRANCH  11  17
ATOM     17  C   UNL     1       1.488   8.132  20.703  0.00  0.00    +0.000 C 
BRANCH  17  23
ATOM     18  C   UNL     1      -0.214  10.120  22.459  0.00  0.00    +0.000 C 
ATOM     19  N   UNL     1      -0.033  10.159  21.029  0.00  0.00    +0.000 N 
ATOM     20  C   UNL     1      -0.545  11.137  20.219  0.00  0.00    +0.000 A 
ATOM     21  N   UNL     1      -0.203  10.954  18.966  0.00  0.00    +0.000 NA
ATOM     22  C   UNL     1       0.558   9.817  18.963  0.00  0.00    +0.000 A 
ATOM     23  C   UNL     1       0.682   9.291  20.233  0.00  0.00    +0.000 A 
ENDBRANCH  17  23
ENDBRANCH  11  17
ENDBRANCH   1  15
BRANCH   8  24
ATOM     24  C   UNL     1       7.389   7.155  17.717  0.00  0.00    +0.000 C 
ATOM     25  F   UNL     1       8.241   7.840  16.908  0.00  0.00    +0.000 F 
ATOM     26  F   UNL     1       6.394   8.033  18.028  0.00  0.00    +0.000 F 
ATOM     27  F   UNL     1       8.069   6.940  18.878  0.00  0.00    +0.000 F 
ENDBRANCH   8  24
BRANCH   6  28
ATOM     28  C   UNL     1       6.514   4.418  13.566  0.00  0.00    +0.000 C 
BRANCH  28  29
ATOM     29  N   UNL     1       6.167   3.071  13.122  0.00  0.00    +0.000 NA
ATOM     30  H   UNL     1       6.956   2.673  12.615  0.00  0.00    +0.000 HD
ATOM     31  H   UNL     1       5.405   3.133  12.448  0.00  0.00    +0.000 HD
ENDBRANCH  28  29
ENDBRANCH   6  28
TORSDOF 6
ENDMDL
MODEL 3
REMARK VINA RESULT:      -7.3      6.961      9.533
REMARK  Name = 
REMARK  7 active torsions:
REMARK  status: ('A' for Active; 'I' for Inactive)
REMARK    1  A    between atoms: C_1  and  N_2
REMARK    2  A    between atoms: C_6  and  C_7
REMARK    3  A    between atoms: C_7  and  C_8
REMARK    4  A    between atoms: C_12  and  N_13
REMARK    5  A    between atoms: C_18  and  C_19
REMARK    6  A    between atoms: C_19  and  N_20
REMARK    7  A    between atoms: C_22  and  C_23
REMARK                            x       y       z     vdW  Elec       q    Type
REMARK                         _______ _______ _______ _____ _____    ______ ____
ROOT
ATOM      1  N   UNL     1       3.002   3.705  19.038  0.00  0.00    +0.000 N 
ATOM      2  C   UNL     1       4.396   3.871  19.519  0.00  0.00    +0.000 C 
ATOM      3  C   UNL     1       5.159   3.949  18.227  0.00  0.00    +0.000 A 
ATOM      4  C   UNL     1       4.445   3.221  17.272  0.00  0.00    +0.000 A 
ATOM      5  C   UNL     1       4.745   3.230  15.925  0.00  0.00    +0.000 A 
ATOM      6  C   UNL     1       5.822   4.021  15.503  0.00  0.00    +0.000 A 
ATOM      7  C   UNL     1       6.544   4.775  16.462  0.00  0.00    +0.000 A 
ATOM      8  C   UNL     1       6.225   4.755  17.840  0.00  0.00    +0.000 A 
ATOM      9  C   UNL     1       3.116   2.910  17.866  0.00  0.00    +0.000 C 
ATOM     10  O   UNL     1       2.249   2.253  17.302  0.00  0.00    +0.000 OA
ENDROOT
BRANCH   1  15
ATOM     11  C   UNL     1       2.132   7.123  20.022  0.00  0.00    +0.000 A 
ATOM     12  C   UNL     1       2.808   7.756  18.970  0.00  0.00    +0.000 A 
ATOM     13  C   UNL     1       3.046   7.076  17.781  0.00  0.00    +0.000 A 
ATOM     14  C   UNL     1       2.723   5.735  17.676  0.00  0.00    +0.000 A 
ATOM     15  C   UNL     1       2.387   5.021  18.837  0.00  0.00    +0.000 A 
ATOM     16  C   UNL     1       1.933   5.737  19.956  0.00  0.00    +0.000 A 
BRANCH  11  17
ATOM     17  C   UNL     1       1.629   7.947  21.186  0.00  0.00    +0.000 C 
BRANCH  17  23
ATOM     18  C   UNL     1      -0.175   9.632  23.146  0.00  0.00    +0.000 C 
ATOM     19  N   UNL     1      -0.035   9.810  21.721  0.00  0.00    +0.000 N 
ATOM     20  C   UNL     1      -0.643  10.810  21.012  0.00  0.00    +0.000 A 
ATOM     21  N   UNL     1      -0.321  10.766  19.741  0.00  0.00    +0.000 NA
ATOM     22  C   UNL     1       0.525   9.697  19.622  0.00  0.00    +0.000 A 
ATOM     23  C   UNL     1       0.723   9.074  20.837  0.00  0.00    +0.000 A 
ENDBRANCH  17  23
ENDBRANCH  11  17
ENDBRANCH   1  15
BRANCH   8  24
ATOM     24  C   UNL     1       6.957   5.681  18.778  0.00  0.00    +0.000 C 
ATOM     25  F   UNL     1       8.242   5.317  19.034  0.00  0.00    +0.000 F 
ATOM     26  F   UNL     1       7.027   6.952  18.291  0.00  0.00    +0.000 F 
ATOM     27  F   UNL     1       6.350   5.784  19.994  0.00  0.00    +0.000 F 
ENDBRANCH   8  24
BRANCH   6  28
ATOM     28  C   UNL     1       6.135   4.164  14.034  0.00  0.00    +0.000 C 
BRANCH  28  29
ATOM     29  N   UNL     1       7.200   5.136  13.807  0.00  0.00    +0.000 NA
ATOM     30  H   UNL     1       7.512   5.506  14.702  0.00  0.00    +0.000 HD
ATOM     31  H   UNL     1       6.816   5.930  13.295  0.00  0.00    +0.000 HD
ENDBRANCH  28  29
ENDBRANCH   6  28
TORSDOF 6
ENDMDL
MODEL 4
REMARK VINA RESULT:      -7.3      0.901      1.125
REMARK  Name = 
REMARK  7 active torsions:
REMARK  status: ('A' for Active; 'I' for Inactive)
REMARK    1  A    between atoms: C_1  and  N_2
REMARK    2  A    between atoms: C_6  and  C_7
REMARK    3  A    between atoms: C_7  and  C_8
REMARK    4  A    between atoms: C_12  and  N_13
REMARK    5  A    between atoms: C_18  and  C_19
REMARK    6  A    between atoms: C_19  and  N_20
REMARK    7  A    between atoms: C_22  and  C_23
REMARK                            x       y       z     vdW  Elec       q    Type
REMARK                         _______ _______ _______ _____ _____    ______ ____
ROOT
ATOM      1  N   UNL     1      -0.418  11.843  18.837  0.00  0.00    +0.000 N 
ATOM      2  C   UNL     1       0.416  11.133  19.838  0.00  0.00    +0.000 C 
ATOM      3  C   UNL     1      -0.235  11.546  21.127  0.00  0.00    +0.000 A 
ATOM      4  C   UNL     1      -0.811  12.803  20.925  0.00  0.00    +0.000 A 
ATOM      5  C   UNL     1      -1.655  13.411  21.832  0.00  0.00    +0.000 A 
ATOM      6  C   UNL     1      -1.949  12.718  23.013  0.00  0.00    +0.000 A 
ATOM      7  C   UNL     1      -1.383  11.435  23.222  0.00  0.00    +0.000 A 
ATOM      8  C   UNL     1      -0.517  10.826  22.284  0.00  0.00    +0.000 A 
ATOM      9  C   UNL     1      -0.766  13.071  19.461  0.00  0.00    +0.000 C 
ATOM     10  O   UNL     1      -1.164  14.106  18.940  0.00  0.00    +0.000 OA
ENDROOT
BRANCH   1  15
ATOM     11  C   UNL     1      -3.795  11.250  17.553  0.00  0.00    +0.000 A 
ATOM     12  C   UNL     1      -3.401  10.472  16.455  0.00  0.00    +0.000 A 
ATOM     13  C   UNL     1      -2.194   9.782  16.482  0.00  0.00    +0.000 A 
ATOM     14  C   UNL     1      -1.324   9.956  17.543  0.00  0.00    +0.000 A 
ATOM     15  C   UNL     1      -1.554  11.001  18.451  0.00  0.00    +0.000 A 
ATOM     16  C   UNL     1      -2.853  11.525  18.554  0.00  0.00    +0.000 A 
BRANCH  11  17
ATOM     17  C   UNL     1      -5.216  11.757  17.633  0.00  0.00    +0.000 C 
BRANCH  17  23
ATOM     18  C   UNL     1      -5.572  13.656  20.124  0.00  0.00    +0.000 C 
ATOM     19  N   UNL     1      -6.098  12.323  19.964  0.00  0.00    +0.000 N 
ATOM     20  C   UNL     1      -6.905  11.703  20.880  0.00  0.00    +0.000 A 
ATOM     21  N   UNL     1      -7.272  10.511  20.473  0.00  0.00    +0.000 NA
ATOM     22  C   UNL     1      -6.681  10.352  19.249  0.00  0.00    +0.000 A 
ATOM     23  C   UNL     1      -5.938  11.461  18.900  0.00  0.00    +0.000 A 
ENDBRANCH  17  23
ENDBRANCH  11  17
ENDBRANCH   1  15
BRANCH   8  24
ATOM     24  C   UNL     1      -0.058   9.409  22.519  0.00  0.00    +0.000 C 
ATOM     25  F   UNL     1      -0.114   9.012  23.819  0.00  0.00    +0.000 F 
ATOM     26  F   UNL     1      -0.809   8.506  21.828  0.00  0.00    +0.000 F 
ATOM     27  F   UNL     1       1.229   9.201  22.121  0.00  0.00    +0.000 F 
ENDBRANCH   8  24
BRANCH   6  28
ATOM     28  C   UNL     1      -2.951  13.273  23.995  0.00  0.00    +0.000 C 
BRANCH  28  29
ATOM     29  N   UNL     1      -4.305  13.246  23.449  0.00  0.00    +0.000 NA
ATOM     30  H   UNL     1      -4.761  12.379  23.729  0.00  0.00    +0.000 HD
ATOM     31  H   UNL     1      -4.249  13.216  22.432  0.00  0.00    +0.000 HD
ENDBRANCH  28  29
ENDBRANCH   6  28
TORSDOF 6
ENDMDL
MODEL 5
REMARK VINA RESULT:      -7.2      0.999      1.448
REMARK  Name = 
REMARK  7 active torsions:
REMARK  status: ('A' for Active; 'I' for Inactive)
REMARK    1  A    between atoms: C_1  and  N_2
REMARK    2  A    between atoms: C_6  and  C_7
REMARK    3  A    between atoms: C_7  and  C_8
REMARK    4  A    between atoms: C_12  and  N_13
REMARK    5  A    between atoms: C_18  and  C_19
REMARK    6  A    between atoms: C_19  and  N_20
REMARK    7  A    between atoms: C_22  and  C_23
REMARK                            x       y       z     vdW  Elec       q    Type
REMARK                         _______ _______ _______ _____ _____    ______ ____
ROOT
ATOM      1  N   UNL     1      -0.408  11.758  18.781  0.00  0.00    +0.000 N 
ATOM      2  C   UNL     1       0.400  11.025  19.786  0.00  0.00    +0.000 C 
ATOM      3  C   UNL     1      -0.262  11.435  21.071  0.00  0.00    +0.000 A 
ATOM      4  C   UNL     1      -0.815  12.703  20.873  0.00  0.00    +0.000 A 
ATOM      5  C   UNL     1      -1.662  13.315  21.774  0.00  0.00    +0.000 A 
ATOM      6  C   UNL     1      -1.984  12.614  22.944  0.00  0.00    +0.000 A 
ATOM      7  C   UNL     1      -1.442  11.321  23.147  0.00  0.00    +0.000 A 
ATOM      8  C   UNL     1      -0.572  10.707  22.216  0.00  0.00    +0.000 A 
ATOM      9  C   UNL     1      -0.745  12.985  19.413  0.00  0.00    +0.000 C 
ATOM     10  O   UNL     1      -1.120  14.032  18.898  0.00  0.00    +0.000 OA
ENDROOT
BRANCH   1  15
ATOM     11  C   UNL     1      -3.847  11.234  17.639  0.00  0.00    +0.000 A 
ATOM     12  C   UNL     1      -3.508  10.592  16.440  0.00  0.00    +0.000 A 
ATOM     13  C   UNL     1      -2.291   9.931  16.318  0.00  0.00    +0.000 A 
ATOM     14  C   UNL     1      -1.360  10.006  17.339  0.00  0.00    +0.000 A 
ATOM     15  C   UNL     1      -1.552  10.938  18.371  0.00  0.00    +0.000 A 
ATOM     16  C   UNL     1      -2.850  11.418  18.607  0.00  0.00    +0.000 A 
BRANCH  11  17
ATOM     17  C   UNL     1      -5.269  11.697  17.859  0.00  0.00    +0.000 C 
BRANCH  17  23
ATOM     18  C   UNL     1      -7.165  10.247  19.918  0.00  0.00    +0.000 C 
ATOM     19  N   UNL     1      -6.416  11.462  20.130  0.00  0.00    +0.000 N 
ATOM     20  C   UNL     1      -6.377  12.139  21.318  0.00  0.00    +0.000 A 
ATOM     21  N   UNL     1      -5.593  13.189  21.251  0.00  0.00    +0.000 NA
ATOM     22  C   UNL     1      -5.107  13.192  19.973  0.00  0.00    +0.000 A 
ATOM     23  C   UNL     1      -5.601  12.131  19.243  0.00  0.00    +0.000 A 
ENDBRANCH  17  23
ENDBRANCH  11  17
ENDBRANCH   1  15
BRANCH   8  24
ATOM     24  C   UNL     1      -0.139   9.281  22.443  0.00  0.00    +0.000 C 
ATOM     25  F   UNL     1       1.187   9.060  22.235  0.00  0.00    +0.000 F 
ATOM     26  F   UNL     1      -0.382   8.869  23.719  0.00  0.00    +0.000 F 
ATOM     27  F   UNL     1      -0.794   8.398  21.637  0.00  0.00    +0.000 F 
ENDBRANCH   8  24
BRANCH   6  28
ATOM     28  C   UNL     1      -2.991  13.176  23.917  0.00  0.00    +0.000 C 
BRANCH  28  29
ATOM     29  N   UNL     1      -4.111  12.260  24.116  0.00  0.00    +0.000 NA
ATOM     30  H   UNL     1      -4.719  12.628  24.845  0.00  0.00    +0.000 HD
ATOM     31  H   UNL     1      -3.752  11.375  24.473  0.00  0.00    +0.000 HD
ENDBRANCH  28  29
ENDBRANCH   6  28
TORSDOF 6
ENDMDL
MODEL 6
REMARK VINA RESULT:      -7.2      6.828      9.418
REMARK  Name = 
REMARK  7 active torsions:
REMARK  status: ('A' for Active; 'I' for Inactive)
REMARK    1  A    between atoms: C_1  and  N_2
REMARK    2  A    between atoms: C_6  and  C_7
REMARK    3  A    between atoms: C_7  and  C_8
REMARK    4  A    between atoms: C_12  and  N_13
REMARK    5  A    between atoms: C_18  and  C_19
REMARK    6  A    between atoms: C_19  and  N_20
REMARK    7  A    between atoms: C_22  and  C_23
REMARK                            x       y       z     vdW  Elec       q    Type
REMARK                         _______ _______ _______ _____ _____    ______ ____
ROOT
ATOM      1  N   UNL     1       3.848   4.870  19.230  0.00  0.00    +0.000 N 
ATOM      2  C   UNL     1       5.227   5.399  19.371  0.00  0.00    +0.000 C 
ATOM      3  C   UNL     1       5.809   5.107  18.017  0.00  0.00    +0.000 A 
ATOM      4  C   UNL     1       5.149   3.985  17.509  0.00  0.00    +0.000 A 
ATOM      5  C   UNL     1       5.288   3.541  16.210  0.00  0.00    +0.000 A 
ATOM      6  C   UNL     1       6.133   4.268  15.361  0.00  0.00    +0.000 A 
ATOM      7  C   UNL     1       6.795   5.417  15.862  0.00  0.00    +0.000 A 
ATOM      8  C   UNL     1       6.645   5.858  17.197  0.00  0.00    +0.000 A 
ATOM      9  C   UNL     1       3.983   3.726  18.398  0.00  0.00    +0.000 C 
ATOM     10  O   UNL     1       3.206   2.790  18.254  0.00  0.00    +0.000 OA
ENDROOT
BRANCH   1  15
ATOM     11  C   UNL     1       2.036   8.047  19.400  0.00  0.00    +0.000 A 
ATOM     12  C   UNL     1       2.683   8.644  18.309  0.00  0.00    +0.000 A 
ATOM     13  C   UNL     1       3.251   7.857  17.314  0.00  0.00    +0.000 A 
ATOM     14  C   UNL     1       3.284   6.481  17.457  0.00  0.00    +0.000 A 
ATOM     15  C   UNL     1       2.967   5.917  18.703  0.00  0.00    +0.000 A 
ATOM     16  C   UNL     1       2.194   6.669  19.601  0.00  0.00    +0.000 A 
BRANCH  11  17
ATOM     17  C   UNL     1       1.183   8.895  20.314  0.00  0.00    +0.000 C 
BRANCH  17  23
ATOM     18  C   UNL     1       1.433  12.020  20.644  0.00  0.00    +0.000 C 
ATOM     19  N   UNL     1       0.514  11.306  19.793  0.00  0.00    +0.000 N 
ATOM     20  C   UNL     1      -0.364  11.912  18.936  0.00  0.00    +0.000 A 
ATOM     21  N   UNL     1      -1.058  11.033  18.253  0.00  0.00    +0.000 NA
ATOM     22  C   UNL     1      -0.615   9.813  18.684  0.00  0.00    +0.000 A 
ATOM     23  C   UNL     1       0.364   9.944  19.648  0.00  0.00    +0.000 A 
ENDBRANCH  17  23
ENDBRANCH  11  17
ENDBRANCH   1  15
BRANCH   8  24
ATOM     24  C   UNL     1       7.280   7.159  17.618  0.00  0.00    +0.000 C 
ATOM     25  F   UNL     1       8.002   7.082  18.768  0.00  0.00    +0.000 F 
ATOM     26  F   UNL     1       8.142   7.636  16.677  0.00  0.00    +0.000 F 
ATOM     27  F   UNL     1       6.366   8.150  17.819  0.00  0.00    +0.000 F 
ENDBRANCH   8  24
BRANCH   6  28
ATOM     28  C   UNL     1       6.244   3.906  13.900  0.00  0.00    +0.000 C 
BRANCH  28  29
ATOM     29  N   UNL     1       7.222   4.744  13.214  0.00  0.00    +0.000 NA
ATOM     30  H   UNL     1       7.035   5.722  13.430  0.00  0.00    +0.000 HD
ATOM     31  H   UNL     1       7.087   4.650  12.208  0.00  0.00    +0.000 HD
ENDBRANCH  28  29
ENDBRANCH   6  28
TORSDOF 6
ENDMDL
MODEL 7
REMARK VINA RESULT:      -7.2      2.187      2.916
REMARK  Name = 
REMARK  7 active torsions:
REMARK  status: ('A' for Active; 'I' for Inactive)
REMARK    1  A    between atoms: C_1  and  N_2
REMARK    2  A    between atoms: C_6  and  C_7
REMARK    3  A    between atoms: C_7  and  C_8
REMARK    4  A    between atoms: C_12  and  N_13
REMARK    5  A    between atoms: C_18  and  C_19
REMARK    6  A    between atoms: C_19  and  N_20
REMARK    7  A    between atoms: C_22  and  C_23
REMARK                            x       y       z     vdW  Elec       q    Type
REMARK                         _______ _______ _______ _____ _____    ______ ____
ROOT
ATOM      1  N   UNL     1      -1.682  12.663  18.722  0.00  0.00    +0.000 N 
ATOM      2  C   UNL     1      -0.294  12.251  18.399  0.00  0.00    +0.000 C 
ATOM      3  C   UNL     1       0.063  11.414  19.594  0.00  0.00    +0.000 A 
ATOM      4  C   UNL     1      -0.677  11.891  20.679  0.00  0.00    +0.000 A 
ATOM      5  C   UNL     1      -0.750  11.246  21.897  0.00  0.00    +0.000 A 
ATOM      6  C   UNL     1      -0.044  10.044  22.039  0.00  0.00    +0.000 A 
ATOM      7  C   UNL     1       0.698   9.542  20.940  0.00  0.00    +0.000 A 
ATOM      8  C   UNL     1       0.765  10.217  19.699  0.00  0.00    +0.000 A 
ATOM      9  C   UNL     1      -1.689  12.836  20.132  0.00  0.00    +0.000 C 
ATOM     10  O   UNL     1      -2.488  13.460  20.821  0.00  0.00    +0.000 OA
ENDROOT
BRANCH   1  15
ATOM     11  C   UNL     1      -4.892  11.558  17.352  0.00  0.00    +0.000 A 
ATOM     12  C   UNL     1      -4.373  11.042  16.157  0.00  0.00    +0.000 A 
ATOM     13  C   UNL     1      -3.048  10.624  16.091  0.00  0.00    +0.000 A 
ATOM     14  C   UNL     1      -2.206  10.827  17.170  0.00  0.00    +0.000 A 
ATOM     15  C   UNL     1      -2.627  11.663  18.216  0.00  0.00    +0.000 A 
ATOM     16  C   UNL     1      -4.003  11.883  18.386  0.00  0.00    +0.000 A 
BRANCH  11  17
ATOM     17  C   UNL     1      -6.386  11.738  17.497  0.00  0.00    +0.000 C 
BRANCH  17  23
ATOM     18  C   UNL     1      -6.989   9.300  19.402  0.00  0.00    +0.000 C 
ATOM     19  N   UNL     1      -7.130  10.702  19.711  0.00  0.00    +0.000 N 
ATOM     20  C   UNL     1      -7.498  11.182  20.939  0.00  0.00    +0.000 A 
ATOM     21  N   UNL     1      -7.515  12.494  20.960  0.00  0.00    +0.000 NA
ATOM     22  C   UNL     1      -7.144  12.878  19.701  0.00  0.00    +0.000 A 
ATOM     23  C   UNL     1      -6.899  11.786  18.892  0.00  0.00    +0.000 A 
ENDBRANCH  17  23
ENDBRANCH  11  17
ENDBRANCH   1  15
BRANCH   8  24
ATOM     24  C   UNL     1       1.470   9.557  18.540  0.00  0.00    +0.000 C 
ATOM     25  F   UNL     1       2.155   8.430  18.872  0.00  0.00    +0.000 F 
ATOM     26  F   UNL     1       0.601   9.181  17.560  0.00  0.00    +0.000 F 
ATOM     27  F   UNL     1       2.373  10.380  17.938  0.00  0.00    +0.000 F 
ENDBRANCH   8  24
BRANCH   6  28
ATOM     28  C   UNL     1      -0.170   9.230  23.304  0.00  0.00    +0.000 C 
BRANCH  28  29
ATOM     29  N   UNL     1       0.984   9.421  24.179  0.00  0.00    +0.000 NA
ATOM     30  H   UNL     1       0.723  10.039  24.945  0.00  0.00    +0.000 HD
ATOM     31  H   UNL     1       1.712   9.911  23.661  0.00  0.00    +0.000 HD
ENDBRANCH  28  29
ENDBRANCH   6  28
TORSDOF 6
ENDMDL
MODEL 8
REMARK VINA RESULT:      -7.2      0.573      1.441
REMARK  Name = 
REMARK  7 active torsions:
REMARK  status: ('A' for Active; 'I' for Inactive)
REMARK    1  A    between atoms: C_1  and  N_2
REMARK    2  A    between atoms: C_6  and  C_7
REMARK    3  A    between atoms: C_7  and  C_8
REMARK    4  A    between atoms: C_12  and  N_13
REMARK    5  A    between atoms: C_18  and  C_19
REMARK    6  A    between atoms: C_19  and  N_20
REMARK    7  A    between atoms: C_22  and  C_23
REMARK                            x       y       z     vdW  Elec       q    Type
REMARK                         _______ _______ _______ _____ _____    ______ ____
ROOT
ATOM      1  N   UNL     1      -0.266  11.396  18.426  0.00  0.00    +0.000 N 
ATOM      2  C   UNL     1       0.500  10.599  19.415  0.00  0.00    +0.000 C 
ATOM      3  C   UNL     1       0.078  11.230  20.711  0.00  0.00    +0.000 A 
ATOM      4  C   UNL     1      -0.246  12.563  20.445  0.00  0.00    +0.000 A 
ATOM      5  C   UNL     1      -0.855  13.398  21.359  0.00  0.00    +0.000 A 
ATOM      6  C   UNL     1      -1.167  12.867  22.618  0.00  0.00    +0.000 A 
ATOM      7  C   UNL     1      -0.856  11.512  22.894  0.00  0.00    +0.000 A 
ATOM      8  C   UNL     1      -0.230  10.669  21.947  0.00  0.00    +0.000 A 
ATOM      9  C   UNL     1      -0.293  12.711  18.964  0.00  0.00    +0.000 C 
ATOM     10  O   UNL     1      -0.521  13.768  18.387  0.00  0.00    +0.000 OA
ENDROOT
BRANCH   1  15
ATOM     11  C   UNL     1      -3.864  11.477  17.749  0.00  0.00    +0.000 A 
ATOM     12  C   UNL     1      -3.807  10.736  16.561  0.00  0.00    +0.000 A 
ATOM     13  C   UNL     1      -2.755   9.856  16.333  0.00  0.00    +0.000 A 
ATOM     14  C   UNL     1      -1.700   9.796  17.226  0.00  0.00    +0.000 A 
ATOM     15  C   UNL     1      -1.583  10.788  18.212  0.00  0.00    +0.000 A 
ATOM     16  C   UNL     1      -2.731  11.510  18.575  0.00  0.00    +0.000 A 
BRANCH  11  17
ATOM     17  C   UNL     1      -5.138  12.205  18.113  0.00  0.00    +0.000 C 
BRANCH  17  23
ATOM     18  C   UNL     1      -7.026  10.839  20.235  0.00  0.00    +0.000 C 
ATOM     19  N   UNL     1      -6.109  11.930  20.460  0.00  0.00    +0.000 N 
ATOM     20  C   UNL     1      -5.881  12.498  21.684  0.00  0.00    +0.000 A 
ATOM     21  N   UNL     1      -4.975  13.444  21.616  0.00  0.00    +0.000 NA
ATOM     22  C   UNL     1      -4.602  13.491  20.301  0.00  0.00    +0.000 A 
ATOM     23  C   UNL     1      -5.292  12.563  19.548  0.00  0.00    +0.000 A 
ENDBRANCH  17  23
ENDBRANCH  11  17
ENDBRANCH   1  15
BRANCH   8  24
ATOM     24  C   UNL     1      -0.048   9.207  22.270  0.00  0.00    +0.000 C 
ATOM     25  F   UNL     1      -0.852   8.373  21.557  0.00  0.00    +0.000 F 
ATOM     26  F   UNL     1       1.225   8.783  22.027  0.00  0.00    +0.000 F 
ATOM     27  F   UNL     1      -0.287   8.925  23.581  0.00  0.00    +0.000 F 
ENDBRANCH   8  24
BRANCH   6  28
ATOM     28  C   UNL     1      -1.932  13.690  23.625  0.00  0.00    +0.000 C 
BRANCH  28  29
ATOM     29  N   UNL     1      -1.074  14.679  24.271  0.00  0.00    +0.000 NA
ATOM     30  H   UNL     1      -1.163  14.590  25.281  0.00  0.00    +0.000 HD
ATOM     31  H   UNL     1      -1.416  15.611  24.041  0.00  0.00    +0.000 HD
ENDBRANCH  28  29
ENDBRANCH   6  28
TORSDOF 6
ENDMDL
MODEL 9
REMARK VINA RESULT:      -7.2      6.848      9.537
REMARK  Name = 
REMARK  7 active torsions:
REMARK  status: ('A' for Active; 'I' for Inactive)
REMARK    1  A    between atoms: C_1  and  N_2
REMARK    2  A    between atoms: C_6  and  C_7
REMARK    3  A    between atoms: C_7  and  C_8
REMARK    4  A    between atoms: C_12  and  N_13
REMARK    5  A    between atoms: C_18  and  C_19
REMARK    6  A    between atoms: C_19  and  N_20
REMARK    7  A    between atoms: C_22  and  C_23
REMARK                            x       y       z     vdW  Elec       q    Type
REMARK                         _______ _______ _______ _____ _____    ______ ____
ROOT
ATOM      1  N   UNL     1       3.932   4.848  19.138  0.00  0.00    +0.000 N 
ATOM      2  C   UNL     1       5.294   5.403  19.337  0.00  0.00    +0.000 C 
ATOM      3  C   UNL     1       5.918   5.173  17.991  0.00  0.00    +0.000 A 
ATOM      4  C   UNL     1       5.300   4.055  17.424  0.00  0.00    +0.000 A 
ATOM      5  C   UNL     1       5.484   3.662  16.114  0.00  0.00    +0.000 A 
ATOM      6  C   UNL     1       6.335   4.439  15.316  0.00  0.00    +0.000 A 
ATOM      7  C   UNL     1       6.955   5.583  15.876  0.00  0.00    +0.000 A 
ATOM      8  C   UNL     1       6.759   5.972  17.221  0.00  0.00    +0.000 A 
ATOM      9  C   UNL     1       4.117   3.738  18.271  0.00  0.00    +0.000 C 
ATOM     10  O   UNL     1       3.365   2.791  18.072  0.00  0.00    +0.000 OA
ENDROOT
BRANCH   1  15
ATOM     11  C   UNL     1       2.000   7.948  19.388  0.00  0.00    +0.000 A 
ATOM     12  C   UNL     1       2.678   8.628  18.367  0.00  0.00    +0.000 A 
ATOM     13  C   UNL     1       3.324   7.918  17.362  0.00  0.00    +0.000 A 
ATOM     14  C   UNL     1       3.399   6.538  17.430  0.00  0.00    +0.000 A 
ATOM     15  C   UNL     1       3.041   5.893  18.625  0.00  0.00    +0.000 A 
ATOM     16  C   UNL     1       2.197   6.566  19.522  0.00  0.00    +0.000 A 
BRANCH  11  17
ATOM     17  C   UNL     1       1.071   8.714  20.303  0.00  0.00    +0.000 C 
BRANCH  17  23
ATOM     18  C   UNL     1      -0.788   9.866  18.033  0.00  0.00    +0.000 C 
ATOM     19  N   UNL     1       0.011  10.618  18.969  0.00  0.00    +0.000 N 
ATOM     20  C   UNL     1       0.022  11.985  19.040  0.00  0.00    +0.000 A 
ATOM     21  N   UNL     1       0.806  12.412  20.001  0.00  0.00    +0.000 NA
ATOM     22  C   UNL     1       1.322  11.282  20.573  0.00  0.00    +0.000 A 
ATOM     23  C   UNL     1       0.851  10.143  19.952  0.00  0.00    +0.000 A 
ENDBRANCH  17  23
ENDBRANCH  11  17
ENDBRANCH   1  15
BRANCH   8  24
ATOM     24  C   UNL     1       7.352   7.271  17.706  0.00  0.00    +0.000 C 
ATOM     25  F   UNL     1       8.080   7.160  18.849  0.00  0.00    +0.000 F 
ATOM     26  F   UNL     1       8.194   7.823  16.788  0.00  0.00    +0.000 F 
ATOM     27  F   UNL     1       6.405   8.219  17.958  0.00  0.00    +0.000 F 
ENDBRANCH   8  24
BRANCH   6  28
ATOM     28  C   UNL     1       6.493   4.132  13.847  0.00  0.00    +0.000 C 
BRANCH  28  29
ATOM     29  N   UNL     1       7.394   5.079  13.197  0.00  0.00    +0.000 NA
ATOM     30  H   UNL     1       7.696   4.695  12.304  0.00  0.00    +0.000 HD
ATOM     31  H   UNL     1       8.238   5.170  13.762  0.00  0.00    +0.000 HD
ENDBRANCH  28  29
ENDBRANCH   6  28
TORSDOF 6
ENDMDL
