MODEL 1
REMARK VINA RESULT:      -8.7      0.000      0.000
REMARK  Name = 
REMARK  3 active torsions:
REMARK  status: ('A' for Active; 'I' for Inactive)
REMARK    1  A    between atoms: C_2  and  C_3
REMARK    2  A    between atoms: C_3  and  C_4
REMARK    3  A    between atoms: C_3  and  N_10
REMARK                            x       y       z     vdW  Elec       q    Type
REMARK                         _______ _______ _______ _____ _____    ______ ____
ROOT
ATOM      1  C   UNL     1       0.852  10.431  18.772  0.00  0.00    +0.000 C 
ENDROOT
BRANCH   1   3
ATOM      2  O   UNL     1       0.739   9.309  20.957  0.00  0.00    +0.000 OA
ATOM      3  C   UNL     1       1.170   9.311  19.800  0.00  0.00    +0.000 C 
ATOM      4  N   UNL     1       1.889   8.188  19.314  0.00  0.00    +0.000 N 
ATOM      5  C   UNL     1       2.539   8.129  17.992  0.00  0.00    +0.000 C 
ATOM      6  C   UNL     1       3.656   7.092  17.922  0.00  0.00    +0.000 C 
ATOM      7  C   UNL     1       3.021   5.767  18.202  0.00  0.00    +0.000 A 
ATOM      8  C   UNL     1       3.219   4.661  17.369  0.00  0.00    +0.000 A 
ATOM      9  C   UNL     1       2.536   3.476  17.625  0.00  0.00    +0.000 A 
ATOM     10  C   UNL     1       1.698   3.383  18.736  0.00  0.00    +0.000 A 
ATOM     11  C   UNL     1       1.518   4.487  19.573  0.00  0.00    +0.000 A 
ATOM     12  F   UNL     1       0.710   4.371  20.634  0.00  0.00    +0.000 F 
ATOM     13  C   UNL     1       2.145   5.700  19.301  0.00  0.00    +0.000 A 
ATOM     14  C   UNL     1       1.912   6.951  20.133  0.00  0.00    +0.000 C 
ENDBRANCH   1   3
BRANCH   1  15
ATOM     15  N   UNL     1       1.474  11.767  18.897  0.00  0.00    +0.000 N 
ATOM     16  C   UNL     1       2.405  12.159  17.948  0.00  0.00    +0.000 A 
ATOM     17  N   UNL     1       3.018  13.266  18.263  0.00  0.00    +0.000 NA
ATOM     18  C   UNL     1       2.442  13.647  19.439  0.00  0.00    +0.000 A 
ATOM     19  C   UNL     1       2.784  14.754  20.234  0.00  0.00    +0.000 A 
ATOM     20  C   UNL     1       2.082  14.981  21.414  0.00  0.00    +0.000 A 
ATOM     21  C   UNL     1       1.015  14.152  21.760  0.00  0.00    +0.000 A 
ATOM     22  C   UNL     1       0.650  13.046  20.972  0.00  0.00    +0.000 A 
ATOM     23  C   UNL     1       1.418  12.773  19.833  0.00  0.00    +0.000 A 
ENDBRANCH   1  15
BRANCH   1  24
ATOM     24  C   UNL     1      -0.630  10.542  18.451  0.00  0.00    +0.000 A 
ATOM     25  C   UNL     1      -1.468  11.430  19.135  0.00  0.00    +0.000 A 
ATOM     26  C   UNL     1      -2.813  11.542  18.777  0.00  0.00    +0.000 A 
ATOM     27  C   UNL     1      -3.330  10.778  17.731  0.00  0.00    +0.000 A 
ATOM     28  C   UNL     1      -2.513   9.880  17.053  0.00  0.00    +0.000 A 
ATOM     29  C   UNL     1      -1.173   9.758  17.413  0.00  0.00    +0.000 A 
ENDBRANCH   1  24
TORSDOF 3
ENDMDL
MODEL 2
REMARK VINA RESULT:      -8.6      0.895      1.567
REMARK  Name = 
REMARK  3 active torsions:
REMARK  status: ('A' for Active; 'I' for Inactive)
REMARK    1  A    between atoms: C_2  and  C_3
REMARK    2  A    between atoms: C_3  and  C_4
REMARK    3  A    between atoms: C_3  and  N_10
REMARK                            x       y       z     vdW  Elec       q    Type
REMARK                         _______ _______ _______ _____ _____    ______ ____
ROOT
ATOM      1  C   UNL     1       0.870  10.332  19.419  0.00  0.00    +0.000 C 
ENDROOT
BRANCH   1   3
ATOM      2  O   UNL     1       0.580   8.917  21.408  0.00  0.00    +0.000 OA
ATOM      3  C   UNL     1       1.089   9.068  20.294  0.00  0.00    +0.000 C 
ATOM      4  N   UNL     1       1.810   8.001  19.699  0.00  0.00    +0.000 N 
ATOM      5  C   UNL     1       2.547   8.107  18.427  0.00  0.00    +0.000 C 
ATOM      6  C   UNL     1       3.640   7.052  18.280  0.00  0.00    +0.000 C 
ATOM      7  C   UNL     1       2.954   5.724  18.325  0.00  0.00    +0.000 A 
ATOM      8  C   UNL     1       3.181   4.741  17.356  0.00  0.00    +0.000 A 
ATOM      9  C   UNL     1       2.452   3.556  17.395  0.00  0.00    +0.000 A 
ATOM     10  C   UNL     1       1.538   3.335  18.425  0.00  0.00    +0.000 A 
ATOM     11  C   UNL     1       1.329   4.316  19.399  0.00  0.00    +0.000 A 
ATOM     12  F   UNL     1       0.448   4.078  20.378  0.00  0.00    +0.000 F 
ATOM     13  C   UNL     1       2.004   5.532  19.345  0.00  0.00    +0.000 A 
ATOM     14  C   UNL     1       1.746   6.660  20.332  0.00  0.00    +0.000 C 
ENDBRANCH   1   3
BRANCH   1  15
ATOM     15  N   UNL     1       1.280  11.666  19.908  0.00  0.00    +0.000 N 
ATOM     16  C   UNL     1       0.915  12.045  21.191  0.00  0.00    +0.000 A 
ATOM     17  N   UNL     1       1.166  13.300  21.442  0.00  0.00    +0.000 NA
ATOM     18  C   UNL     1       1.759  13.759  20.303  0.00  0.00    +0.000 A 
ATOM     19  C   UNL     1       2.176  15.074  20.032  0.00  0.00    +0.000 A 
ATOM     20  C   UNL     1       2.761  15.357  18.801  0.00  0.00    +0.000 A 
ATOM     21  C   UNL     1       2.983  14.330  17.883  0.00  0.00    +0.000 A 
ATOM     22  C   UNL     1       2.583  13.006  18.141  0.00  0.00    +0.000 A 
ATOM     23  C   UNL     1       1.916  12.747  19.345  0.00  0.00    +0.000 A 
ENDBRANCH   1  15
BRANCH   1  24
ATOM     24  C   UNL     1      -0.508  10.382  18.777  0.00  0.00    +0.000 A 
ATOM     25  C   UNL     1      -1.540  11.165  19.306  0.00  0.00    +0.000 A 
ATOM     26  C   UNL     1      -2.775  11.227  18.659  0.00  0.00    +0.000 A 
ATOM     27  C   UNL     1      -2.989  10.515  17.478  0.00  0.00    +0.000 A 
ATOM     28  C   UNL     1      -1.978   9.720  16.949  0.00  0.00    +0.000 A 
ATOM     29  C   UNL     1      -0.747   9.649  17.597  0.00  0.00    +0.000 A 
ENDBRANCH   1  24
TORSDOF 3
ENDMDL
MODEL 3
REMARK VINA RESULT:      -8.0      2.909      7.773
REMARK  Name = 
REMARK  3 active torsions:
REMARK  status: ('A' for Active; 'I' for Inactive)
REMARK    1  A    between atoms: C_2  and  C_3
REMARK    2  A    between atoms: C_3  and  C_4
REMARK    3  A    between atoms: C_3  and  N_10
REMARK                            x       y       z     vdW  Elec       q    Type
REMARK                         _______ _______ _______ _____ _____    ______ ____
ROOT
ATOM      1  C   UNL     1       3.395   6.256  18.776  0.00  0.00    +0.000 C 
ENDROOT
BRANCH   1   3
ATOM      2  O   UNL     1       3.035   7.571  16.729  0.00  0.00    +0.000 OA
ATOM      3  C   UNL     1       2.897   7.475  17.952  0.00  0.00    +0.000 C 
ATOM      4  N   UNL     1       2.138   8.447  18.653  0.00  0.00    +0.000 N 
ATOM      5  C   UNL     1       2.000   8.491  20.120  0.00  0.00    +0.000 C 
ATOM      6  C   UNL     1       1.615   9.872  20.642  0.00  0.00    +0.000 C 
ATOM      7  C   UNL     1       0.292  10.203  20.028  0.00  0.00    +0.000 A 
ATOM      8  C   UNL     1      -0.790  10.645  20.796  0.00  0.00    +0.000 A 
ATOM      9  C   UNL     1      -2.024  10.856  20.188  0.00  0.00    +0.000 A 
ATOM     10  C   UNL     1      -2.161  10.674  18.811  0.00  0.00    +0.000 A 
ATOM     11  C   UNL     1      -1.070  10.249  18.048  0.00  0.00    +0.000 A 
ATOM     12  F   UNL     1      -1.227  10.085  16.729  0.00  0.00    +0.000 F 
ATOM     13  C   UNL     1       0.157   9.975  18.646  0.00  0.00    +0.000 A 
ATOM     14  C   UNL     1       1.346   9.429  17.871  0.00  0.00    +0.000 C 
ENDBRANCH   1   3
BRANCH   1  15
ATOM     15  N   UNL     1       4.700   5.628  18.477  0.00  0.00    +0.000 N 
ATOM     16  C   UNL     1       5.628   5.504  19.499  0.00  0.00    +0.000 A 
ATOM     17  N   UNL     1       6.799   5.112  19.079  0.00  0.00    +0.000 NA
ATOM     18  C   UNL     1       6.631   4.925  17.739  0.00  0.00    +0.000 A 
ATOM     19  C   UNL     1       7.611   4.555  16.803  0.00  0.00    +0.000 A 
ATOM     20  C   UNL     1       7.250   4.417  15.466  0.00  0.00    +0.000 A 
ATOM     21  C   UNL     1       5.919   4.584  15.083  0.00  0.00    +0.000 A 
ATOM     22  C   UNL     1       4.922   4.943  16.007  0.00  0.00    +0.000 A 
ATOM     23  C   UNL     1       5.310   5.167  17.334  0.00  0.00    +0.000 A 
ENDBRANCH   1  15
BRANCH   1  24
ATOM     24  C   UNL     1       2.317   5.206  18.996  0.00  0.00    +0.000 A 
ATOM     25  C   UNL     1       1.784   4.462  17.938  0.00  0.00    +0.000 A 
ATOM     26  C   UNL     1       0.835   3.469  18.186  0.00  0.00    +0.000 A 
ATOM     27  C   UNL     1       0.416   3.206  19.491  0.00  0.00    +0.000 A 
ATOM     28  C   UNL     1       0.924   3.947  20.551  0.00  0.00    +0.000 A 
ATOM     29  C   UNL     1       1.865   4.945  20.306  0.00  0.00    +0.000 A 
ENDBRANCH   1  24
TORSDOF 3
ENDMDL
MODEL 4
REMARK VINA RESULT:      -7.8      1.043      1.067
REMARK  Name = 
REMARK  3 active torsions:
REMARK  status: ('A' for Active; 'I' for Inactive)
REMARK    1  A    between atoms: C_2  and  C_3
REMARK    2  A    between atoms: C_3  and  C_4
REMARK    3  A    between atoms: C_3  and  N_10
REMARK                            x       y       z     vdW  Elec       q    Type
REMARK                         _______ _______ _______ _____ _____    ______ ____
ROOT
ATOM      1  C   UNL     1       0.595  10.575  18.490  0.00  0.00    +0.000 C 
ENDROOT
BRANCH   1   3
ATOM      2  O   UNL     1       0.677   9.657  20.770  0.00  0.00    +0.000 OA
ATOM      3  C   UNL     1       1.047   9.582  19.595  0.00  0.00    +0.000 C 
ATOM      4  N   UNL     1       1.822   8.471  19.171  0.00  0.00    +0.000 N 
ATOM      5  C   UNL     1       2.406   8.334  17.825  0.00  0.00    +0.000 C 
ATOM      6  C   UNL     1       3.593   7.375  17.784  0.00  0.00    +0.000 C 
ATOM      7  C   UNL     1       3.073   6.041  18.217  0.00  0.00    +0.000 A 
ATOM      8  C   UNL     1       3.311   4.878  17.477  0.00  0.00    +0.000 A 
ATOM      9  C   UNL     1       2.732   3.677  17.877  0.00  0.00    +0.000 A 
ATOM     10  C   UNL     1       1.961   3.631  19.038  0.00  0.00    +0.000 A 
ATOM     11  C   UNL     1       1.742   4.794  19.782  0.00  0.00    +0.000 A 
ATOM     12  F   UNL     1       1.000   4.721  20.894  0.00  0.00    +0.000 F 
ATOM     13  C   UNL     1       2.262   6.016  19.367  0.00  0.00    +0.000 A 
ATOM     14  C   UNL     1       1.979   7.321  20.095  0.00  0.00    +0.000 C 
ENDBRANCH   1   3
BRANCH   1  15
ATOM     15  N   UNL     1       1.210  11.915  18.385  0.00  0.00    +0.000 N 
ATOM     16  C   UNL     1       2.557  12.006  18.067  0.00  0.00    +0.000 A 
ATOM     17  N   UNL     1       3.028  13.216  18.187  0.00  0.00    +0.000 NA
ATOM     18  C   UNL     1       1.948  13.963  18.554  0.00  0.00    +0.000 A 
ATOM     19  C   UNL     1       1.929  15.333  18.866  0.00  0.00    +0.000 A 
ATOM     20  C   UNL     1       0.723  15.927  19.226  0.00  0.00    +0.000 A 
ATOM     21  C   UNL     1      -0.454  15.177  19.213  0.00  0.00    +0.000 A 
ATOM     22  C   UNL     1      -0.457  13.808  18.892  0.00  0.00    +0.000 A 
ATOM     23  C   UNL     1       0.774  13.199  18.617  0.00  0.00    +0.000 A 
ENDBRANCH   1  15
BRANCH   1  24
ATOM     24  C   UNL     1      -0.916  10.651  18.340  0.00  0.00    +0.000 A 
ATOM     25  C   UNL     1      -1.720  11.303  19.283  0.00  0.00    +0.000 A 
ATOM     26  C   UNL     1      -3.098  11.399  19.084  0.00  0.00    +0.000 A 
ATOM     27  C   UNL     1      -3.685  10.852  17.942  0.00  0.00    +0.000 A 
ATOM     28  C   UNL     1      -2.902  10.188  17.004  0.00  0.00    +0.000 A 
ATOM     29  C   UNL     1      -1.528  10.083  17.204  0.00  0.00    +0.000 A 
ENDBRANCH   1  24
TORSDOF 3
ENDMDL
MODEL 5
REMARK VINA RESULT:      -7.8      1.293      1.792
REMARK  Name = 
REMARK  3 active torsions:
REMARK  status: ('A' for Active; 'I' for Inactive)
REMARK    1  A    between atoms: C_2  and  C_3
REMARK    2  A    between atoms: C_3  and  C_4
REMARK    3  A    between atoms: C_3  and  N_10
REMARK                            x       y       z     vdW  Elec       q    Type
REMARK                         _______ _______ _______ _____ _____    ______ ____
ROOT
ATOM      1  C   UNL     1       0.259  10.950  18.747  0.00  0.00    +0.000 C 
ENDROOT
BRANCH   1   3
ATOM      2  O   UNL     1       0.347   9.911  20.974  0.00  0.00    +0.000 OA
ATOM      3  C   UNL     1       0.741   9.919  19.804  0.00  0.00    +0.000 C 
ATOM      4  N   UNL     1       1.578   8.874  19.335  0.00  0.00    +0.000 N 
ATOM      5  C   UNL     1       2.192   8.841  17.996  0.00  0.00    +0.000 C 
ATOM      6  C   UNL     1       3.425   7.945  17.926  0.00  0.00    +0.000 C 
ATOM      7  C   UNL     1       2.966   6.566  18.274  0.00  0.00    +0.000 A 
ATOM      8  C   UNL     1       3.275   5.460  17.475  0.00  0.00    +0.000 A 
ATOM      9  C   UNL     1       2.749   4.211  17.796  0.00  0.00    +0.000 A 
ATOM     10  C   UNL     1       1.961   4.061  18.937  0.00  0.00    +0.000 A 
ATOM     11  C   UNL     1       1.671   5.168  19.739  0.00  0.00    +0.000 A 
ATOM     12  F   UNL     1       0.914   4.997  20.830  0.00  0.00    +0.000 F 
ATOM     13  C   UNL     1       2.137   6.437  19.404  0.00  0.00    +0.000 A 
ATOM     14  C   UNL     1       1.776   7.682  20.197  0.00  0.00    +0.000 C 
ENDBRANCH   1   3
BRANCH   1  15
ATOM     15  N   UNL     1       0.491  12.397  18.946  0.00  0.00    +0.000 N 
ATOM     16  C   UNL     1      -0.549  13.177  19.430  0.00  0.00    +0.000 A 
ATOM     17  N   UNL     1      -0.290  14.454  19.387  0.00  0.00    +0.000 NA
ATOM     18  C   UNL     1       0.982  14.524  18.900  0.00  0.00    +0.000 A 
ATOM     19  C   UNL     1       1.717  15.685  18.607  0.00  0.00    +0.000 A 
ATOM     20  C   UNL     1       3.010  15.557  18.108  0.00  0.00    +0.000 A 
ATOM     21  C   UNL     1       3.580  14.292  17.965  0.00  0.00    +0.000 A 
ATOM     22  C   UNL     1       2.863  13.119  18.263  0.00  0.00    +0.000 A 
ATOM     23  C   UNL     1       1.533  13.253  18.681  0.00  0.00    +0.000 A 
ENDBRANCH   1  15
BRANCH   1  24
ATOM     24  C   UNL     1      -1.155  10.683  18.256  0.00  0.00    +0.000 A 
ATOM     25  C   UNL     1      -2.273  11.246  18.882  0.00  0.00    +0.000 A 
ATOM     26  C   UNL     1      -3.552  11.020  18.370  0.00  0.00    +0.000 A 
ATOM     27  C   UNL     1      -3.726  10.239  17.228  0.00  0.00    +0.000 A 
ATOM     28  C   UNL     1      -2.627   9.660  16.603  0.00  0.00    +0.000 A 
ATOM     29  C   UNL     1      -1.350   9.875  17.116  0.00  0.00    +0.000 A 
ENDBRANCH   1  24
TORSDOF 3
ENDMDL
MODEL 6
REMARK VINA RESULT:      -7.7      2.862      7.749
REMARK  Name = 
REMARK  3 active torsions:
REMARK  status: ('A' for Active; 'I' for Inactive)
REMARK    1  A    between atoms: C_2  and  C_3
REMARK    2  A    between atoms: C_3  and  C_4
REMARK    3  A    between atoms: C_3  and  N_10
REMARK                            x       y       z     vdW  Elec       q    Type
REMARK                         _______ _______ _______ _____ _____    ______ ____
ROOT
ATOM      1  C   UNL     1       0.667  10.814  19.429  0.00  0.00    +0.000 C 
ENDROOT
BRANCH   1   3
ATOM      2  O   UNL     1       2.350  11.615  17.825  0.00  0.00    +0.000 OA
ATOM      3  C   UNL     1       1.715  11.812  18.865  0.00  0.00    +0.000 C 
ATOM      4  N   UNL     1       1.830  13.057  19.535  0.00  0.00    +0.000 N 
ATOM      5  C   UNL     1       1.205  13.360  20.835  0.00  0.00    +0.000 C 
ATOM      6  C   UNL     1       1.890  14.506  21.574  0.00  0.00    +0.000 C 
ATOM      7  C   UNL     1       1.767  15.709  20.695  0.00  0.00    +0.000 A 
ATOM      8  C   UNL     1       1.287  16.931  21.176  0.00  0.00    +0.000 A 
ATOM      9  C   UNL     1       1.109  17.995  20.296  0.00  0.00    +0.000 A 
ATOM     10  C   UNL     1       1.459  17.852  18.953  0.00  0.00    +0.000 A 
ATOM     11  C   UNL     1       1.954  16.633  18.484  0.00  0.00    +0.000 A 
ATOM     12  F   UNL     1       2.284  16.523  17.191  0.00  0.00    +0.000 F 
ATOM     13  C   UNL     1       2.083  15.538  19.334  0.00  0.00    +0.000 A 
ATOM     14  C   UNL     1       2.536  14.169  18.850  0.00  0.00    +0.000 C 
ENDBRANCH   1   3
BRANCH   1  15
ATOM     15  N   UNL     1       1.046   9.418  19.736  0.00  0.00    +0.000 N 
ATOM     16  C   UNL     1       0.692   8.888  20.967  0.00  0.00    +0.000 A 
ATOM     17  N   UNL     1       1.237   7.726  21.197  0.00  0.00    +0.000 NA
ATOM     18  C   UNL     1       1.942   7.454  20.062  0.00  0.00    +0.000 A 
ATOM     19  C   UNL     1       2.762   6.339  19.817  0.00  0.00    +0.000 A 
ATOM     20  C   UNL     1       3.411   6.235  18.590  0.00  0.00    +0.000 A 
ATOM     21  C   UNL     1       3.193   7.196  17.603  0.00  0.00    +0.000 A 
ATOM     22  C   UNL     1       2.367   8.313  17.825  0.00  0.00    +0.000 A 
ATOM     23  C   UNL     1       1.789   8.456  19.092  0.00  0.00    +0.000 A 
ENDBRANCH   1  15
BRANCH   1  24
ATOM     24  C   UNL     1      -0.665  10.874  18.699  0.00  0.00    +0.000 A 
ATOM     25  C   UNL     1      -0.968  10.006  17.643  0.00  0.00    +0.000 A 
ATOM     26  C   UNL     1      -2.223  10.055  17.033  0.00  0.00    +0.000 A 
ATOM     27  C   UNL     1      -3.186  10.962  17.474  0.00  0.00    +0.000 A 
ATOM     28  C   UNL     1      -2.895  11.842  18.511  0.00  0.00    +0.000 A 
ATOM     29  C   UNL     1      -1.641  11.802  19.117  0.00  0.00    +0.000 A 
ENDBRANCH   1  24
TORSDOF 3
ENDMDL
MODEL 7
REMARK VINA RESULT:      -7.6      3.938      7.202
REMARK  Name = 
REMARK  3 active torsions:
REMARK  status: ('A' for Active; 'I' for Inactive)
REMARK    1  A    between atoms: C_2  and  C_3
REMARK    2  A    between atoms: C_3  and  C_4
REMARK    3  A    between atoms: C_3  and  N_10
REMARK                            x       y       z     vdW  Elec       q    Type
REMARK                         _______ _______ _______ _____ _____    ______ ____
ROOT
ATOM      1  C   UNL     1      -1.000  12.353  19.866  0.00  0.00    +0.000 C 
ENDROOT
BRANCH   1   3
ATOM      2  O   UNL     1      -2.230  11.528  17.903  0.00  0.00    +0.000 OA
ATOM      3  C   UNL     1      -2.262  12.098  18.997  0.00  0.00    +0.000 C 
ATOM      4  N   UNL     1      -3.511  12.438  19.578  0.00  0.00    +0.000 N 
ATOM      5  C   UNL     1      -3.664  13.214  20.821  0.00  0.00    +0.000 C 
ATOM      6  C   UNL     1      -5.027  13.890  20.940  0.00  0.00    +0.000 C 
ATOM      7  C   UNL     1      -6.044  12.794  20.934  0.00  0.00    +0.000 A 
ATOM      8  C   UNL     1      -7.048  12.711  21.905  0.00  0.00    +0.000 A 
ATOM      9  C   UNL     1      -7.916  11.623  21.905  0.00  0.00    +0.000 A 
ATOM     10  C   UNL     1      -7.812  10.650  20.911  0.00  0.00    +0.000 A 
ATOM     11  C   UNL     1      -6.817  10.750  19.934  0.00  0.00    +0.000 A 
ATOM     12  F   UNL     1      -6.740   9.804  18.990  0.00  0.00    +0.000 F 
ATOM     13  C   UNL     1      -5.901  11.798  19.951  0.00  0.00    +0.000 A 
ATOM     14  C   UNL     1      -4.750  11.901  18.962  0.00  0.00    +0.000 C 
ENDBRANCH   1   3
BRANCH   1  15
ATOM     15  N   UNL     1       0.229  12.911  19.262  0.00  0.00    +0.000 N 
ATOM     16  C   UNL     1       1.307  12.065  19.047  0.00  0.00    +0.000 A 
ATOM     17  N   UNL     1       2.389  12.700  18.689  0.00  0.00    +0.000 NA
ATOM     18  C   UNL     1       2.005  14.007  18.620  0.00  0.00    +0.000 A 
ATOM     19  C   UNL     1       2.816  15.117  18.328  0.00  0.00    +0.000 A 
ATOM     20  C   UNL     1       2.243  16.385  18.307  0.00  0.00    +0.000 A 
ATOM     21  C   UNL     1       0.871  16.533  18.511  0.00  0.00    +0.000 A 
ATOM     22  C   UNL     1       0.041  15.433  18.793  0.00  0.00    +0.000 A 
ATOM     23  C   UNL     1       0.640  14.172  18.899  0.00  0.00    +0.000 A 
ENDBRANCH   1  15
BRANCH   1  24
ATOM     24  C   UNL     1      -0.678  11.199  20.801  0.00  0.00    +0.000 A 
ATOM     25  C   UNL     1      -0.710  11.346  22.193  0.00  0.00    +0.000 A 
ATOM     26  C   UNL     1      -0.461  10.249  23.020  0.00  0.00    +0.000 A 
ATOM     27  C   UNL     1      -0.185   8.998  22.468  0.00  0.00    +0.000 A 
ATOM     28  C   UNL     1      -0.134   8.840  21.087  0.00  0.00    +0.000 A 
ATOM     29  C   UNL     1      -0.374   9.934  20.259  0.00  0.00    +0.000 A 
ENDBRANCH   1  24
TORSDOF 3
ENDMDL
MODEL 8
REMARK VINA RESULT:      -7.5      3.839      8.263
REMARK  Name = 
REMARK  3 active torsions:
REMARK  status: ('A' for Active; 'I' for Inactive)
REMARK    1  A    between atoms: C_2  and  C_3
REMARK    2  A    between atoms: C_3  and  C_4
REMARK    3  A    between atoms: C_3  and  N_10
REMARK                            x       y       z     vdW  Elec       q    Type
REMARK                         _______ _______ _______ _____ _____    ______ ____
ROOT
ATOM      1  C   UNL     1      -0.887  11.609  19.445  0.00  0.00    +0.000 C 
ENDROOT
BRANCH   1   3
ATOM      2  O   UNL     1       0.853  12.818  18.197  0.00  0.00    +0.000 OA
ATOM      3  C   UNL     1      -0.049  12.852  19.039  0.00  0.00    +0.000 C 
ATOM      4  N   UNL     1      -0.450  14.096  19.590  0.00  0.00    +0.000 N 
ATOM      5  C   UNL     1      -1.436  14.242  20.676  0.00  0.00    +0.000 C 
ATOM      6  C   UNL     1      -1.298  15.560  21.434  0.00  0.00    +0.000 C 
ATOM      7  C   UNL     1      -1.525  16.648  20.434  0.00  0.00    +0.000 A 
ATOM      8  C   UNL     1      -2.428  17.691  20.668  0.00  0.00    +0.000 A 
ATOM      9  C   UNL     1      -2.667  18.631  19.670  0.00  0.00    +0.000 A 
ATOM     10  C   UNL     1      -1.971  18.556  18.463  0.00  0.00    +0.000 A 
ATOM     11  C   UNL     1      -1.058  17.520  18.244  0.00  0.00    +0.000 A 
ATOM     12  F   UNL     1      -0.402  17.472  17.078  0.00  0.00    +0.000 F 
ATOM     13  C   UNL     1      -0.848  16.536  19.206  0.00  0.00    +0.000 A 
ATOM     14  C   UNL     1       0.069  15.344  18.977  0.00  0.00    +0.000 C 
ENDBRANCH   1   3
BRANCH   1  15
ATOM     15  N   UNL     1      -0.222  10.346  19.830  0.00  0.00    +0.000 N 
ATOM     16  C   UNL     1      -0.401   9.865  21.118  0.00  0.00    +0.000 A 
ATOM     17  N   UNL     1       0.376   8.855  21.397  0.00  0.00    +0.000 NA
ATOM     18  C   UNL     1       1.063   8.629  20.241  0.00  0.00    +0.000 A 
ATOM     19  C   UNL     1       2.075   7.678  20.027  0.00  0.00    +0.000 A 
ATOM     20  C   UNL     1       2.669   7.597  18.770  0.00  0.00    +0.000 A 
ATOM     21  C   UNL     1       2.215   8.408  17.731  0.00  0.00    +0.000 A 
ATOM     22  C   UNL     1       1.195   9.358  17.923  0.00  0.00    +0.000 A 
ATOM     23  C   UNL     1       0.664   9.494  19.212  0.00  0.00    +0.000 A 
ENDBRANCH   1  15
BRANCH   1  24
ATOM     24  C   UNL     1      -2.060  11.351  18.513  0.00  0.00    +0.000 A 
ATOM     25  C   UNL     1      -3.352  11.802  18.810  0.00  0.00    +0.000 A 
ATOM     26  C   UNL     1      -4.393  11.593  17.904  0.00  0.00    +0.000 A 
ATOM     27  C   UNL     1      -4.154  10.940  16.695  0.00  0.00    +0.000 A 
ATOM     28  C   UNL     1      -2.880  10.473  16.392  0.00  0.00    +0.000 A 
ATOM     29  C   UNL     1      -1.840  10.672  17.297  0.00  0.00    +0.000 A 
ENDBRANCH   1  24
TORSDOF 3
ENDMDL
MODEL 9
REMARK VINA RESULT:      -7.4      3.860      7.190
REMARK  Name = 
REMARK  3 active torsions:
REMARK  status: ('A' for Active; 'I' for Inactive)
REMARK    1  A    between atoms: C_2  and  C_3
REMARK    2  A    between atoms: C_3  and  C_4
REMARK    3  A    between atoms: C_3  and  N_10
REMARK                            x       y       z     vdW  Elec       q    Type
REMARK                         _______ _______ _______ _____ _____    ______ ____
ROOT
ATOM      1  C   UNL     1      -0.893  12.409  20.210  0.00  0.00    +0.000 C 
ENDROOT
BRANCH   1   3
ATOM      2  O   UNL     1      -2.014  11.783  18.114  0.00  0.00    +0.000 OA
ATOM      3  C   UNL     1      -2.105  12.249  19.252  0.00  0.00    +0.000 C 
ATOM      4  N   UNL     1      -3.384  12.545  19.791  0.00  0.00    +0.000 N 
ATOM      5  C   UNL     1      -3.602  13.204  21.092  0.00  0.00    +0.000 C 
ATOM      6  C   UNL     1      -4.967  13.879  21.197  0.00  0.00    +0.000 C 
ATOM      7  C   UNL     1      -5.987  12.798  21.032  0.00  0.00    +0.000 A 
ATOM      8  C   UNL     1      -7.045  12.635  21.933  0.00  0.00    +0.000 A 
ATOM      9  C   UNL     1      -7.917  11.560  21.783  0.00  0.00    +0.000 A 
ATOM     10  C   UNL     1      -7.761  10.684  20.708  0.00  0.00    +0.000 A 
ATOM     11  C   UNL     1      -6.712  10.864  19.803  0.00  0.00    +0.000 A 
ATOM     12  F   UNL     1      -6.586  10.010  18.780  0.00  0.00    +0.000 F 
ATOM     13  C   UNL     1      -5.793  11.897  19.969  0.00  0.00    +0.000 A 
ATOM     14  C   UNL     1      -4.588  12.080  19.060  0.00  0.00    +0.000 C 
ENDBRANCH   1   3
BRANCH   1  15
ATOM     15  N   UNL     1       0.355  13.050  19.744  0.00  0.00    +0.000 N 
ATOM     16  C   UNL     1       0.766  12.833  18.437  0.00  0.00    +0.000 A 
ATOM     17  N   UNL     1       1.964  13.289  18.198  0.00  0.00    +0.000 NA
ATOM     18  C   UNL     1       2.345  13.868  19.373  0.00  0.00    +0.000 A 
ATOM     19  C   UNL     1       3.585  14.462  19.665  0.00  0.00    +0.000 A 
ATOM     20  C   UNL     1       3.794  15.001  20.931  0.00  0.00    +0.000 A 
ATOM     21  C   UNL     1       2.759  15.002  21.867  0.00  0.00    +0.000 A 
ATOM     22  C   UNL     1       1.508  14.423  21.589  0.00  0.00    +0.000 A 
ATOM     23  C   UNL     1       1.336  13.805  20.344  0.00  0.00    +0.000 A 
ENDBRANCH   1  15
BRANCH   1  24
ATOM     24  C   UNL     1      -0.599  11.153  21.014  0.00  0.00    +0.000 A 
ATOM     25  C   UNL     1      -0.092   9.994  20.414  0.00  0.00    +0.000 A 
ATOM     26  C   UNL     1       0.216   8.878  21.193  0.00  0.00    +0.000 A 
ATOM     27  C   UNL     1       0.028   8.909  22.575  0.00  0.00    +0.000 A 
ATOM     28  C   UNL     1      -0.490  10.047  23.184  0.00  0.00    +0.000 A 
ATOM     29  C   UNL     1      -0.807  11.160  22.409  0.00  0.00    +0.000 A 
ENDBRANCH   1  24
TORSDOF 3
ENDMDL
