MODEL 1
REMARK VINA RESULT:      -7.1      0.000      0.000
REMARK  Name = 
REMARK  6 active torsions:
REMARK  status: ('A' for Active; 'I' for Inactive)
REMARK    1  A    between atoms: C_1  and  N_2
REMARK    2  A    between atoms: N_7  and  C_8
REMARK    3  A    between atoms: C_10  and  N_11
REMARK    4  A    between atoms: C_18  and  C_19
REMARK    5  A    between atoms: C_27  and  C_28
REMARK    6  A    between atoms: C_28  and  N_29
REMARK                            x       y       z     vdW  Elec       q    Type
REMARK                         _______ _______ _______ _____ _____    ______ ____
ROOT
ATOM      1  C   UNL     1       0.267   9.595  19.576  0.00  0.00    +0.000 A 
ATOM      2  C   UNL     1       1.326   8.865  20.136  0.00  0.00    +0.000 A 
ATOM      3  C   UNL     1       2.126   8.071  19.327  0.00  0.00    +0.000 A 
ATOM      4  C   UNL     1       2.001   8.146  17.930  0.00  0.00    +0.000 A 
ATOM      5  C   UNL     1       0.987   8.902  17.358  0.00  0.00    +0.000 A 
ATOM      6  C   UNL     1       0.074   9.584  18.173  0.00  0.00    +0.000 A 
ENDROOT
BRANCH   3   7
ATOM      7  N   UNL     1       2.879   7.016  19.948  0.00  0.00    +0.000 N 
ATOM      8  C   UNL     1       3.968   6.470  19.137  0.00  0.00    +0.000 C 
ATOM      9  C   UNL     1       3.378   5.224  18.559  0.00  0.00    +0.000 A 
ATOM     10  C   UNL     1       2.273   4.860  19.336  0.00  0.00    +0.000 A 
ATOM     11  C   UNL     1       1.370   3.891  18.952  0.00  0.00    +0.000 A 
ATOM     12  C   UNL     1       1.602   3.253  17.736  0.00  0.00    +0.000 A 
ATOM     13  C   UNL     1       2.734   3.579  16.961  0.00  0.00    +0.000 A 
ATOM     14  C   UNL     1       3.656   4.564  17.371  0.00  0.00    +0.000 A 
ATOM     15  C   UNL     1       2.036   5.933  20.312  0.00  0.00    +0.000 C 
ATOM     16  O   UNL     1       1.121   5.921  21.118  0.00  0.00    +0.000 OA
BRANCH  14  17
ATOM     17  C   UNL     1       4.813   4.939  16.482  0.00  0.00    +0.000 C 
ATOM     18  F   UNL     1       4.749   6.212  16.006  0.00  0.00    +0.000 F 
ATOM     19  F   UNL     1       6.010   4.843  17.120  0.00  0.00    +0.000 F 
ATOM     20  F   UNL     1       4.901   4.135  15.388  0.00  0.00    +0.000 F 
ENDBRANCH  14  17
ENDBRANCH   3   7
BRANCH   1  27
ATOM     21  C   UNL     1      -1.339  10.965  23.235  0.00  0.00    +0.000 C 
ATOM     22  N   UNL     1      -0.802  11.820  22.213  0.00  0.00    +0.000 N 
ATOM     23  C   UNL     1      -0.441  13.122  22.387  0.00  0.00    +0.000 A 
ATOM     24  N   UNL     1       0.098  13.582  21.284  0.00  0.00    +0.000 NA
ATOM     25  N   UNL     1       0.097  12.555  20.371  0.00  0.00    +0.000 NA
ATOM     26  C   UNL     1      -0.456  11.494  20.928  0.00  0.00    +0.000 A 
ATOM     27  N   UNL     1      -0.671  10.269  20.400  0.00  0.00    +0.000 N 
ATOM     28  H   UNL     1      -1.239   9.568  20.877  0.00  0.00    +0.000 HD
ENDBRANCH   1  27
BRANCH   6  29
ATOM     29  C   UNL     1      -1.110  10.256  17.522  0.00  0.00    +0.000 C 
BRANCH  29  30
ATOM     30  N   UNL     1      -0.984  11.718  17.561  0.00  0.00    +0.000 NA
ATOM     31  H   UNL     1      -0.445  12.006  16.743  0.00  0.00    +0.000 HD
ATOM     32  H   UNL     1      -0.409  11.962  18.367  0.00  0.00    +0.000 HD
ENDBRANCH  29  30
ENDBRANCH   6  29
TORSDOF 5
ENDMDL
MODEL 2
REMARK VINA RESULT:      -7.0      0.900      1.157
REMARK  Name = 
REMARK  6 active torsions:
REMARK  status: ('A' for Active; 'I' for Inactive)
REMARK    1  A    between atoms: C_1  and  N_2
REMARK    2  A    between atoms: N_7  and  C_8
REMARK    3  A    between atoms: C_10  and  N_11
REMARK    4  A    between atoms: C_18  and  C_19
REMARK    5  A    between atoms: C_27  and  C_28
REMARK    6  A    between atoms: C_28  and  N_29
REMARK                            x       y       z     vdW  Elec       q    Type
REMARK                         _______ _______ _______ _____ _____    ______ ____
ROOT
ATOM      1  C   UNL     1       0.714   9.134  19.763  0.00  0.00    +0.000 A 
ATOM      2  C   UNL     1       1.549   8.204  20.402  0.00  0.00    +0.000 A 
ATOM      3  C   UNL     1       2.411   7.417  19.653  0.00  0.00    +0.000 A 
ATOM      4  C   UNL     1       2.590   7.681  18.285  0.00  0.00    +0.000 A 
ATOM      5  C   UNL     1       1.804   8.632  17.647  0.00  0.00    +0.000 A 
ATOM      6  C   UNL     1       0.819   9.323  18.363  0.00  0.00    +0.000 A 
ENDROOT
BRANCH   3   7
ATOM      7  N   UNL     1       2.901   6.202  20.243  0.00  0.00    +0.000 N 
ATOM      8  C   UNL     1       4.168   5.713  19.698  0.00  0.00    +0.000 C 
ATOM      9  C   UNL     1       3.743   4.652  18.733  0.00  0.00    +0.000 A 
ATOM     10  C   UNL     1       2.441   4.258  19.060  0.00  0.00    +0.000 A 
ATOM     11  C   UNL     1       1.669   3.463  18.240  0.00  0.00    +0.000 A 
ATOM     12  C   UNL     1       2.242   3.037  17.045  0.00  0.00    +0.000 A 
ATOM     13  C   UNL     1       3.568   3.392  16.720  0.00  0.00    +0.000 A 
ATOM     14  C   UNL     1       4.352   4.196  17.574  0.00  0.00    +0.000 A 
ATOM     15  C   UNL     1       1.952   5.154  20.117  0.00  0.00    +0.000 C 
ATOM     16  O   UNL     1       0.832   5.081  20.598  0.00  0.00    +0.000 OA
BRANCH  14  17
ATOM     17  C   UNL     1       5.738   4.617  17.160  0.00  0.00    +0.000 C 
ATOM     18  F   UNL     1       6.678   4.429  18.124  0.00  0.00    +0.000 F 
ATOM     19  F   UNL     1       6.183   3.934  16.072  0.00  0.00    +0.000 F 
ATOM     20  F   UNL     1       5.796   5.935  16.830  0.00  0.00    +0.000 F 
ENDBRANCH  14  17
ENDBRANCH   3   7
BRANCH   1  27
ATOM     21  C   UNL     1      -1.180  10.652  23.220  0.00  0.00    +0.000 C 
ATOM     22  N   UNL     1      -0.602  11.467  22.187  0.00  0.00    +0.000 N 
ATOM     23  C   UNL     1      -0.293  12.788  22.308  0.00  0.00    +0.000 A 
ATOM     24  N   UNL     1       0.305  13.203  21.218  0.00  0.00    +0.000 NA
ATOM     25  N   UNL     1       0.399  12.126  20.369  0.00  0.00    +0.000 NA
ATOM     26  C   UNL     1      -0.158  11.080  20.950  0.00  0.00    +0.000 A 
ATOM     27  N   UNL     1      -0.299   9.821  20.481  0.00  0.00    +0.000 N 
ATOM     28  H   UNL     1      -0.876   9.129  20.961  0.00  0.00    +0.000 HD
ENDBRANCH   1  27
BRANCH   6  29
ATOM     29  C   UNL     1      -0.124  10.223  17.604  0.00  0.00    +0.000 C 
BRANCH  29  30
ATOM     30  N   UNL     1      -1.509   9.743  17.691  0.00  0.00    +0.000 NA
ATOM     31  H   UNL     1      -1.545   9.028  18.421  0.00  0.00    +0.000 HD
ATOM     32  H   UNL     1      -1.728   9.257  16.822  0.00  0.00    +0.000 HD
ENDBRANCH  29  30
ENDBRANCH   6  29
TORSDOF 5
ENDMDL
MODEL 3
REMARK VINA RESULT:      -7.0      3.938      6.070
REMARK  Name = 
REMARK  6 active torsions:
REMARK  status: ('A' for Active; 'I' for Inactive)
REMARK    1  A    between atoms: C_1  and  N_2
REMARK    2  A    between atoms: N_7  and  C_8
REMARK    3  A    between atoms: C_10  and  N_11
REMARK    4  A    between atoms: C_18  and  C_19
REMARK    5  A    between atoms: C_27  and  C_28
REMARK    6  A    between atoms: C_28  and  N_29
REMARK                            x       y       z     vdW  Elec       q    Type
REMARK                         _______ _______ _______ _____ _____    ______ ____
ROOT
ATOM      1  C   UNL     1      -4.085  12.980  20.225  0.00  0.00    +0.000 A 
ATOM      2  C   UNL     1      -2.741  13.332  20.422  0.00  0.00    +0.000 A 
ATOM      3  C   UNL     1      -1.741  12.668  19.726  0.00  0.00    +0.000 A 
ATOM      4  C   UNL     1      -2.080  11.783  18.689  0.00  0.00    +0.000 A 
ATOM      5  C   UNL     1      -3.409  11.461  18.450  0.00  0.00    +0.000 A 
ATOM      6  C   UNL     1      -4.419  12.007  19.252  0.00  0.00    +0.000 A 
ENDROOT
BRANCH   3   7
ATOM      7  N   UNL     1      -0.406  12.714  20.254  0.00  0.00    +0.000 N 
ATOM      8  C   UNL     1       0.596  11.983  19.476  0.00  0.00    +0.000 C 
ATOM      9  C   UNL     1       0.731  10.691  20.215  0.00  0.00    +0.000 A 
ATOM     10  C   UNL     1       0.238  10.872  21.512  0.00  0.00    +0.000 A 
ATOM     11  C   UNL     1       0.009   9.827  22.382  0.00  0.00    +0.000 A 
ATOM     12  C   UNL     1       0.303   8.545  21.926  0.00  0.00    +0.000 A 
ATOM     13  C   UNL     1       0.839   8.349  20.637  0.00  0.00    +0.000 A 
ATOM     14  C   UNL     1       1.081   9.428  19.761  0.00  0.00    +0.000 A 
ATOM     15  C   UNL     1      -0.363  12.211  21.581  0.00  0.00    +0.000 C 
ATOM     16  O   UNL     1      -0.905  12.656  22.580  0.00  0.00    +0.000 OA
BRANCH  14  17
ATOM     17  C   UNL     1       1.584   9.174  18.364  0.00  0.00    +0.000 C 
ATOM     18  F   UNL     1       2.582  10.014  17.980  0.00  0.00    +0.000 F 
ATOM     19  F   UNL     1       2.081   7.917  18.213  0.00  0.00    +0.000 F 
ATOM     20  F   UNL     1       0.602   9.308  17.433  0.00  0.00    +0.000 F 
ENDBRANCH  14  17
ENDBRANCH   3   7
BRANCH   1  27
ATOM     21  C   UNL     1      -7.916  13.091  22.000  0.00  0.00    +0.000 C 
ATOM     22  N   UNL     1      -6.693  12.881  22.724  0.00  0.00    +0.000 N 
ATOM     23  C   UNL     1      -6.602  12.380  23.987  0.00  0.00    +0.000 A 
ATOM     24  N   UNL     1      -5.341  12.226  24.312  0.00  0.00    +0.000 NA
ATOM     25  N   UNL     1      -4.590  12.628  23.232  0.00  0.00    +0.000 NA
ATOM     26  C   UNL     1      -5.407  13.033  22.277  0.00  0.00    +0.000 A 
ATOM     27  N   UNL     1      -5.108  13.515  21.050  0.00  0.00    +0.000 N 
ATOM     28  H   UNL     1      -5.819  13.933  20.449  0.00  0.00    +0.000 HD
ENDBRANCH   1  27
BRANCH   6  29
ATOM     29  C   UNL     1      -5.831  11.505  19.072  0.00  0.00    +0.000 C 
BRANCH  29  30
ATOM     30  N   UNL     1      -6.118  11.210  17.664  0.00  0.00    +0.000 NA
ATOM     31  H   UNL     1      -5.351  11.587  17.103  0.00  0.00    +0.000 HD
ATOM     32  H   UNL     1      -6.943  11.744  17.393  0.00  0.00    +0.000 HD
ENDBRANCH  29  30
ENDBRANCH   6  29
TORSDOF 5
ENDMDL
MODEL 4
REMARK VINA RESULT:      -7.0      3.933      8.052
REMARK  Name = 
REMARK  6 active torsions:
REMARK  status: ('A' for Active; 'I' for Inactive)
REMARK    1  A    between atoms: C_1  and  N_2
REMARK    2  A    between atoms: N_7  and  C_8
REMARK    3  A    between atoms: C_10  and  N_11
REMARK    4  A    between atoms: C_18  and  C_19
REMARK    5  A    between atoms: C_27  and  C_28
REMARK    6  A    between atoms: C_28  and  N_29
REMARK                            x       y       z     vdW  Elec       q    Type
REMARK                         _______ _______ _______ _____ _____    ______ ____
ROOT
ATOM      1  C   UNL     1       2.642   6.750  18.941  0.00  0.00    +0.000 A 
ATOM      2  C   UNL     1       2.558   8.008  18.326  0.00  0.00    +0.000 A 
ATOM      3  C   UNL     1       1.778   9.006  18.892  0.00  0.00    +0.000 A 
ATOM      4  C   UNL     1       1.230   8.825  20.173  0.00  0.00    +0.000 A 
ATOM      5  C   UNL     1       1.346   7.600  20.816  0.00  0.00    +0.000 A 
ATOM      6  C   UNL     1       1.998   6.534  20.184  0.00  0.00    +0.000 A 
ENDROOT
BRANCH   3   7
ATOM      7  N   UNL     1       1.348  10.087  18.049  0.00  0.00    +0.000 N 
ATOM      8  C   UNL     1       1.850  11.409  18.428  0.00  0.00    +0.000 C 
ATOM      9  C   UNL     1       0.706  12.011  19.178  0.00  0.00    +0.000 A 
ATOM     10  C   UNL     1      -0.458  11.315  18.838  0.00  0.00    +0.000 A 
ATOM     11  C   UNL     1      -1.650  11.465  19.515  0.00  0.00    +0.000 A 
ATOM     12  C   UNL     1      -1.669  12.369  20.573  0.00  0.00    +0.000 A 
ATOM     13  C   UNL     1      -0.515  13.110  20.903  0.00  0.00    +0.000 A 
ATOM     14  C   UNL     1       0.695  12.955  20.194  0.00  0.00    +0.000 A 
ATOM     15  C   UNL     1      -0.069  10.168  18.004  0.00  0.00    +0.000 C 
ATOM     16  O   UNL     1      -0.863   9.350  17.570  0.00  0.00    +0.000 OA
BRANCH  14  17
ATOM     17  C   UNL     1       1.927  13.709  20.621  0.00  0.00    +0.000 C 
ATOM     18  F   UNL     1       2.933  12.907  21.065  0.00  0.00    +0.000 F 
ATOM     19  F   UNL     1       2.460  14.446  19.611  0.00  0.00    +0.000 F 
ATOM     20  F   UNL     1       1.670  14.581  21.632  0.00  0.00    +0.000 F 
ENDBRANCH  14  17
ENDBRANCH   3   7
BRANCH   1  27
ATOM     21  C   UNL     1       5.089   4.925  16.022  0.00  0.00    +0.000 C 
ATOM     22  N   UNL     1       5.403   4.983  17.423  0.00  0.00    +0.000 N 
ATOM     23  C   UNL     1       6.633   4.760  17.963  0.00  0.00    +0.000 A 
ATOM     24  N   UNL     1       6.596   4.986  19.254  0.00  0.00    +0.000 NA
ATOM     25  N   UNL     1       5.314   5.373  19.563  0.00  0.00    +0.000 NA
ATOM     26  C   UNL     1       4.591   5.361  18.459  0.00  0.00    +0.000 A 
ATOM     27  N   UNL     1       3.284   5.662  18.294  0.00  0.00    +0.000 N 
ATOM     28  H   UNL     1       2.795   5.478  17.417  0.00  0.00    +0.000 HD
ENDBRANCH   1  27
BRANCH   6  29
ATOM     29  C   UNL     1       1.957   5.175  20.839  0.00  0.00    +0.000 C 
BRANCH  29  30
ATOM     30  N   UNL     1       1.044   4.268  20.135  0.00  0.00    +0.000 NA
ATOM     31  H   UNL     1       0.271   4.827  19.768  0.00  0.00    +0.000 HD
ATOM     32  H   UNL     1       0.625   3.645  20.825  0.00  0.00    +0.000 HD
ENDBRANCH  29  30
ENDBRANCH   6  29
TORSDOF 5
ENDMDL
MODEL 5
REMARK VINA RESULT:      -6.9      5.564      8.553
REMARK  Name = 
REMARK  6 active torsions:
REMARK  status: ('A' for Active; 'I' for Inactive)
REMARK    1  A    between atoms: C_1  and  N_2
REMARK    2  A    between atoms: N_7  and  C_8
REMARK    3  A    between atoms: C_10  and  N_11
REMARK    4  A    between atoms: C_18  and  C_19
REMARK    5  A    between atoms: C_27  and  C_28
REMARK    6  A    between atoms: C_28  and  N_29
REMARK                            x       y       z     vdW  Elec       q    Type
REMARK                         _______ _______ _______ _____ _____    ______ ____
ROOT
ATOM      1  C   UNL     1      -5.511  13.251  21.699  0.00  0.00    +0.000 A 
ATOM      2  C   UNL     1      -4.137  13.132  21.440  0.00  0.00    +0.000 A 
ATOM      3  C   UNL     1      -3.219  13.778  22.255  0.00  0.00    +0.000 A 
ATOM      4  C   UNL     1      -3.648  14.390  23.445  0.00  0.00    +0.000 A 
ATOM      5  C   UNL     1      -5.003  14.474  23.739  0.00  0.00    +0.000 A 
ATOM      6  C   UNL     1      -5.949  13.962  22.843  0.00  0.00    +0.000 A 
ENDROOT
BRANCH   3   7
ATOM      7  N   UNL     1      -1.903  14.019  21.732  0.00  0.00    +0.000 N 
ATOM      8  C   UNL     1      -1.736  13.724  20.308  0.00  0.00    +0.000 C 
ATOM      9  C   UNL     1      -1.101  12.371  20.307  0.00  0.00    +0.000 A 
ATOM     10  C   UNL     1      -0.534  12.151  21.567  0.00  0.00    +0.000 A 
ATOM     11  C   UNL     1      -0.066  10.920  21.977  0.00  0.00    +0.000 A 
ATOM     12  C   UNL     1      -0.164   9.869  21.069  0.00  0.00    +0.000 A 
ATOM     13  C   UNL     1      -0.695  10.084  19.780  0.00  0.00    +0.000 A 
ATOM     14  C   UNL     1      -1.159  11.351  19.369  0.00  0.00    +0.000 A 
ATOM     15  C   UNL     1      -0.927  13.268  22.438  0.00  0.00    +0.000 C 
ATOM     16  O   UNL     1      -0.608  13.350  23.613  0.00  0.00    +0.000 OA
BRANCH  14  17
ATOM     17  C   UNL     1      -1.789  11.526  18.012  0.00  0.00    +0.000 C 
ATOM     18  F   UNL     1      -1.643  10.446  17.198  0.00  0.00    +0.000 F 
ATOM     19  F   UNL     1      -3.126  11.754  18.087  0.00  0.00    +0.000 F 
ATOM     20  F   UNL     1      -1.261  12.580  17.334  0.00  0.00    +0.000 F 
ENDBRANCH  14  17
ENDBRANCH   3   7
BRANCH   1  27
ATOM     21  C   UNL     1      -6.845  10.994  18.387  0.00  0.00    +0.000 C 
ATOM     22  N   UNL     1      -7.207  10.725  19.751  0.00  0.00    +0.000 N 
ATOM     23  C   UNL     1      -7.745   9.560  20.207  0.00  0.00    +0.000 A 
ATOM     24  N   UNL     1      -7.866   9.610  21.512  0.00  0.00    +0.000 NA
ATOM     25  N   UNL     1      -7.386  10.832  21.919  0.00  0.00    +0.000 NA
ATOM     26  C   UNL     1      -6.998  11.510  20.855  0.00  0.00    +0.000 A 
ATOM     27  N   UNL     1      -6.473  12.753  20.782  0.00  0.00    +0.000 N 
ATOM     28  H   UNL     1      -6.343  13.231  19.891  0.00  0.00    +0.000 HD
ENDBRANCH   1  27
BRANCH   6  29
ATOM     29  C   UNL     1      -7.411  14.221  23.114  0.00  0.00    +0.000 C 
BRANCH  29  30
ATOM     30  N   UNL     1      -7.739  14.004  24.528  0.00  0.00    +0.000 NA
ATOM     31  H   UNL     1      -8.741  14.171  24.645  0.00  0.00    +0.000 HD
ATOM     32  H   UNL     1      -7.277  14.731  25.073  0.00  0.00    +0.000 HD
ENDBRANCH  29  30
ENDBRANCH   6  29
TORSDOF 5
ENDMDL
MODEL 6
REMARK VINA RESULT:      -6.9      3.679      5.483
REMARK  Name = 
REMARK  6 active torsions:
REMARK  status: ('A' for Active; 'I' for Inactive)
REMARK    1  A    between atoms: C_1  and  N_2
REMARK    2  A    between atoms: N_7  and  C_8
REMARK    3  A    between atoms: C_10  and  N_11
REMARK    4  A    between atoms: C_18  and  C_19
REMARK    5  A    between atoms: C_27  and  C_28
REMARK    6  A    between atoms: C_28  and  N_29
REMARK                            x       y       z     vdW  Elec       q    Type
REMARK                         _______ _______ _______ _____ _____    ______ ____
ROOT
ATOM      1  C   UNL     1      -3.640  12.335  19.052  0.00  0.00    +0.000 A 
ATOM      2  C   UNL     1      -2.297  12.708  19.218  0.00  0.00    +0.000 A 
ATOM      3  C   UNL     1      -1.284  11.868  18.781  0.00  0.00    +0.000 A 
ATOM      4  C   UNL     1      -1.597  10.740  18.004  0.00  0.00    +0.000 A 
ATOM      5  C   UNL     1      -2.922  10.383  17.790  0.00  0.00    +0.000 A 
ATOM      6  C   UNL     1      -3.953  11.139  18.360  0.00  0.00    +0.000 A 
ENDROOT
BRANCH   3   7
ATOM      7  N   UNL     1       0.025  12.037  19.348  0.00  0.00    +0.000 N 
ATOM      8  C   UNL     1       1.054  11.143  18.813  0.00  0.00    +0.000 C 
ATOM      9  C   UNL     1       1.140  10.061  19.841  0.00  0.00    +0.000 A 
ATOM     10  C   UNL     1       0.588  10.542  21.033  0.00  0.00    +0.000 A 
ATOM     11  C   UNL     1       0.306   9.731  22.112  0.00  0.00    +0.000 A 
ATOM     12  C   UNL     1       0.606   8.377  21.985  0.00  0.00    +0.000 A 
ATOM     13  C   UNL     1       1.201   7.884  20.805  0.00  0.00    +0.000 A 
ATOM     14  C   UNL     1       1.496   8.727  19.713  0.00  0.00    +0.000 A 
ATOM     15  C   UNL     1      -0.000  11.860  20.757  0.00  0.00    +0.000 C 
ATOM     16  O   UNL     1      -0.584  12.527  21.595  0.00  0.00    +0.000 OA
BRANCH  14  17
ATOM     17  C   UNL     1       2.062   8.151  18.441  0.00  0.00    +0.000 C 
ATOM     18  F   UNL     1       1.217   8.236  17.378  0.00  0.00    +0.000 F 
ATOM     19  F   UNL     1       3.206   8.776  18.054  0.00  0.00    +0.000 F 
ATOM     20  F   UNL     1       2.374   6.834  18.569  0.00  0.00    +0.000 F 
ENDBRANCH  14  17
ENDBRANCH   3   7
BRANCH   1  27
ATOM     21  C   UNL     1      -7.607  13.061  20.307  0.00  0.00    +0.000 C 
ATOM     22  N   UNL     1      -6.493  12.886  21.198  0.00  0.00    +0.000 N 
ATOM     23  C   UNL     1      -6.585  12.612  22.529  0.00  0.00    +0.000 A 
ATOM     24  N   UNL     1      -5.387  12.419  23.024  0.00  0.00    +0.000 NA
ATOM     25  N   UNL     1      -4.491  12.562  21.991  0.00  0.00    +0.000 NA
ATOM     26  C   UNL     1      -5.158  12.854  20.891  0.00  0.00    +0.000 A 
ATOM     27  N   UNL     1      -4.686  13.087  19.646  0.00  0.00    +0.000 N 
ATOM     28  H   UNL     1      -5.285  13.446  18.902  0.00  0.00    +0.000 HD
ENDBRANCH   1  27
BRANCH   6  29
ATOM     29  C   UNL     1      -5.368  10.627  18.247  0.00  0.00    +0.000 C 
BRANCH  29  30
ATOM     30  N   UNL     1      -6.186  11.499  17.396  0.00  0.00    +0.000 NA
ATOM     31  H   UNL     1      -7.034  11.735  17.915  0.00  0.00    +0.000 HD
ATOM     32  H   UNL     1      -6.501  10.951  16.595  0.00  0.00    +0.000 HD
ENDBRANCH  29  30
ENDBRANCH   6  29
TORSDOF 5
ENDMDL
MODEL 7
REMARK VINA RESULT:      -6.8      1.809      2.435
REMARK  Name = 
REMARK  6 active torsions:
REMARK  status: ('A' for Active; 'I' for Inactive)
REMARK    1  A    between atoms: C_1  and  N_2
REMARK    2  A    between atoms: N_7  and  C_8
REMARK    3  A    between atoms: C_10  and  N_11
REMARK    4  A    between atoms: C_18  and  C_19
REMARK    5  A    between atoms: C_27  and  C_28
REMARK    6  A    between atoms: C_28  and  N_29
REMARK                            x       y       z     vdW  Elec       q    Type
REMARK                         _______ _______ _______ _____ _____    ______ ____
ROOT
ATOM      1  C   UNL     1       1.110   8.728  19.650  0.00  0.00    +0.000 A 
ATOM      2  C   UNL     1       1.815   7.595  20.082  0.00  0.00    +0.000 A 
ATOM      3  C   UNL     1       2.707   6.965  19.227  0.00  0.00    +0.000 A 
ATOM      4  C   UNL     1       3.048   7.567  18.004  0.00  0.00    +0.000 A 
ATOM      5  C   UNL     1       2.393   8.716  17.583  0.00  0.00    +0.000 A 
ATOM      6  C   UNL     1       1.377   9.273  18.370  0.00  0.00    +0.000 A 
ENDROOT
BRANCH   3   7
ATOM      7  N   UNL     1       3.059   5.600  19.504  0.00  0.00    +0.000 N 
ATOM      8  C   UNL     1       4.481   5.364  19.760  0.00  0.00    +0.000 C 
ATOM      9  C   UNL     1       4.989   4.855  18.449  0.00  0.00    +0.000 A 
ATOM     10  C   UNL     1       3.898   4.397  17.703  0.00  0.00    +0.000 A 
ATOM     11  C   UNL     1       3.985   4.072  16.366  0.00  0.00    +0.000 A 
ATOM     12  C   UNL     1       5.232   4.202  15.761  0.00  0.00    +0.000 A 
ATOM     13  C   UNL     1       6.351   4.623  16.509  0.00  0.00    +0.000 A 
ATOM     14  C   UNL     1       6.251   4.941  17.880  0.00  0.00    +0.000 A 
ATOM     15  C   UNL     1       2.674   4.746  18.437  0.00  0.00    +0.000 C 
ATOM     16  O   UNL     1       1.550   4.502  18.027  0.00  0.00    +0.000 OA
BRANCH  14  17
ATOM     17  C   UNL     1       7.451   5.458  18.629  0.00  0.00    +0.000 C 
ATOM     18  F   UNL     1       7.251   5.574  19.970  0.00  0.00    +0.000 F 
ATOM     19  F   UNL     1       8.537   4.655  18.485  0.00  0.00    +0.000 F 
ATOM     20  F   UNL     1       7.831   6.691  18.199  0.00  0.00    +0.000 F 
ENDBRANCH  14  17
ENDBRANCH   3   7
BRANCH   1  27
ATOM     21  C   UNL     1      -0.744   9.985  23.231  0.00  0.00    +0.000 C 
ATOM     22  N   UNL     1      -0.331  10.870  22.177  0.00  0.00    +0.000 N 
ATOM     23  C   UNL     1      -0.179  12.218  22.296  0.00  0.00    +0.000 A 
ATOM     24  N   UNL     1       0.299  12.709  21.178  0.00  0.00    +0.000 NA
ATOM     25  N   UNL     1       0.471  11.656  20.312  0.00  0.00    +0.000 NA
ATOM     26  C   UNL     1       0.081  10.547  20.911  0.00  0.00    +0.000 A 
ATOM     27  N   UNL     1       0.066   9.282  20.435  0.00  0.00    +0.000 N 
ATOM     28  H   UNL     1      -0.393   8.523  20.939  0.00  0.00    +0.000 HD
ENDBRANCH   1  27
BRANCH   6  29
ATOM     29  C   UNL     1       0.575  10.419  17.804  0.00  0.00    +0.000 C 
BRANCH  29  30
ATOM     30  N   UNL     1      -0.816  10.025  17.550  0.00  0.00    +0.000 NA
ATOM     31  H   UNL     1      -1.036   9.243  18.170  0.00  0.00    +0.000 HD
ATOM     32  H   UNL     1      -0.867   9.646  16.605  0.00  0.00    +0.000 HD
ENDBRANCH  29  30
ENDBRANCH   6  29
TORSDOF 5
ENDMDL
MODEL 8
REMARK VINA RESULT:      -6.7      6.298      8.919
REMARK  Name = 
REMARK  6 active torsions:
REMARK  status: ('A' for Active; 'I' for Inactive)
REMARK    1  A    between atoms: C_1  and  N_2
REMARK    2  A    between atoms: N_7  and  C_8
REMARK    3  A    between atoms: C_10  and  N_11
REMARK    4  A    between atoms: C_18  and  C_19
REMARK    5  A    between atoms: C_27  and  C_28
REMARK    6  A    between atoms: C_28  and  N_29
REMARK                            x       y       z     vdW  Elec       q    Type
REMARK                         _______ _______ _______ _____ _____    ______ ____
ROOT
ATOM      1  C   UNL     1      -2.980  11.893  18.872  0.00  0.00    +0.000 A 
ATOM      2  C   UNL     1      -2.108  12.206  19.927  0.00  0.00    +0.000 A 
ATOM      3  C   UNL     1      -0.950  11.465  20.112  0.00  0.00    +0.000 A 
ATOM      4  C   UNL     1      -0.553  10.533  19.139  0.00  0.00    +0.000 A 
ATOM      5  C   UNL     1      -1.383  10.247  18.064  0.00  0.00    +0.000 A 
ATOM      6  C   UNL     1      -2.629  10.876  17.951  0.00  0.00    +0.000 A 
ENDROOT
BRANCH   3   7
ATOM      7  N   UNL     1      -0.330  11.494  21.408  0.00  0.00    +0.000 N 
ATOM      8  C   UNL     1      -1.257  11.551  22.539  0.00  0.00    +0.000 C 
ATOM      9  C   UNL     1      -1.266  13.001  22.906  0.00  0.00    +0.000 A 
ATOM     10  C   UNL     1      -0.119  13.596  22.371  0.00  0.00    +0.000 A 
ATOM     11  C   UNL     1       0.071  14.961  22.331  0.00  0.00    +0.000 A 
ATOM     12  C   UNL     1      -0.936  15.758  22.867  0.00  0.00    +0.000 A 
ATOM     13  C   UNL     1      -2.080  15.172  23.448  0.00  0.00    +0.000 A 
ATOM     14  C   UNL     1      -2.256  13.773  23.493  0.00  0.00    +0.000 A 
ATOM     15  C   UNL     1       0.554  12.598  21.528  0.00  0.00    +0.000 C 
ATOM     16  O   UNL     1       1.575  12.825  20.898  0.00  0.00    +0.000 OA
BRANCH  14  17
ATOM     17  C   UNL     1      -3.525  13.185  24.054  0.00  0.00    +0.000 C 
ATOM     18  F   UNL     1      -3.563  11.826  24.015  0.00  0.00    +0.000 F 
ATOM     19  F   UNL     1      -3.721  13.524  25.356  0.00  0.00    +0.000 F 
ATOM     20  F   UNL     1      -4.628  13.610  23.381  0.00  0.00    +0.000 F 
ENDBRANCH  14  17
ENDBRANCH   3   7
BRANCH   1  27
ATOM     21  C   UNL     1      -7.024  12.179  17.685  0.00  0.00    +0.000 C 
ATOM     22  N   UNL     1      -6.584  12.072  19.048  0.00  0.00    +0.000 N 
ATOM     23  C   UNL     1      -7.373  11.731  20.105  0.00  0.00    +0.000 A 
ATOM     24  N   UNL     1      -6.642  11.633  21.189  0.00  0.00    +0.000 NA
ATOM     25  N   UNL     1      -5.343  11.907  20.831  0.00  0.00    +0.000 NA
ATOM     26  C   UNL     1      -5.310  12.182  19.540  0.00  0.00    +0.000 A 
ATOM     27  N   UNL     1      -4.252  12.514  18.768  0.00  0.00    +0.000 N 
ATOM     28  H   UNL     1      -4.368  12.847  17.810  0.00  0.00    +0.000 HD
ENDBRANCH   1  27
BRANCH   6  29
ATOM     29  C   UNL     1      -3.572  10.417  16.866  0.00  0.00    +0.000 C 
BRANCH  29  30
ATOM     30  N   UNL     1      -3.670  11.409  15.788  0.00  0.00    +0.000 NA
ATOM     31  H   UNL     1      -4.628  11.764  15.778  0.00  0.00    +0.000 HD
ATOM     32  H   UNL     1      -3.550  10.921  14.901  0.00  0.00    +0.000 HD
ENDBRANCH  29  30
ENDBRANCH   6  29
TORSDOF 5
ENDMDL
MODEL 9
REMARK VINA RESULT:      -6.7      0.787      1.402
REMARK  Name = 
REMARK  6 active torsions:
REMARK  status: ('A' for Active; 'I' for Inactive)
REMARK    1  A    between atoms: C_1  and  N_2
REMARK    2  A    between atoms: N_7  and  C_8
REMARK    3  A    between atoms: C_10  and  N_11
REMARK    4  A    between atoms: C_18  and  C_19
REMARK    5  A    between atoms: C_27  and  C_28
REMARK    6  A    between atoms: C_28  and  N_29
REMARK                            x       y       z     vdW  Elec       q    Type
REMARK                         _______ _______ _______ _____ _____    ______ ____
ROOT
ATOM      1  C   UNL     1       0.783  10.062  19.398  0.00  0.00    +0.000 A 
ATOM      2  C   UNL     1       1.844   9.250  19.827  0.00  0.00    +0.000 A 
ATOM      3  C   UNL     1       2.180   8.111  19.110  0.00  0.00    +0.000 A 
ATOM      4  C   UNL     1       1.589   7.873  17.857  0.00  0.00    +0.000 A 
ATOM      5  C   UNL     1       0.570   8.695  17.397  0.00  0.00    +0.000 A 
ATOM      6  C   UNL     1       0.114   9.758  18.186  0.00  0.00    +0.000 A 
ENDROOT
BRANCH   3   7
ATOM      7  N   UNL     1       2.929   7.086  19.782  0.00  0.00    +0.000 N 
ATOM      8  C   UNL     1       4.006   6.484  18.994  0.00  0.00    +0.000 C 
ATOM      9  C   UNL     1       3.399   5.213  18.493  0.00  0.00    +0.000 A 
ATOM     10  C   UNL     1       2.298   4.905  19.299  0.00  0.00    +0.000 A 
ATOM     11  C   UNL     1       1.383   3.924  18.979  0.00  0.00    +0.000 A 
ATOM     12  C   UNL     1       1.597   3.216  17.799  0.00  0.00    +0.000 A 
ATOM     13  C   UNL     1       2.725   3.487  16.997  0.00  0.00    +0.000 A 
ATOM     14  C   UNL     1       3.660   4.485  17.342  0.00  0.00    +0.000 A 
ATOM     15  C   UNL     1       2.080   6.033  20.215  0.00  0.00    +0.000 C 
ATOM     16  O   UNL     1       1.172   6.076  21.029  0.00  0.00    +0.000 OA
BRANCH  14  17
ATOM     17  C   UNL     1       4.812   4.798  16.423  0.00  0.00    +0.000 C 
ATOM     18  F   UNL     1       4.869   3.997  15.325  0.00  0.00    +0.000 F 
ATOM     19  F   UNL     1       4.765   6.071  15.950  0.00  0.00    +0.000 F 
ATOM     20  F   UNL     1       6.014   4.668  17.044  0.00  0.00    +0.000 F 
ENDBRANCH  14  17
ENDBRANCH   3   7
BRANCH   1  27
ATOM     21  C   UNL     1      -2.173  12.474  21.212  0.00  0.00    +0.000 C 
ATOM     22  N   UNL     1      -1.277  11.610  21.930  0.00  0.00    +0.000 N 
ATOM     23  C   UNL     1      -1.444  11.198  23.218  0.00  0.00    +0.000 A 
ATOM     24  N   UNL     1      -0.502  10.344  23.535  0.00  0.00    +0.000 NA
ATOM     25  N   UNL     1       0.294  10.186  22.425  0.00  0.00    +0.000 NA
ATOM     26  C   UNL     1      -0.168  10.958  21.460  0.00  0.00    +0.000 A 
ATOM     27  N   UNL     1       0.305  11.127  20.205  0.00  0.00    +0.000 N 
ATOM     28  H   UNL     1      -0.049  11.860  19.590  0.00  0.00    +0.000 HD
ENDBRANCH   1  27
BRANCH   6  29
ATOM     29  C   UNL     1      -1.104  10.524  17.730  0.00  0.00    +0.000 C 
BRANCH  29  30
ATOM     30  N   UNL     1      -0.833  11.964  17.655  0.00  0.00    +0.000 NA
ATOM     31  H   UNL     1       0.152  12.084  17.411  0.00  0.00    +0.000 HD
ATOM     32  H   UNL     1      -0.930  12.351  18.594  0.00  0.00    +0.000 HD
ENDBRANCH  29  30
ENDBRANCH   6  29
TORSDOF 5
ENDMDL
