MODEL 1
REMARK VINA RESULT:      -9.0      0.000      0.000
REMARK  Name = 
REMARK  7 active torsions:
REMARK  status: ('A' for Active; 'I' for Inactive)
REMARK    1  A    between atoms: C_1  and  C_2
REMARK    2  A    between atoms: C_2  and  C_3
REMARK    3  A    between atoms: C_2  and  C_4
REMARK    4  A    between atoms: C_2  and  C_19
REMARK    5  A    between atoms: C_4  and  N_5
REMARK    6  A    between atoms: C_6  and  C_8
REMARK    7  A    between atoms: C_22  and  C_23
REMARK                            x       y       z     vdW  Elec       q    Type
REMARK                         _______ _______ _______ _____ _____    ______ ____
ROOT
ATOM      1  C   UNL     1       4.637   5.340  17.432  0.00  0.00    +0.000 C 
ENDROOT
BRANCH   1   2
ATOM      2  N   UNL     1       3.760   6.421  17.856  0.00  0.00    +0.000 N 
ATOM      3  C   UNL     1       3.043   6.371  19.030  0.00  0.00    +0.000 C 
ATOM      4  O   UNL     1       3.043   5.406  19.786  0.00  0.00    +0.000 OA
ATOM      5  H   UNL     1       3.925   7.312  17.399  0.00  0.00    +0.000 HD
BRANCH   3   6
ATOM      6  C   UNL     1       2.255   7.578  19.386  0.00  0.00    +0.000 A 
ATOM      7  C   UNL     1       1.945   8.555  18.447  0.00  0.00    +0.000 A 
ATOM      8  C   UNL     1       1.133   9.629  18.819  0.00  0.00    +0.000 A 
ATOM      9  F   UNL     1       0.846  10.541  17.874  0.00  0.00    +0.000 F 
ATOM     10  C   UNL     1       0.608   9.773  20.105  0.00  0.00    +0.000 A 
ATOM     11  N   UNL     1      -0.196  10.815  20.421  0.00  0.00    +0.000 NA
ATOM     12  C   UNL     1      -0.684  10.895  21.679  0.00  0.00    +0.000 A 
ATOM     13  C   UNL     1      -0.400   9.978  22.670  0.00  0.00    +0.000 A 
ATOM     14  C   UNL     1       0.428   8.910  22.352  0.00  0.00    +0.000 A 
ATOM     15  C   UNL     1       0.940   8.785  21.051  0.00  0.00    +0.000 A 
ATOM     16  C   UNL     1       1.757   7.695  20.690  0.00  0.00    +0.000 A 
ENDBRANCH   3   6
ENDBRANCH   1   2
BRANCH   1  18
ATOM     17  C   UNL     1       6.558   4.549  15.953  0.00  0.00    +0.000 C 
ATOM     18  C   UNL     1       5.839   5.780  16.547  0.00  0.00    +0.000 C 
ATOM     19  C   UNL     1       5.266   6.612  15.376  0.00  0.00    +0.000 C 
BRANCH  18  20
ATOM     20  C   UNL     1       6.838   6.614  17.316  0.00  0.00    +0.000 A 
ATOM     21  C   UNL     1       7.674   6.210  18.335  0.00  0.00    +0.000 A 
ATOM     22  O   UNL     1       8.369   7.286  18.772  0.00  0.00    +0.000 OA
ATOM     23  C   UNL     1       7.924   8.322  17.995  0.00  0.00    +0.000 A 
ATOM     24  N   UNL     1       7.014   7.970  17.102  0.00  0.00    +0.000 NA
BRANCH  23  25
ATOM     25  C   UNL     1       8.499   9.631  18.285  0.00  0.00    +0.000 A 
ATOM     26  C   UNL     1       8.208  10.745  17.481  0.00  0.00    +0.000 A 
ATOM     27  C   UNL     1       8.758  11.995  17.755  0.00  0.00    +0.000 A 
ATOM     28  C   UNL     1       9.615  12.150  18.839  0.00  0.00    +0.000 A 
ATOM     29  C   UNL     1       9.924  11.055  19.648  0.00  0.00    +0.000 A 
ATOM     30  C   UNL     1       9.368   9.802  19.371  0.00  0.00    +0.000 A 
ENDBRANCH  23  25
ENDBRANCH  18  20
ENDBRANCH   1  18
TORSDOF 5
ENDMDL
MODEL 2
REMARK VINA RESULT:      -8.9      3.171      5.899
REMARK  Name = 
REMARK  7 active torsions:
REMARK  status: ('A' for Active; 'I' for Inactive)
REMARK    1  A    between atoms: C_1  and  C_2
REMARK    2  A    between atoms: C_2  and  C_3
REMARK    3  A    between atoms: C_2  and  C_4
REMARK    4  A    between atoms: C_2  and  C_19
REMARK    5  A    between atoms: C_4  and  N_5
REMARK    6  A    between atoms: C_6  and  C_8
REMARK    7  A    between atoms: C_22  and  C_23
REMARK                            x       y       z     vdW  Elec       q    Type
REMARK                         _______ _______ _______ _____ _____    ______ ____
ROOT
ATOM      1  C   UNL     1       6.572   6.549  16.804  0.00  0.00    +0.000 C 
ENDROOT
BRANCH   1   2
ATOM      2  N   UNL     1       5.456   7.017  17.612  0.00  0.00    +0.000 N 
ATOM      3  C   UNL     1       4.254   7.396  17.059  0.00  0.00    +0.000 C 
ATOM      4  O   UNL     1       4.036   7.415  15.853  0.00  0.00    +0.000 OA
ATOM      5  H   UNL     1       5.511   6.782  18.597  0.00  0.00    +0.000 HD
BRANCH   3   6
ATOM      6  C   UNL     1       3.171   7.772  18.003  0.00  0.00    +0.000 A 
ATOM      7  C   UNL     1       2.868   6.998  19.118  0.00  0.00    +0.000 A 
ATOM      8  C   UNL     1       1.893   7.442  20.015  0.00  0.00    +0.000 A 
ATOM      9  F   UNL     1       1.645   6.670  21.086  0.00  0.00    +0.000 F 
ATOM     10  C   UNL     1       1.197   8.642  19.847  0.00  0.00    +0.000 A 
ATOM     11  N   UNL     1       0.277   9.050  20.750  0.00  0.00    +0.000 NA
ATOM     12  C   UNL     1      -0.356  10.227  20.540  0.00  0.00    +0.000 A 
ATOM     13  C   UNL     1      -0.126  11.035  19.446  0.00  0.00    +0.000 A 
ATOM     14  C   UNL     1       0.814  10.617  18.513  0.00  0.00    +0.000 A 
ATOM     15  C   UNL     1       1.503   9.409  18.706  0.00  0.00    +0.000 A 
ATOM     16  C   UNL     1       2.485   8.975  17.794  0.00  0.00    +0.000 A 
ENDBRANCH   3   6
ENDBRANCH   1   2
BRANCH   1  18
ATOM     17  C   UNL     1       6.944   4.615  15.183  0.00  0.00    +0.000 C 
ATOM     18  C   UNL     1       6.665   5.002  16.651  0.00  0.00    +0.000 C 
ATOM     19  C   UNL     1       7.863   4.529  17.507  0.00  0.00    +0.000 C 
BRANCH  18  20
ATOM     20  C   UNL     1       5.407   4.306  17.118  0.00  0.00    +0.000 A 
ATOM     21  C   UNL     1       4.462   3.659  16.350  0.00  0.00    +0.000 A 
ATOM     22  O   UNL     1       3.475   3.218  17.165  0.00  0.00    +0.000 OA
ATOM     23  C   UNL     1       3.859   3.619  18.417  0.00  0.00    +0.000 A 
ATOM     24  N   UNL     1       5.012   4.266  18.443  0.00  0.00    +0.000 NA
BRANCH  23  25
ATOM     25  C   UNL     1       2.939   3.293  19.502  0.00  0.00    +0.000 A 
ATOM     26  C   UNL     1       3.400   2.700  20.688  0.00  0.00    +0.000 A 
ATOM     27  C   UNL     1       2.522   2.385  21.723  0.00  0.00    +0.000 A 
ATOM     28  C   UNL     1       1.165   2.657  21.587  0.00  0.00    +0.000 A 
ATOM     29  C   UNL     1       0.685   3.241  20.414  0.00  0.00    +0.000 A 
ATOM     30  C   UNL     1       1.568   3.557  19.376  0.00  0.00    +0.000 A 
ENDBRANCH  23  25
ENDBRANCH  18  20
ENDBRANCH   1  18
TORSDOF 5
ENDMDL
MODEL 3
REMARK VINA RESULT:      -8.6      3.606      4.724
REMARK  Name = 
REMARK  7 active torsions:
REMARK  status: ('A' for Active; 'I' for Inactive)
REMARK    1  A    between atoms: C_1  and  C_2
REMARK    2  A    between atoms: C_2  and  C_3
REMARK    3  A    between atoms: C_2  and  C_4
REMARK    4  A    between atoms: C_2  and  C_19
REMARK    5  A    between atoms: C_4  and  N_5
REMARK    6  A    between atoms: C_6  and  C_8
REMARK    7  A    between atoms: C_22  and  C_23
REMARK                            x       y       z     vdW  Elec       q    Type
REMARK                         _______ _______ _______ _____ _____    ______ ____
ROOT
ATOM      1  C   UNL     1       2.854   4.665  18.078  0.00  0.00    +0.000 C 
ENDROOT
BRANCH   1   2
ATOM      2  N   UNL     1       2.281   5.836  18.723  0.00  0.00    +0.000 N 
ATOM      3  C   UNL     1       2.597   7.119  18.337  0.00  0.00    +0.000 C 
ATOM      4  O   UNL     1       3.412   7.383  17.460  0.00  0.00    +0.000 OA
ATOM      5  H   UNL     1       1.440   5.660  19.263  0.00  0.00    +0.000 HD
BRANCH   3   6
ATOM      6  C   UNL     1       1.875   8.222  19.021  0.00  0.00    +0.000 A 
ATOM      7  C   UNL     1       1.435   9.347  18.334  0.00  0.00    +0.000 A 
ATOM      8  C   UNL     1       0.692  10.316  19.013  0.00  0.00    +0.000 A 
ATOM      9  F   UNL     1       0.273  11.379  18.305  0.00  0.00    +0.000 F 
ATOM     10  C   UNL     1       0.362  10.210  20.366  0.00  0.00    +0.000 A 
ATOM     11  N   UNL     1      -0.381  11.157  20.983  0.00  0.00    +0.000 NA
ATOM     12  C   UNL     1      -0.677  10.994  22.292  0.00  0.00    +0.000 A 
ATOM     13  C   UNL     1      -0.255   9.917  23.044  0.00  0.00    +0.000 A 
ATOM     14  C   UNL     1       0.512   8.944  22.416  0.00  0.00    +0.000 A 
ATOM     15  C   UNL     1       0.827   9.072  21.054  0.00  0.00    +0.000 A 
ATOM     16  C   UNL     1       1.576   8.086  20.383  0.00  0.00    +0.000 A 
ENDBRANCH   3   6
ENDBRANCH   1   2
BRANCH   1  18
ATOM     17  C   UNL     1       4.652   5.102  19.833  0.00  0.00    +0.000 C 
ATOM     18  C   UNL     1       4.246   4.231  18.625  0.00  0.00    +0.000 C 
ATOM     19  C   UNL     1       4.111   2.769  19.112  0.00  0.00    +0.000 C 
BRANCH  18  20
ATOM     20  C   UNL     1       5.325   4.313  17.569  0.00  0.00    +0.000 A 
ATOM     21  C   UNL     1       6.669   4.560  17.749  0.00  0.00    +0.000 A 
ATOM     22  O   UNL     1       7.266   4.592  16.534  0.00  0.00    +0.000 OA
ATOM     23  C   UNL     1       6.249   4.362  15.645  0.00  0.00    +0.000 A 
ATOM     24  N   UNL     1       5.070   4.180  16.216  0.00  0.00    +0.000 NA
BRANCH  23  25
ATOM     25  C   UNL     1       6.619   4.375  14.234  0.00  0.00    +0.000 A 
ATOM     26  C   UNL     1       6.056   3.462  13.329  0.00  0.00    +0.000 A 
ATOM     27  C   UNL     1       6.410   3.471  11.982  0.00  0.00    +0.000 A 
ATOM     28  C   UNL     1       7.340   4.396  11.518  0.00  0.00    +0.000 A 
ATOM     29  C   UNL     1       7.917   5.309  12.402  0.00  0.00    +0.000 A 
ATOM     30  C   UNL     1       7.558   5.298  13.753  0.00  0.00    +0.000 A 
ENDBRANCH  23  25
ENDBRANCH  18  20
ENDBRANCH   1  18
TORSDOF 5
ENDMDL
MODEL 4
REMARK VINA RESULT:      -8.6      1.152      1.804
REMARK  Name = 
REMARK  7 active torsions:
REMARK  status: ('A' for Active; 'I' for Inactive)
REMARK    1  A    between atoms: C_1  and  C_2
REMARK    2  A    between atoms: C_2  and  C_3
REMARK    3  A    between atoms: C_2  and  C_4
REMARK    4  A    between atoms: C_2  and  C_19
REMARK    5  A    between atoms: C_4  and  N_5
REMARK    6  A    between atoms: C_6  and  C_8
REMARK    7  A    between atoms: C_22  and  C_23
REMARK                            x       y       z     vdW  Elec       q    Type
REMARK                         _______ _______ _______ _____ _____    ______ ____
ROOT
ATOM      1  C   UNL     1       4.737   5.289  17.545  0.00  0.00    +0.000 C 
ENDROOT
BRANCH   1   2
ATOM      2  N   UNL     1       3.820   6.314  18.020  0.00  0.00    +0.000 N 
ATOM      3  C   UNL     1       3.029   6.137  19.132  0.00  0.00    +0.000 C 
ATOM      4  O   UNL     1       2.993   5.099  19.782  0.00  0.00    +0.000 OA
ATOM      5  H   UNL     1       4.003   7.249  17.669  0.00  0.00    +0.000 HD
BRANCH   3   6
ATOM      6  C   UNL     1       2.203   7.295  19.558  0.00  0.00    +0.000 A 
ATOM      7  C   UNL     1       1.601   7.346  20.810  0.00  0.00    +0.000 A 
ATOM      8  C   UNL     1       0.901   8.495  21.187  0.00  0.00    +0.000 A 
ATOM      9  F   UNL     1       0.349   8.505  22.412  0.00  0.00    +0.000 F 
ATOM     10  C   UNL     1       0.775   9.612  20.358  0.00  0.00    +0.000 A 
ATOM     11  N   UNL     1       0.110  10.717  20.769  0.00  0.00    +0.000 NA
ATOM     12  C   UNL     1       0.031  11.772  19.928  0.00  0.00    +0.000 A 
ATOM     13  C   UNL     1       0.581  11.786  18.663  0.00  0.00    +0.000 A 
ATOM     14  C   UNL     1       1.260  10.652  18.235  0.00  0.00    +0.000 A 
ATOM     15  C   UNL     1       1.377   9.543  19.087  0.00  0.00    +0.000 A 
ATOM     16  C   UNL     1       2.087   8.392  18.694  0.00  0.00    +0.000 A 
ENDBRANCH   3   6
ENDBRANCH   1   2
BRANCH   1  18
ATOM     17  C   UNL     1       6.611   4.627  15.946  0.00  0.00    +0.000 C 
ATOM     18  C   UNL     1       5.877   5.806  16.620  0.00  0.00    +0.000 C 
ATOM     19  C   UNL     1       5.215   6.656  15.509  0.00  0.00    +0.000 C 
BRANCH  18  20
ATOM     20  C   UNL     1       6.880   6.653  17.370  0.00  0.00    +0.000 A 
ATOM     21  C   UNL     1       7.745   6.256  18.366  0.00  0.00    +0.000 A 
ATOM     22  O   UNL     1       8.434   7.341  18.794  0.00  0.00    +0.000 OA
ATOM     23  C   UNL     1       7.955   8.374  18.032  0.00  0.00    +0.000 A 
ATOM     24  N   UNL     1       7.029   8.012  17.159  0.00  0.00    +0.000 NA
BRANCH  23  25
ATOM     25  C   UNL     1       8.516   9.690  18.317  0.00  0.00    +0.000 A 
ATOM     26  C   UNL     1       8.241  10.789  17.487  0.00  0.00    +0.000 A 
ATOM     27  C   UNL     1       8.779  12.046  17.755  0.00  0.00    +0.000 A 
ATOM     28  C   UNL     1       9.606  12.223  18.859  0.00  0.00    +0.000 A 
ATOM     29  C   UNL     1       9.898  11.143  19.693  0.00  0.00    +0.000 A 
ATOM     30  C   UNL     1       9.356   9.883  19.422  0.00  0.00    +0.000 A 
ENDBRANCH  23  25
ENDBRANCH  18  20
ENDBRANCH   1  18
TORSDOF 5
ENDMDL
MODEL 5
REMARK VINA RESULT:      -8.6      3.974      4.841
REMARK  Name = 
REMARK  7 active torsions:
REMARK  status: ('A' for Active; 'I' for Inactive)
REMARK    1  A    between atoms: C_1  and  C_2
REMARK    2  A    between atoms: C_2  and  C_3
REMARK    3  A    between atoms: C_2  and  C_4
REMARK    4  A    between atoms: C_2  and  C_19
REMARK    5  A    between atoms: C_4  and  N_5
REMARK    6  A    between atoms: C_6  and  C_8
REMARK    7  A    between atoms: C_22  and  C_23
REMARK                            x       y       z     vdW  Elec       q    Type
REMARK                         _______ _______ _______ _____ _____    ______ ____
ROOT
ATOM      1  C   UNL     1       2.736   4.171  19.841  0.00  0.00    +0.000 C 
ENDROOT
BRANCH   1   2
ATOM      2  N   UNL     1       2.084   5.447  20.094  0.00  0.00    +0.000 N 
ATOM      3  C   UNL     1       2.663   6.649  19.758  0.00  0.00    +0.000 C 
ATOM      4  O   UNL     1       3.782   6.751  19.267  0.00  0.00    +0.000 OA
ATOM      5  H   UNL     1       1.084   5.393  20.259  0.00  0.00    +0.000 HD
BRANCH   3   6
ATOM      6  C   UNL     1       1.854   7.872  19.991  0.00  0.00    +0.000 A 
ATOM      7  C   UNL     1       1.559   8.764  18.967  0.00  0.00    +0.000 A 
ATOM      8  C   UNL     1       0.727   9.855  19.227  0.00  0.00    +0.000 A 
ATOM      9  F   UNL     1       0.456  10.681  18.202  0.00  0.00    +0.000 F 
ATOM     10  C   UNL     1       0.166  10.099  20.483  0.00  0.00    +0.000 A 
ATOM     11  N   UNL     1      -0.656  11.154  20.690  0.00  0.00    +0.000 NA
ATOM     12  C   UNL     1      -1.179  11.332  21.924  0.00  0.00    +0.000 A 
ATOM     13  C   UNL     1      -0.913  10.504  22.995  0.00  0.00    +0.000 A 
ATOM     14  C   UNL     1      -0.066   9.423  22.788  0.00  0.00    +0.000 A 
ATOM     15  C   UNL     1       0.483   9.197  21.516  0.00  0.00    +0.000 A 
ATOM     16  C   UNL     1       1.320   8.091  21.268  0.00  0.00    +0.000 A 
ENDBRANCH   3   6
ENDBRANCH   1   2
BRANCH   1  18
ATOM     17  C   UNL     1       2.231   2.169  18.344  0.00  0.00    +0.000 C 
ATOM     18  C   UNL     1       2.630   3.660  18.375  0.00  0.00    +0.000 C 
ATOM     19  C   UNL     1       1.506   4.471  17.687  0.00  0.00    +0.000 C 
BRANCH  18  20
ATOM     20  C   UNL     1       3.922   3.844  17.611  0.00  0.00    +0.000 A 
ATOM     21  C   UNL     1       5.178   4.096  18.121  0.00  0.00    +0.000 A 
ATOM     22  O   UNL     1       6.041   4.237  17.086  0.00  0.00    +0.000 OA
ATOM     23  C   UNL     1       5.267   4.066  15.969  0.00  0.00    +0.000 A 
ATOM     24  N   UNL     1       3.994   3.820  16.230  0.00  0.00    +0.000 NA
BRANCH  23  25
ATOM     25  C   UNL     1       5.956   4.201  14.690  0.00  0.00    +0.000 A 
ATOM     26  C   UNL     1       7.078   5.034  14.557  0.00  0.00    +0.000 A 
ATOM     27  C   UNL     1       7.736   5.166  13.336  0.00  0.00    +0.000 A 
ATOM     28  C   UNL     1       7.277   4.469  12.224  0.00  0.00    +0.000 A 
ATOM     29  C   UNL     1       6.159   3.640  12.332  0.00  0.00    +0.000 A 
ATOM     30  C   UNL     1       5.502   3.508  13.559  0.00  0.00    +0.000 A 
ENDBRANCH  23  25
ENDBRANCH  18  20
ENDBRANCH   1  18
TORSDOF 5
ENDMDL
MODEL 6
REMARK VINA RESULT:      -8.5      3.489      4.802
REMARK  Name = 
REMARK  7 active torsions:
REMARK  status: ('A' for Active; 'I' for Inactive)
REMARK    1  A    between atoms: C_1  and  C_2
REMARK    2  A    between atoms: C_2  and  C_3
REMARK    3  A    between atoms: C_2  and  C_4
REMARK    4  A    between atoms: C_2  and  C_19
REMARK    5  A    between atoms: C_4  and  N_5
REMARK    6  A    between atoms: C_6  and  C_8
REMARK    7  A    between atoms: C_22  and  C_23
REMARK                            x       y       z     vdW  Elec       q    Type
REMARK                         _______ _______ _______ _____ _____    ______ ____
ROOT
ATOM      1  C   UNL     1       3.701   5.208  19.710  0.00  0.00    +0.000 C 
ENDROOT
BRANCH   1   2
ATOM      2  N   UNL     1       3.005   6.484  19.782  0.00  0.00    +0.000 N 
ATOM      3  C   UNL     1       1.859   6.656  20.525  0.00  0.00    +0.000 C 
ATOM      4  O   UNL     1       1.308   5.753  21.144  0.00  0.00    +0.000 OA
ATOM      5  H   UNL     1       3.553   7.289  19.498  0.00  0.00    +0.000 HD
BRANCH   3   6
ATOM      6  C   UNL     1       1.298   8.030  20.581  0.00  0.00    +0.000 A 
ATOM      7  C   UNL     1       1.367   8.897  19.496  0.00  0.00    +0.000 A 
ATOM      8  C   UNL     1       0.752  10.148  19.579  0.00  0.00    +0.000 A 
ATOM      9  F   UNL     1       0.831  10.945  18.501  0.00  0.00    +0.000 F 
ATOM     10  C   UNL     1       0.059  10.579  20.713  0.00  0.00    +0.000 A 
ATOM     11  N   UNL     1      -0.545  11.789  20.745  0.00  0.00    +0.000 NA
ATOM     12  C   UNL     1      -1.212  12.147  21.866  0.00  0.00    +0.000 A 
ATOM     13  C   UNL     1      -1.303  11.352  22.990  0.00  0.00    +0.000 A 
ATOM     14  C   UNL     1      -0.680  10.111  22.962  0.00  0.00    +0.000 A 
ATOM     15  C   UNL     1       0.008   9.699  21.810  0.00  0.00    +0.000 A 
ATOM     16  C   UNL     1       0.622   8.433  21.741  0.00  0.00    +0.000 A 
ENDBRANCH   3   6
ENDBRANCH   1   2
BRANCH   1  18
ATOM     17  C   UNL     1       3.696   2.904  18.617  0.00  0.00    +0.000 C 
ATOM     18  C   UNL     1       3.480   4.415  18.388  0.00  0.00    +0.000 C 
ATOM     19  C   UNL     1       2.008   4.631  17.965  0.00  0.00    +0.000 C 
BRANCH  18  20
ATOM     20  C   UNL     1       4.397   4.885  17.281  0.00  0.00    +0.000 A 
ATOM     21  C   UNL     1       4.971   6.129  17.128  0.00  0.00    +0.000 A 
ATOM     22  O   UNL     1       5.682   6.135  15.975  0.00  0.00    +0.000 OA
ATOM     23  C   UNL     1       5.509   4.877  15.460  0.00  0.00    +0.000 A 
ATOM     24  N   UNL     1       4.756   4.089  16.208  0.00  0.00    +0.000 NA
BRANCH  23  25
ATOM     25  C   UNL     1       6.156   4.619  14.178  0.00  0.00    +0.000 A 
ATOM     26  C   UNL     1       5.651   3.654  13.293  0.00  0.00    +0.000 A 
ATOM     27  C   UNL     1       6.269   3.404  12.070  0.00  0.00    +0.000 A 
ATOM     28  C   UNL     1       7.408   4.116  11.712  0.00  0.00    +0.000 A 
ATOM     29  C   UNL     1       7.931   5.076  12.580  0.00  0.00    +0.000 A 
ATOM     30  C   UNL     1       7.308   5.325  13.806  0.00  0.00    +0.000 A 
ENDBRANCH  23  25
ENDBRANCH  18  20
ENDBRANCH   1  18
TORSDOF 5
ENDMDL
MODEL 7
REMARK VINA RESULT:      -8.5      4.063      5.228
REMARK  Name = 
REMARK  7 active torsions:
REMARK  status: ('A' for Active; 'I' for Inactive)
REMARK    1  A    between atoms: C_1  and  C_2
REMARK    2  A    between atoms: C_2  and  C_3
REMARK    3  A    between atoms: C_2  and  C_4
REMARK    4  A    between atoms: C_2  and  C_19
REMARK    5  A    between atoms: C_4  and  N_5
REMARK    6  A    between atoms: C_6  and  C_8
REMARK    7  A    between atoms: C_22  and  C_23
REMARK                            x       y       z     vdW  Elec       q    Type
REMARK                         _______ _______ _______ _____ _____    ______ ____
ROOT
ATOM      1  C   UNL     1       2.881   6.951  17.913  0.00  0.00    +0.000 C 
ENDROOT
BRANCH   1   2
ATOM      2  N   UNL     1       2.242   7.697  18.986  0.00  0.00    +0.000 N 
ATOM      3  C   UNL     1       1.602   8.896  18.769  0.00  0.00    +0.000 C 
ATOM      4  O   UNL     1       1.557   9.456  17.679  0.00  0.00    +0.000 OA
ATOM      5  H   UNL     1       2.045   7.161  19.824  0.00  0.00    +0.000 HD
BRANCH   3   6
ATOM      6  C   UNL     1       0.917   9.511  19.935  0.00  0.00    +0.000 A 
ATOM      7  C   UNL     1       1.050   8.996  21.219  0.00  0.00    +0.000 A 
ATOM      8  C   UNL     1       0.446   9.661  22.289  0.00  0.00    +0.000 A 
ATOM      9  F   UNL     1       0.615   9.135  23.514  0.00  0.00    +0.000 F 
ATOM     10  C   UNL     1      -0.293  10.835  22.133  0.00  0.00    +0.000 A 
ATOM     11  N   UNL     1      -0.842  11.464  23.198  0.00  0.00    +0.000 NA
ATOM     12  C   UNL     1      -1.537  12.604  22.985  0.00  0.00    +0.000 A 
ATOM     13  C   UNL     1      -1.732  13.161  21.738  0.00  0.00    +0.000 A 
ATOM     14  C   UNL     1      -1.175  12.516  20.642  0.00  0.00    +0.000 A 
ATOM     15  C   UNL     1      -0.433  11.339  20.825  0.00  0.00    +0.000 A 
ATOM     16  C   UNL     1       0.171  10.680  19.737  0.00  0.00    +0.000 A 
ENDBRANCH   3   6
ENDBRANCH   1   2
BRANCH   1  18
ATOM     17  C   UNL     1       3.717   5.417  19.770  0.00  0.00    +0.000 C 
ATOM     18  C   UNL     1       3.304   5.500  18.285  0.00  0.00    +0.000 C 
ATOM     19  C   UNL     1       2.065   4.595  18.082  0.00  0.00    +0.000 C 
BRANCH  18  20
ATOM     20  C   UNL     1       4.441   4.998  17.425  0.00  0.00    +0.000 A 
ATOM     21  C   UNL     1       5.617   4.409  17.835  0.00  0.00    +0.000 A 
ATOM     22  O   UNL     1       6.375   4.155  16.741  0.00  0.00    +0.000 OA
ATOM     23  C   UNL     1       5.621   4.607  15.690  0.00  0.00    +0.000 A 
ATOM     24  N   UNL     1       4.452   5.112  16.046  0.00  0.00    +0.000 NA
BRANCH  23  25
ATOM     25  C   UNL     1       6.229   4.480  14.369  0.00  0.00    +0.000 A 
ATOM     26  C   UNL     1       5.727   3.569  13.426  0.00  0.00    +0.000 A 
ATOM     27  C   UNL     1       6.307   3.445  12.166  0.00  0.00    +0.000 A 
ATOM     28  C   UNL     1       7.404   4.230  11.829  0.00  0.00    +0.000 A 
ATOM     29  C   UNL     1       7.923   5.137  12.754  0.00  0.00    +0.000 A 
ATOM     30  C   UNL     1       7.338   5.261  14.018  0.00  0.00    +0.000 A 
ENDBRANCH  23  25
ENDBRANCH  18  20
ENDBRANCH   1  18
TORSDOF 5
ENDMDL
MODEL 8
REMARK VINA RESULT:      -8.5      1.992      7.137
REMARK  Name = 
REMARK  7 active torsions:
REMARK  status: ('A' for Active; 'I' for Inactive)
REMARK    1  A    between atoms: C_1  and  C_2
REMARK    2  A    between atoms: C_2  and  C_3
REMARK    3  A    between atoms: C_2  and  C_4
REMARK    4  A    between atoms: C_2  and  C_19
REMARK    5  A    between atoms: C_4  and  N_5
REMARK    6  A    between atoms: C_6  and  C_8
REMARK    7  A    between atoms: C_22  and  C_23
REMARK                            x       y       z     vdW  Elec       q    Type
REMARK                         _______ _______ _______ _____ _____    ______ ____
ROOT
ATOM      1  C   UNL     1       7.049   5.933  16.781  0.00  0.00    +0.000 C 
ENDROOT
BRANCH   1   2
ATOM      2  N   UNL     1       7.364   7.334  17.015  0.00  0.00    +0.000 N 
ATOM      3  C   UNL     1       8.047   7.758  18.132  0.00  0.00    +0.000 C 
ATOM      4  O   UNL     1       8.403   7.011  19.036  0.00  0.00    +0.000 OA
ATOM      5  H   UNL     1       7.312   7.929  16.195  0.00  0.00    +0.000 HD
BRANCH   3   6
ATOM      6  C   UNL     1       8.379   9.204  18.206  0.00  0.00    +0.000 A 
ATOM      7  C   UNL     1       7.767  10.141  17.381  0.00  0.00    +0.000 A 
ATOM      8  C   UNL     1       8.060  11.496  17.549  0.00  0.00    +0.000 A 
ATOM      9  F   UNL     1       7.432  12.366  16.740  0.00  0.00    +0.000 F 
ATOM     10  C   UNL     1       8.949  11.966  18.518  0.00  0.00    +0.000 A 
ATOM     11  N   UNL     1       9.188  13.289  18.666  0.00  0.00    +0.000 NA
ATOM     12  C   UNL     1      10.050  13.685  19.630  0.00  0.00    +0.000 A 
ATOM     13  C   UNL     1      10.714  12.813  20.469  0.00  0.00    +0.000 A 
ATOM     14  C   UNL     1      10.475  11.454  20.317  0.00  0.00    +0.000 A 
ATOM     15  C   UNL     1       9.574  11.007  19.338  0.00  0.00    +0.000 A 
ATOM     16  C   UNL     1       9.287   9.636  19.182  0.00  0.00    +0.000 A 
ENDBRANCH   3   6
ENDBRANCH   1   2
BRANCH   1  18
ATOM     17  C   UNL     1       5.374   6.493  14.941  0.00  0.00    +0.000 C 
ATOM     18  C   UNL     1       5.620   5.668  16.223  0.00  0.00    +0.000 C 
ATOM     19  C   UNL     1       5.544   4.169  15.849  0.00  0.00    +0.000 C 
BRANCH  18  20
ATOM     20  C   UNL     1       4.544   5.990  17.235  0.00  0.00    +0.000 A 
ATOM     21  C   UNL     1       3.914   5.126  18.104  0.00  0.00    +0.000 A 
ATOM     22  O   UNL     1       2.983   5.821  18.801  0.00  0.00    +0.000 OA
ATOM     23  C   UNL     1       3.080   7.100  18.321  0.00  0.00    +0.000 A 
ATOM     24  N   UNL     1       4.006   7.255  17.389  0.00  0.00    +0.000 NA
BRANCH  23  25
ATOM     25  C   UNL     1       2.148   8.067  18.891  0.00  0.00    +0.000 A 
ATOM     26  C   UNL     1       1.787   8.012  20.247  0.00  0.00    +0.000 A 
ATOM     27  C   UNL     1       0.895   8.933  20.792  0.00  0.00    +0.000 A 
ATOM     28  C   UNL     1       0.346   9.925  19.987  0.00  0.00    +0.000 A 
ATOM     29  C   UNL     1       0.687   9.994  18.635  0.00  0.00    +0.000 A 
ATOM     30  C   UNL     1       1.583   9.069  18.091  0.00  0.00    +0.000 A 
ENDBRANCH  23  25
ENDBRANCH  18  20
ENDBRANCH   1  18
TORSDOF 5
ENDMDL
MODEL 9
REMARK VINA RESULT:      -8.4      3.774      4.843
REMARK  Name = 
REMARK  7 active torsions:
REMARK  status: ('A' for Active; 'I' for Inactive)
REMARK    1  A    between atoms: C_1  and  C_2
REMARK    2  A    between atoms: C_2  and  C_3
REMARK    3  A    between atoms: C_2  and  C_4
REMARK    4  A    between atoms: C_2  and  C_19
REMARK    5  A    between atoms: C_4  and  N_5
REMARK    6  A    between atoms: C_6  and  C_8
REMARK    7  A    between atoms: C_22  and  C_23
REMARK                            x       y       z     vdW  Elec       q    Type
REMARK                         _______ _______ _______ _____ _____    ______ ____
ROOT
ATOM      1  C   UNL     1       2.444   5.539  17.852  0.00  0.00    +0.000 C 
ENDROOT
BRANCH   1   2
ATOM      2  N   UNL     1       1.975   6.670  18.639  0.00  0.00    +0.000 N 
ATOM      3  C   UNL     1       2.138   7.973  18.226  0.00  0.00    +0.000 C 
ATOM      4  O   UNL     1       2.726   8.292  17.199  0.00  0.00    +0.000 OA
ATOM      5  H   UNL     1       1.283   6.444  19.346  0.00  0.00    +0.000 HD
BRANCH   3   6
ATOM      6  C   UNL     1       1.536   9.027  19.082  0.00  0.00    +0.000 A 
ATOM      7  C   UNL     1       1.367  10.331  18.630  0.00  0.00    +0.000 A 
ATOM      8  C   UNL     1       0.723  11.261  19.449  0.00  0.00    +0.000 A 
ATOM      9  F   UNL     1       0.568  12.505  18.964  0.00  0.00    +0.000 F 
ATOM     10  C   UNL     1       0.231  10.943  20.717  0.00  0.00    +0.000 A 
ATOM     11  N   UNL     1      -0.410  11.866  21.471  0.00  0.00    +0.000 NA
ATOM     12  C   UNL     1      -0.874  11.496  22.686  0.00  0.00    +0.000 A 
ATOM     13  C   UNL     1      -0.722  10.230  23.211  0.00  0.00    +0.000 A 
ATOM     14  C   UNL     1      -0.061   9.281  22.442  0.00  0.00    +0.000 A 
ATOM     15  C   UNL     1       0.421   9.623  21.170  0.00  0.00    +0.000 A 
ATOM     16  C   UNL     1       1.068   8.674  20.354  0.00  0.00    +0.000 A 
ENDBRANCH   3   6
ENDBRANCH   1   2
BRANCH   1  18
ATOM     17  C   UNL     1       4.103   5.424  19.785  0.00  0.00    +0.000 C 
ATOM     18  C   UNL     1       3.617   4.739  18.490  0.00  0.00    +0.000 C 
ATOM     19  C   UNL     1       3.069   3.342  18.863  0.00  0.00    +0.000 C 
BRANCH  18  20
ATOM     20  C   UNL     1       4.784   4.585  17.542  0.00  0.00    +0.000 A 
ATOM     21  C   UNL     1       6.125   4.518  17.854  0.00  0.00    +0.000 A 
ATOM     22  O   UNL     1       6.830   4.427  16.701  0.00  0.00    +0.000 OA
ATOM     23  C   UNL     1       5.879   4.445  15.715  0.00  0.00    +0.000 A 
ATOM     24  N   UNL     1       4.640   4.530  16.167  0.00  0.00    +0.000 NA
BRANCH  23  25
ATOM     25  C   UNL     1       6.380   4.391  14.346  0.00  0.00    +0.000 A 
ATOM     26  C   UNL     1       7.433   5.219  13.926  0.00  0.00    +0.000 A 
ATOM     27  C   UNL     1       7.911   5.170  12.619  0.00  0.00    +0.000 A 
ATOM     28  C   UNL     1       7.338   4.292  11.705  0.00  0.00    +0.000 A 
ATOM     29  C   UNL     1       6.286   3.464  12.099  0.00  0.00    +0.000 A 
ATOM     30  C   UNL     1       5.809   3.514  13.413  0.00  0.00    +0.000 A 
ENDBRANCH  23  25
ENDBRANCH  18  20
ENDBRANCH   1  18
TORSDOF 5
ENDMDL
