MODEL 1
REMARK VINA RESULT:      -6.8      0.000      0.000
REMARK  Name = 
REMARK  6 active torsions:
REMARK  status: ('A' for Active; 'I' for Inactive)
REMARK    1  A    between atoms: C_1  and  N_2
REMARK    2  A    between atoms: C_6  and  C_7
REMARK    3  A    between atoms: C_21  and  C_22
REMARK    4  A    between atoms: C_22  and  C_23
REMARK    5  A    between atoms: C_22  and  C_24
REMARK    6  A    between atoms: C_22  and  C_25
REMARK                            x       y       z     vdW  Elec       q    Type
REMARK                         _______ _______ _______ _____ _____    ______ ____
ROOT
ATOM      1  C   UNL     1       0.793  10.086  19.049  0.00  0.00    +0.000 C 
ATOM      2  C   UNL     1       1.183  11.094  19.897  0.00  0.00    +0.000 C 
ATOM      3  C   UNL     1       0.265  12.293  20.302  0.00  0.00    +0.000 C 
ATOM      4  C   UNL     1       0.014  13.618  19.486  0.00  0.00    +0.000 C 
ATOM      5  C   UNL     1      -0.870  13.209  18.274  0.00  0.00    +0.000 C 
ATOM      6  C   UNL     1      -1.130  11.707  18.581  0.00  0.00    +0.000 C 
ATOM      7  C   UNL     1      -0.538  10.288  18.239  0.00  0.00    +0.000 C 
ATOM      8  N   UNL     1      -1.074  11.725  20.102  0.00  0.00    +0.000 N 
ATOM      9  C   UNL     1      -2.063  12.061  21.038  0.00  0.00    +0.000 A 
ATOM     10  C   UNL     1      -1.647  11.878  22.486  0.00  0.00    +0.000 A 
ATOM     11  C   UNL     1      -2.460  12.197  23.491  0.00  0.00    +0.000 A 
ATOM     12  C   UNL     1      -3.734  12.647  23.177  0.00  0.00    +0.000 A 
ATOM     13  N   UNL     1      -4.735  12.949  23.971  0.00  0.00    +0.000 NA
ATOM     14  N   UNL     1      -5.745  13.432  23.179  0.00  0.00    +0.000 NA
ATOM     15  C   UNL     1      -5.315  13.465  21.924  0.00  0.00    +0.000 A 
ATOM     16  N   UNL     1      -4.059  12.858  21.846  0.00  0.00    +0.000 N 
ATOM     17  N   UNL     1      -3.244  12.549  20.742  0.00  0.00    +0.000 NA
ENDROOT
BRANCH   1  23
ATOM     18  C   UNL     1       1.234   7.888  21.108  0.00  0.00    +0.000 C 
ATOM     19  N   UNL     1       1.796   7.966  19.780  0.00  0.00    +0.000 N 
ATOM     20  N   UNL     1       2.578   6.936  19.362  0.00  0.00    +0.000 NA
ATOM     21  C   UNL     1       2.907   7.267  18.122  0.00  0.00    +0.000 A 
ATOM     22  C   UNL     1       2.376   8.518  17.743  0.00  0.00    +0.000 A 
ATOM     23  C   UNL     1       1.657   8.963  18.834  0.00  0.00    +0.000 A 
ENDBRANCH   1  23
BRANCH  15  24
ATOM     24  C   UNL     1      -6.149  14.139  20.859  0.00  0.00    +0.000 C 
ATOM     25  C   UNL     1      -7.439  14.689  21.529  0.00  0.00    +0.000 C 
ATOM     26  C   UNL     1      -5.448  15.299  20.165  0.00  0.00    +0.000 C 
ATOM     27  C   UNL     1      -6.583  13.083  19.820  0.00  0.00    +0.000 C 
ENDBRANCH  15  24
TORSDOF 2
ENDMDL
MODEL 2
REMARK VINA RESULT:      -6.5      2.952      4.912
REMARK  Name = 
REMARK  6 active torsions:
REMARK  status: ('A' for Active; 'I' for Inactive)
REMARK    1  A    between atoms: C_1  and  N_2
REMARK    2  A    between atoms: C_6  and  C_7
REMARK    3  A    between atoms: C_21  and  C_22
REMARK    4  A    between atoms: C_22  and  C_23
REMARK    5  A    between atoms: C_22  and  C_24
REMARK    6  A    between atoms: C_22  and  C_25
REMARK                            x       y       z     vdW  Elec       q    Type
REMARK                         _______ _______ _______ _____ _____    ______ ____
ROOT
ATOM      1  C   UNL     1       1.636  13.346  20.859  0.00  0.00    +0.000 C 
ATOM      2  C   UNL     1       1.504  12.010  20.573  0.00  0.00    +0.000 C 
ATOM      3  C   UNL     1       0.142  11.244  20.600  0.00  0.00    +0.000 C 
ATOM      4  C   UNL     1      -0.585  10.639  21.861  0.00  0.00    +0.000 C 
ATOM      5  C   UNL     1      -1.128  11.855  22.664  0.00  0.00    +0.000 C 
ATOM      6  C   UNL     1      -0.752  13.034  21.720  0.00  0.00    +0.000 C 
ATOM      7  C   UNL     1       0.404  14.080  21.502  0.00  0.00    +0.000 C 
ATOM      8  N   UNL     1      -0.816  12.334  20.370  0.00  0.00    +0.000 N 
ATOM      9  C   UNL     1      -1.919  12.059  19.547  0.00  0.00    +0.000 A 
ATOM     10  C   UNL     1      -1.568  11.405  18.223  0.00  0.00    +0.000 A 
ATOM     11  C   UNL     1      -2.508  11.044  17.354  0.00  0.00    +0.000 A 
ATOM     12  C   UNL     1      -3.828  11.339  17.664  0.00  0.00    +0.000 A 
ATOM     13  N   UNL     1      -4.916  11.158  16.952  0.00  0.00    +0.000 NA
ATOM     14  N   UNL     1      -5.977  11.528  17.739  0.00  0.00    +0.000 NA
ATOM     15  C   UNL     1      -5.513  11.872  18.934  0.00  0.00    +0.000 A 
ATOM     16  N   UNL     1      -4.116  11.881  18.906  0.00  0.00    +0.000 N 
ATOM     17  N   UNL     1      -3.170  12.278  19.870  0.00  0.00    +0.000 NA
ENDROOT
BRANCH   1  23
ATOM     18  C   UNL     1       2.418  14.872  18.343  0.00  0.00    +0.000 C 
ATOM     19  N   UNL     1       3.203  14.706  19.543  0.00  0.00    +0.000 N 
ATOM     20  N   UNL     1       4.412  15.325  19.600  0.00  0.00    +0.000 NA
ATOM     21  C   UNL     1       4.868  15.028  20.807  0.00  0.00    +0.000 A 
ATOM     22  C   UNL     1       3.984  14.193  21.523  0.00  0.00    +0.000 A 
ATOM     23  C   UNL     1       2.905  13.989  20.686  0.00  0.00    +0.000 A 
ENDBRANCH   1  23
BRANCH  15  24
ATOM     24  C   UNL     1      -6.475  12.135  20.069  0.00  0.00    +0.000 C 
ATOM     25  C   UNL     1      -7.213  10.807  20.398  0.00  0.00    +0.000 C 
ATOM     26  C   UNL     1      -5.808  12.631  21.345  0.00  0.00    +0.000 C 
ATOM     27  C   UNL     1      -7.540  13.150  19.599  0.00  0.00    +0.000 C 
ENDBRANCH  15  24
TORSDOF 2
ENDMDL
MODEL 3
REMARK VINA RESULT:      -6.4      7.886     12.299
REMARK  Name = 
REMARK  6 active torsions:
REMARK  status: ('A' for Active; 'I' for Inactive)
REMARK    1  A    between atoms: C_1  and  N_2
REMARK    2  A    between atoms: C_6  and  C_7
REMARK    3  A    between atoms: C_21  and  C_22
REMARK    4  A    between atoms: C_22  and  C_23
REMARK    5  A    between atoms: C_22  and  C_24
REMARK    6  A    between atoms: C_22  and  C_25
REMARK                            x       y       z     vdW  Elec       q    Type
REMARK                         _______ _______ _______ _____ _____    ______ ____
ROOT
ATOM      1  C   UNL     1       3.694  16.382  19.099  0.00  0.00    +0.000 C 
ATOM      2  C   UNL     1       4.623  17.252  19.614  0.00  0.00    +0.000 C 
ATOM      3  C   UNL     1       6.037  16.817  20.121  0.00  0.00    +0.000 C 
ATOM      4  C   UNL     1       6.399  16.220  21.533  0.00  0.00    +0.000 C 
ATOM      5  C   UNL     1       5.830  14.773  21.542  0.00  0.00    +0.000 C 
ATOM      6  C   UNL     1       5.295  14.648  20.087  0.00  0.00    +0.000 C 
ATOM      7  C   UNL     1       3.960  14.843  19.274  0.00  0.00    +0.000 C 
ATOM      8  N   UNL     1       6.256  15.579  19.362  0.00  0.00    +0.000 N 
ATOM      9  C   UNL     1       7.552  15.341  18.879  0.00  0.00    +0.000 A 
ATOM     10  C   UNL     1       8.170  16.509  18.132  0.00  0.00    +0.000 A 
ATOM     11  C   UNL     1       9.410  16.452  17.654  0.00  0.00    +0.000 A 
ATOM     12  C   UNL     1      10.110  15.263  17.801  0.00  0.00    +0.000 A 
ATOM     13  N   UNL     1      11.301  14.931  17.358  0.00  0.00    +0.000 NA
ATOM     14  N   UNL     1      11.577  13.680  17.848  0.00  0.00    +0.000 NA
ATOM     15  C   UNL     1      10.571  13.302  18.626  0.00  0.00    +0.000 A 
ATOM     16  N   UNL     1       9.538  14.239  18.540  0.00  0.00    +0.000 N 
ATOM     17  N   UNL     1       8.237  14.240  19.077  0.00  0.00    +0.000 NA
ENDROOT
BRANCH   1  23
ATOM     18  C   UNL     1       1.112  16.663  20.688  0.00  0.00    +0.000 C 
ATOM     19  N   UNL     1       1.337  17.040  19.312  0.00  0.00    +0.000 N 
ATOM     20  N   UNL     1       0.311  17.626  18.640  0.00  0.00    +0.000 NA
ATOM     21  C   UNL     1       0.818  17.885  17.444  0.00  0.00    +0.000 A 
ATOM     22  C   UNL     1       2.151  17.442  17.320  0.00  0.00    +0.000 A 
ATOM     23  C   UNL     1       2.475  16.890  18.543  0.00  0.00    +0.000 A 
ENDBRANCH   1  23
BRANCH  15  24
ATOM     24  C   UNL     1      10.692  12.048  19.459  0.00  0.00    +0.000 C 
ATOM     25  C   UNL     1      12.158  11.539  19.360  0.00  0.00    +0.000 C 
ATOM     26  C   UNL     1      10.363  12.248  20.933  0.00  0.00    +0.000 C 
ATOM     27  C   UNL     1       9.784  10.955  18.856  0.00  0.00    +0.000 C 
ENDBRANCH  15  24
TORSDOF 2
ENDMDL
MODEL 4
REMARK VINA RESULT:      -6.3      3.570      5.091
REMARK  Name = 
REMARK  6 active torsions:
REMARK  status: ('A' for Active; 'I' for Inactive)
REMARK    1  A    between atoms: C_1  and  N_2
REMARK    2  A    between atoms: C_6  and  C_7
REMARK    3  A    between atoms: C_21  and  C_22
REMARK    4  A    between atoms: C_22  and  C_23
REMARK    5  A    between atoms: C_22  and  C_24
REMARK    6  A    between atoms: C_22  and  C_25
REMARK                            x       y       z     vdW  Elec       q    Type
REMARK                         _______ _______ _______ _____ _____    ______ ____
ROOT
ATOM      1  C   UNL     1       2.137   7.911  19.047  0.00  0.00    +0.000 C 
ATOM      2  C   UNL     1       1.742   8.549  17.896  0.00  0.00    +0.000 C 
ATOM      3  C   UNL     1       0.940   9.890  17.876  0.00  0.00    +0.000 C 
ATOM      4  C   UNL     1      -0.617  10.071  18.037  0.00  0.00    +0.000 C 
ATOM      5  C   UNL     1      -0.927   9.782  19.533  0.00  0.00    +0.000 C 
ATOM      6  C   UNL     1       0.504   9.574  20.104  0.00  0.00    +0.000 C 
ATOM      7  C   UNL     1       1.524   8.412  20.405  0.00  0.00    +0.000 C 
ATOM      8  N   UNL     1       1.304  10.475  19.173  0.00  0.00    +0.000 N 
ATOM      9  C   UNL     1       1.514  11.861  19.219  0.00  0.00    +0.000 A 
ATOM     10  C   UNL     1       2.446  12.392  18.145  0.00  0.00    +0.000 A 
ATOM     11  C   UNL     1       2.709  13.691  18.031  0.00  0.00    +0.000 A 
ATOM     12  C   UNL     1       2.153  14.552  18.966  0.00  0.00    +0.000 A 
ATOM     13  N   UNL     1       2.315  15.846  19.116  0.00  0.00    +0.000 NA
ATOM     14  N   UNL     1       1.477  16.242  20.126  0.00  0.00    +0.000 NA
ATOM     15  C   UNL     1       0.780  15.189  20.531  0.00  0.00    +0.000 A 
ATOM     16  N   UNL     1       1.260  14.040  19.895  0.00  0.00    +0.000 N 
ATOM     17  N   UNL     1       0.935  12.681  20.063  0.00  0.00    +0.000 NA
ENDROOT
BRANCH   1  23
ATOM     18  C   UNL     1       1.628   5.354  20.619  0.00  0.00    +0.000 C 
ATOM     19  N   UNL     1       2.686   5.598  19.666  0.00  0.00    +0.000 N 
ATOM     20  N   UNL     1       3.537   4.576  19.390  0.00  0.00    +0.000 NA
ATOM     21  C   UNL     1       4.354   5.078  18.476  0.00  0.00    +0.000 A 
ATOM     22  C   UNL     1       4.064   6.427  18.181  0.00  0.00    +0.000 A 
ATOM     23  C   UNL     1       2.977   6.753  18.967  0.00  0.00    +0.000 A 
ENDBRANCH   1  23
BRANCH  15  24
ATOM     24  C   UNL     1      -0.364  15.369  21.501  0.00  0.00    +0.000 C 
ATOM     25  C   UNL     1      -1.693  15.100  20.740  0.00  0.00    +0.000 C 
ATOM     26  C   UNL     1      -0.313  14.433  22.701  0.00  0.00    +0.000 C 
ATOM     27  C   UNL     1      -0.394  16.838  21.975  0.00  0.00    +0.000 C 
ENDBRANCH  15  24
TORSDOF 2
ENDMDL
MODEL 5
REMARK VINA RESULT:      -6.3      7.977     12.408
REMARK  Name = 
REMARK  6 active torsions:
REMARK  status: ('A' for Active; 'I' for Inactive)
REMARK    1  A    between atoms: C_1  and  N_2
REMARK    2  A    between atoms: C_6  and  C_7
REMARK    3  A    between atoms: C_21  and  C_22
REMARK    4  A    between atoms: C_22  and  C_23
REMARK    5  A    between atoms: C_22  and  C_24
REMARK    6  A    between atoms: C_22  and  C_25
REMARK                            x       y       z     vdW  Elec       q    Type
REMARK                         _______ _______ _______ _____ _____    ______ ____
ROOT
ATOM      1  C   UNL     1       3.902  16.563  19.981  0.00  0.00    +0.000 C 
ATOM      2  C   UNL     1       4.930  17.413  20.308  0.00  0.00    +0.000 C 
ATOM      3  C   UNL     1       6.389  16.938  20.608  0.00  0.00    +0.000 C 
ATOM      4  C   UNL     1       6.946  16.380  21.972  0.00  0.00    +0.000 C 
ATOM      5  C   UNL     1       6.335  14.959  22.132  0.00  0.00    +0.000 C 
ATOM      6  C   UNL     1       5.575  14.803  20.783  0.00  0.00    +0.000 C 
ATOM      7  C   UNL     1       4.138  15.022  20.179  0.00  0.00    +0.000 C 
ATOM      8  N   UNL     1       6.444  15.665  19.878  0.00  0.00    +0.000 N 
ATOM      9  C   UNL     1       7.639  15.355  19.212  0.00  0.00    +0.000 A 
ATOM     10  C   UNL     1       8.173  16.469  18.329  0.00  0.00    +0.000 A 
ATOM     11  C   UNL     1       9.321  16.343  17.667  0.00  0.00    +0.000 A 
ATOM     12  C   UNL     1       9.993  15.132  17.755  0.00  0.00    +0.000 A 
ATOM     13  N   UNL     1      11.087  14.735  17.148  0.00  0.00    +0.000 NA
ATOM     14  N   UNL     1      11.392  13.492  17.643  0.00  0.00    +0.000 NA
ATOM     15  C   UNL     1      10.508  13.186  18.583  0.00  0.00    +0.000 A 
ATOM     16  N   UNL     1       9.507  14.161  18.617  0.00  0.00    +0.000 N 
ATOM     17  N   UNL     1       8.307  14.236  19.348  0.00  0.00    +0.000 NA
ENDROOT
BRANCH   1  23
ATOM     18  C   UNL     1       2.958  16.759  17.093  0.00  0.00    +0.000 C 
ATOM     19  N   UNL     1       2.223  17.132  18.279  0.00  0.00    +0.000 N 
ATOM     20  N   UNL     1       0.952  17.584  18.121  0.00  0.00    +0.000 NA
ATOM     21  C   UNL     1       0.534  17.805  19.358  0.00  0.00    +0.000 A 
ATOM     22  C   UNL     1       1.533  17.535  20.317  0.00  0.00    +0.000 A 
ATOM     23  C   UNL     1       2.629  17.100  19.599  0.00  0.00    +0.000 A 
ENDBRANCH   1  23
BRANCH  15  24
ATOM     24  C   UNL     1      10.714  11.959  19.441  0.00  0.00    +0.000 C 
ATOM     25  C   UNL     1      10.467  12.357  20.923  0.00  0.00    +0.000 C 
ATOM     26  C   UNL     1       9.781  10.803  19.103  0.00  0.00    +0.000 C 
ATOM     27  C   UNL     1      12.184  11.506  19.324  0.00  0.00    +0.000 C 
ENDBRANCH  15  24
TORSDOF 2
ENDMDL
MODEL 6
REMARK VINA RESULT:      -6.3      0.992      1.432
REMARK  Name = 
REMARK  6 active torsions:
REMARK  status: ('A' for Active; 'I' for Inactive)
REMARK    1  A    between atoms: C_1  and  N_2
REMARK    2  A    between atoms: C_6  and  C_7
REMARK    3  A    between atoms: C_21  and  C_22
REMARK    4  A    between atoms: C_22  and  C_23
REMARK    5  A    between atoms: C_22  and  C_24
REMARK    6  A    between atoms: C_22  and  C_25
REMARK                            x       y       z     vdW  Elec       q    Type
REMARK                         _______ _______ _______ _____ _____    ______ ____
ROOT
ATOM      1  C   UNL     1       0.260  10.033  20.114  0.00  0.00    +0.000 C 
ATOM      2  C   UNL     1       0.590  10.973  21.060  0.00  0.00    +0.000 C 
ATOM      3  C   UNL     1      -0.233  12.278  21.313  0.00  0.00    +0.000 C 
ATOM      4  C   UNL     1      -0.141  13.631  20.512  0.00  0.00    +0.000 C 
ATOM      5  C   UNL     1      -0.800  13.354  19.131  0.00  0.00    +0.000 C 
ATOM      6  C   UNL     1      -1.305  11.895  19.323  0.00  0.00    +0.000 C 
ATOM      7  C   UNL     1      -0.839  10.415  19.058  0.00  0.00    +0.000 C 
ATOM      8  N   UNL     1      -1.562  11.891  20.824  0.00  0.00    +0.000 N 
ATOM      9  C   UNL     1      -2.674  12.345  21.550  0.00  0.00    +0.000 A 
ATOM     10  C   UNL     1      -2.592  12.095  23.045  0.00  0.00    +0.000 A 
ATOM     11  C   UNL     1      -3.548  12.508  23.874  0.00  0.00    +0.000 A 
ATOM     12  C   UNL     1      -4.664  13.124  23.324  0.00  0.00    +0.000 A 
ATOM     13  N   UNL     1      -5.761  13.547  23.908  0.00  0.00    +0.000 NA
ATOM     14  N   UNL     1      -6.516  14.164  22.944  0.00  0.00    +0.000 NA
ATOM     15  C   UNL     1      -5.835  14.154  21.806  0.00  0.00    +0.000 A 
ATOM     16  N   UNL     1      -4.677  13.388  21.963  0.00  0.00    +0.000 N 
ATOM     17  N   UNL     1      -3.696  12.985  21.037  0.00  0.00    +0.000 NA
ENDROOT
BRANCH   1  23
ATOM     18  C   UNL     1       2.070   9.302  17.777  0.00  0.00    +0.000 C 
ATOM     19  N   UNL     1       1.843   8.535  18.980  0.00  0.00    +0.000 N 
ATOM     20  N   UNL     1       2.535   7.375  19.130  0.00  0.00    +0.000 NA
ATOM     21  C   UNL     1       2.154   6.927  20.318  0.00  0.00    +0.000 A 
ATOM     22  C   UNL     1       1.196   7.766  20.925  0.00  0.00    +0.000 A 
ATOM     23  C   UNL     1       1.001   8.808  20.040  0.00  0.00    +0.000 A 
ENDBRANCH   1  23
BRANCH  15  24
ATOM     24  C   UNL     1      -6.339  14.940  20.618  0.00  0.00    +0.000 C 
ATOM     25  C   UNL     1      -7.706  15.575  21.001  0.00  0.00    +0.000 C 
ATOM     26  C   UNL     1      -5.408  16.061  20.176  0.00  0.00    +0.000 C 
ATOM     27  C   UNL     1      -6.594  13.969  19.445  0.00  0.00    +0.000 C 
ENDBRANCH  15  24
TORSDOF 2
ENDMDL
MODEL 7
REMARK VINA RESULT:      -6.3      3.075      7.980
REMARK  Name = 
REMARK  6 active torsions:
REMARK  status: ('A' for Active; 'I' for Inactive)
REMARK    1  A    between atoms: C_1  and  N_2
REMARK    2  A    between atoms: C_6  and  C_7
REMARK    3  A    between atoms: C_21  and  C_22
REMARK    4  A    between atoms: C_22  and  C_23
REMARK    5  A    between atoms: C_22  and  C_24
REMARK    6  A    between atoms: C_22  and  C_25
REMARK                            x       y       z     vdW  Elec       q    Type
REMARK                         _______ _______ _______ _____ _____    ______ ____
ROOT
ATOM      1  C   UNL     1      -1.279  15.137  23.841  0.00  0.00    +0.000 C 
ATOM      2  C   UNL     1      -2.231  14.147  23.856  0.00  0.00    +0.000 C 
ATOM      3  C   UNL     1      -2.316  13.005  22.793  0.00  0.00    +0.000 C 
ATOM      4  C   UNL     1      -2.987  13.078  21.369  0.00  0.00    +0.000 C 
ATOM      5  C   UNL     1      -2.049  13.964  20.501  0.00  0.00    +0.000 C 
ATOM      6  C   UNL     1      -0.874  14.218  21.488  0.00  0.00    +0.000 C 
ATOM      7  C   UNL     1      -0.400  15.283  22.547  0.00  0.00    +0.000 C 
ATOM      8  N   UNL     1      -0.929  12.941  22.314  0.00  0.00    +0.000 N 
ATOM      9  C   UNL     1      -0.397  11.670  22.047  0.00  0.00    +0.000 A 
ATOM     10  C   UNL     1      -0.595  10.659  23.162  0.00  0.00    +0.000 A 
ATOM     11  C   UNL     1      -0.186   9.399  23.041  0.00  0.00    +0.000 A 
ATOM     12  C   UNL     1       0.488   9.043  21.881  0.00  0.00    +0.000 A 
ATOM     13  N   UNL     1       1.051   7.903  21.555  0.00  0.00    +0.000 NA
ATOM     14  N   UNL     1       1.504   8.032  20.267  0.00  0.00    +0.000 NA
ATOM     15  C   UNL     1       1.156   9.231  19.818  0.00  0.00    +0.000 A 
ATOM     16  N   UNL     1       0.598   9.975  20.861  0.00  0.00    +0.000 N 
ATOM     17  N   UNL     1       0.181  11.318  20.925  0.00  0.00    +0.000 NA
ENDROOT
BRANCH   1  23
ATOM     18  C   UNL     1      -2.637  17.862  23.816  0.00  0.00    +0.000 C 
ATOM     19  N   UNL     1      -1.870  17.278  24.891  0.00  0.00    +0.000 N 
ATOM     20  N   UNL     1      -1.762  17.984  26.048  0.00  0.00    +0.000 NA
ATOM     21  C   UNL     1      -1.050  17.194  26.839  0.00  0.00    +0.000 A 
ATOM     22  C   UNL     1      -0.666  15.999  26.197  0.00  0.00    +0.000 A 
ATOM     23  C   UNL     1      -1.204  16.068  24.927  0.00  0.00    +0.000 A 
ENDBRANCH   1  23
BRANCH  15  24
ATOM     24  C   UNL     1       1.352   9.576  18.360  0.00  0.00    +0.000 C 
ATOM     25  C   UNL     1      -0.050   9.719  17.703  0.00  0.00    +0.000 C 
ATOM     26  C   UNL     1       2.115  10.873  18.127  0.00  0.00    +0.000 C 
ATOM     27  C   UNL     1       2.071   8.404  17.659  0.00  0.00    +0.000 C 
ENDBRANCH  15  24
TORSDOF 2
ENDMDL
MODEL 8
REMARK VINA RESULT:      -6.2      2.935      4.658
REMARK  Name = 
REMARK  6 active torsions:
REMARK  status: ('A' for Active; 'I' for Inactive)
REMARK    1  A    between atoms: C_1  and  N_2
REMARK    2  A    between atoms: C_6  and  C_7
REMARK    3  A    between atoms: C_21  and  C_22
REMARK    4  A    between atoms: C_22  and  C_23
REMARK    5  A    between atoms: C_22  and  C_24
REMARK    6  A    between atoms: C_22  and  C_25
REMARK                            x       y       z     vdW  Elec       q    Type
REMARK                         _______ _______ _______ _____ _____    ______ ____
ROOT
ATOM      1  C   UNL     1       1.678  13.719  19.834  0.00  0.00    +0.000 C 
ATOM      2  C   UNL     1       1.511  12.357  19.763  0.00  0.00    +0.000 C 
ATOM      3  C   UNL     1       0.183  11.623  20.135  0.00  0.00    +0.000 C 
ATOM      4  C   UNL     1      -0.304  11.207  21.575  0.00  0.00    +0.000 C 
ATOM      5  C   UNL     1      -0.708  12.530  22.286  0.00  0.00    +0.000 C 
ATOM      6  C   UNL     1      -0.517  13.561  21.138  0.00  0.00    +0.000 C 
ATOM      7  C   UNL     1       0.571  14.551  20.578  0.00  0.00    +0.000 C 
ATOM      8  N   UNL     1      -0.812  12.684  19.930  0.00  0.00    +0.000 N 
ATOM      9  C   UNL     1      -2.040  12.314  19.360  0.00  0.00    +0.000 A 
ATOM     10  C   UNL     1      -1.921  11.480  18.098  0.00  0.00    +0.000 A 
ATOM     11  C   UNL     1      -2.997  11.015  17.466  0.00  0.00    +0.000 A 
ATOM     12  C   UNL     1      -4.244  11.369  17.961  0.00  0.00    +0.000 A 
ATOM     13  N   UNL     1      -5.439  11.107  17.484  0.00  0.00    +0.000 NA
ATOM     14  N   UNL     1      -6.348  11.597  18.388  0.00  0.00    +0.000 NA
ATOM     15  C   UNL     1      -5.684  12.095  19.423  0.00  0.00    +0.000 A 
ATOM     16  N   UNL     1      -4.314  12.081  19.148  0.00  0.00    +0.000 N 
ATOM     17  N   UNL     1      -3.217  12.593  19.865  0.00  0.00    +0.000 NA
ENDROOT
BRANCH   1  23
ATOM     18  C   UNL     1       4.075  14.324  21.611  0.00  0.00    +0.000 C 
ATOM     19  N   UNL     1       3.969  14.533  20.186  0.00  0.00    +0.000 N 
ATOM     20  N   UNL     1       5.060  15.012  19.534  0.00  0.00    +0.000 NA
ATOM     21  C   UNL     1       4.680  15.061  18.266  0.00  0.00    +0.000 A 
ATOM     22  C   UNL     1       3.341  14.652  18.092  0.00  0.00    +0.000 A 
ATOM     23  C   UNL     1       2.889  14.314  19.353  0.00  0.00    +0.000 A 
ENDBRANCH   1  23
BRANCH  15  24
ATOM     24  C   UNL     1      -6.433  12.526  20.662  0.00  0.00    +0.000 C 
ATOM     25  C   UNL     1      -7.507  11.448  20.979  0.00  0.00    +0.000 C 
ATOM     26  C   UNL     1      -5.552  12.688  21.894  0.00  0.00    +0.000 C 
ATOM     27  C   UNL     1      -7.178  13.845  20.365  0.00  0.00    +0.000 C 
ENDBRANCH  15  24
TORSDOF 2
ENDMDL
MODEL 9
REMARK VINA RESULT:      -6.0      3.736      5.314
REMARK  Name = 
REMARK  6 active torsions:
REMARK  status: ('A' for Active; 'I' for Inactive)
REMARK    1  A    between atoms: C_1  and  N_2
REMARK    2  A    between atoms: C_6  and  C_7
REMARK    3  A    between atoms: C_21  and  C_22
REMARK    4  A    between atoms: C_22  and  C_23
REMARK    5  A    between atoms: C_22  and  C_24
REMARK    6  A    between atoms: C_22  and  C_25
REMARK                            x       y       z     vdW  Elec       q    Type
REMARK                         _______ _______ _______ _____ _____    ______ ____
ROOT
ATOM      1  C   UNL     1       1.837   7.934  19.283  0.00  0.00    +0.000 C 
ATOM      2  C   UNL     1       1.512   8.537  18.092  0.00  0.00    +0.000 C 
ATOM      3  C   UNL     1       0.824   9.936  17.985  0.00  0.00    +0.000 C 
ATOM      4  C   UNL     1      -0.715  10.253  18.108  0.00  0.00    +0.000 C 
ATOM      5  C   UNL     1      -1.068  10.073  19.612  0.00  0.00    +0.000 C 
ATOM      6  C   UNL     1       0.334   9.780  20.219  0.00  0.00    +0.000 C 
ATOM      7  C   UNL     1       1.249   8.557  20.600  0.00  0.00    +0.000 C 
ATOM      8  N   UNL     1       1.218  10.559  19.255  0.00  0.00    +0.000 N 
ATOM      9  C   UNL     1       1.542  11.924  19.230  0.00  0.00    +0.000 A 
ATOM     10  C   UNL     1       2.529  12.317  18.146  0.00  0.00    +0.000 A 
ATOM     11  C   UNL     1       2.900  13.582  17.967  0.00  0.00    +0.000 A 
ATOM     12  C   UNL     1       2.405  14.535  18.844  0.00  0.00    +0.000 A 
ATOM     13  N   UNL     1       2.672  15.818  18.927  0.00  0.00    +0.000 NA
ATOM     14  N   UNL     1       1.856  16.337  19.900  0.00  0.00    +0.000 NA
ATOM     15  C   UNL     1       1.069  15.368  20.348  0.00  0.00    +0.000 A 
ATOM     16  N   UNL     1       1.460  14.151  19.783  0.00  0.00    +0.000 N 
ATOM     17  N   UNL     1       1.022  12.835  20.018  0.00  0.00    +0.000 NA
ENDROOT
BRANCH   1  23
ATOM     18  C   UNL     1       4.113   7.351  17.346  0.00  0.00    +0.000 C 
ATOM     19  N   UNL     1       3.632   6.501  18.411  0.00  0.00    +0.000 N 
ATOM     20  N   UNL     1       4.276   5.323  18.620  0.00  0.00    +0.000 NA
ATOM     21  C   UNL     1       3.647   4.795  19.660  0.00  0.00    +0.000 A 
ATOM     22  C   UNL     1       2.579   5.601  20.105  0.00  0.00    +0.000 A 
ATOM     23  C   UNL     1       2.578   6.708  19.280  0.00  0.00    +0.000 A 
ENDBRANCH   1  23
BRANCH  15  24
ATOM     24  C   UNL     1      -0.069  15.695  21.286  0.00  0.00    +0.000 C 
ATOM     25  C   UNL     1      -1.406  15.394  20.552  0.00  0.00    +0.000 C 
ATOM     26  C   UNL     1      -0.055  14.894  22.581  0.00  0.00    +0.000 C 
ATOM     27  C   UNL     1      -0.045  17.207  21.597  0.00  0.00    +0.000 C 
ENDBRANCH  15  24
TORSDOF 2
ENDMDL
