MODEL 1
REMARK VINA RESULT:      -8.9      0.000      0.000
REMARK  Name = 
REMARK  8 active torsions:
REMARK  status: ('A' for Active; 'I' for Inactive)
REMARK    1  A    between atoms: C_1  and  N_2
REMARK    2  A    between atoms: N_2  and  C_3
REMARK    3  A    between atoms: C_3  and  C_4
REMARK    4  A    between atoms: C_3  and  C_25
REMARK    5  A    between atoms: C_4  and  C_5
REMARK    6  A    between atoms: C_9  and  N_10
REMARK    7  A    between atoms: C_17  and  C_18
REMARK    8  A    between atoms: N_29  and  C_30
REMARK                            x       y       z     vdW  Elec       q    Type
REMARK                         _______ _______ _______ _____ _____    ______ ____
ROOT
ATOM      1  C   UNL     1       4.245   4.531  17.792  0.00  0.00    +0.000 A 
ATOM      2  C   UNL     1       4.128   3.503  18.718  0.00  0.00    +0.000 A 
ATOM      3  C   UNL     1       3.258   3.670  19.784  0.00  0.00    +0.000 A 
ATOM      4  C   UNL     1       2.567   4.871  19.921  0.00  0.00    +0.000 A 
ATOM      5  C   UNL     1       2.781   5.893  18.996  0.00  0.00    +0.000 A 
ATOM      6  N   UNL     1       3.575   5.700  17.925  0.00  0.00    +0.000 NA
ENDROOT
BRANCH   5   7
ATOM      7  N   UNL     1       2.192   7.160  19.188  0.00  0.00    +0.000 N 
ATOM      8  C   UNL     1       1.553   7.554  20.428  0.00  0.00    +0.000 C 
ATOM      9  C   UNL     1       1.222   8.996  20.208  0.00  0.00    +0.000 A 
ATOM     10  C   UNL     1       1.638   9.369  18.932  0.00  0.00    +0.000 A 
ATOM     11  C   UNL     1       1.483  10.651  18.442  0.00  0.00    +0.000 A 
ATOM     12  C   UNL     1       0.871  11.588  19.273  0.00  0.00    +0.000 A 
ATOM     13  C   UNL     1       0.440  11.227  20.563  0.00  0.00    +0.000 A 
ATOM     14  C   UNL     1       0.615   9.917  21.060  0.00  0.00    +0.000 A 
ATOM     15  C   UNL     1       2.246   8.205  18.268  0.00  0.00    +0.000 C 
ATOM     16  O   UNL     1       2.662   8.276  17.125  0.00  0.00    +0.000 OA
BRANCH  14  17
ATOM     17  C   UNL     1       0.161   9.575  22.453  0.00  0.00    +0.000 C 
ATOM     18  F   UNL     1      -0.764   8.576  22.496  0.00  0.00    +0.000 F 
ATOM     19  F   UNL     1       1.185   9.166  23.251  0.00  0.00    +0.000 F 
ATOM     20  F   UNL     1      -0.411  10.635  23.088  0.00  0.00    +0.000 F 
ENDBRANCH  14  17
ENDBRANCH   5   7
BRANCH   1  21
ATOM     21  C   UNL     1       5.081   4.360  16.548  0.00  0.00    +0.000 C 
BRANCH  21  22
ATOM     22  C   UNL     1       6.296   5.301  16.383  0.00  0.00    +0.000 C 
BRANCH  22  23
ATOM     23  C   UNL     1       7.048   5.494  17.670  0.00  0.00    +0.000 A 
ATOM     24  N   UNL     1       7.388   4.547  18.527  0.00  0.00    +0.000 NA
ATOM     25  N   UNL     1       8.154   5.108  19.520  0.00  0.00    +0.000 NA
ATOM     26  C   UNL     1       8.246   6.391  19.267  0.00  0.00    +0.000 A 
ATOM     27  N   UNL     1       7.587   6.681  18.110  0.00  0.00    +0.000 N 
ATOM     28  C   UNL     1       7.538   7.973  17.485  0.00  0.00    +0.000 C 
ENDBRANCH  22  23
BRANCH  22  30
ATOM     29  C   UNL     1       6.423   4.139  14.226  0.00  0.00    +0.000 C 
ATOM     30  N   UNL     1       7.170   4.841  15.272  0.00  0.00    +0.000 NA
ATOM     31  H   UNL     1       7.549   5.690  14.839  0.00  0.00    +0.000 HD
ENDBRANCH  22  30
ENDBRANCH  21  22
ENDBRANCH   1  21
TORSDOF 6
ENDMDL
MODEL 2
REMARK VINA RESULT:      -8.8      1.138      2.254
REMARK  Name = 
REMARK  8 active torsions:
REMARK  status: ('A' for Active; 'I' for Inactive)
REMARK    1  A    between atoms: C_1  and  N_2
REMARK    2  A    between atoms: N_2  and  C_3
REMARK    3  A    between atoms: C_3  and  C_4
REMARK    4  A    between atoms: C_3  and  C_25
REMARK    5  A    between atoms: C_4  and  C_5
REMARK    6  A    between atoms: C_9  and  N_10
REMARK    7  A    between atoms: C_17  and  C_18
REMARK    8  A    between atoms: N_29  and  C_30
REMARK                            x       y       z     vdW  Elec       q    Type
REMARK                         _______ _______ _______ _____ _____    ______ ____
ROOT
ATOM      1  C   UNL     1       5.033   5.274  19.047  0.00  0.00    +0.000 A 
ATOM      2  C   UNL     1       4.460   4.017  18.905  0.00  0.00    +0.000 A 
ATOM      3  C   UNL     1       3.081   3.928  18.793  0.00  0.00    +0.000 A 
ATOM      4  C   UNL     1       2.313   5.088  18.872  0.00  0.00    +0.000 A 
ATOM      5  C   UNL     1       2.943   6.313  19.087  0.00  0.00    +0.000 A 
ATOM      6  N   UNL     1       4.288   6.401  19.127  0.00  0.00    +0.000 NA
ENDROOT
BRANCH   5   7
ATOM      7  N   UNL     1       2.178   7.479  19.300  0.00  0.00    +0.000 N 
ATOM      8  C   UNL     1       1.515   7.768  20.556  0.00  0.00    +0.000 C 
ATOM      9  C   UNL     1       0.970   9.146  20.354  0.00  0.00    +0.000 A 
ATOM     10  C   UNL     1       1.299   9.582  19.072  0.00  0.00    +0.000 A 
ATOM     11  C   UNL     1       0.946  10.829  18.595  0.00  0.00    +0.000 A 
ATOM     12  C   UNL     1       0.220  11.662  19.445  0.00  0.00    +0.000 A 
ATOM     13  C   UNL     1      -0.125  11.236  20.742  0.00  0.00    +0.000 A 
ATOM     14  C   UNL     1       0.252   9.964  21.225  0.00  0.00    +0.000 A 
ATOM     15  C   UNL     1       2.057   8.524  18.387  0.00  0.00    +0.000 C 
ATOM     16  O   UNL     1       2.434   8.660  17.237  0.00  0.00    +0.000 OA
BRANCH  14  17
ATOM     17  C   UNL     1      -0.116   9.553  22.624  0.00  0.00    +0.000 C 
ATOM     18  F   UNL     1      -0.897   8.439  22.678  0.00  0.00    +0.000 F 
ATOM     19  F   UNL     1       0.974   9.279  23.393  0.00  0.00    +0.000 F 
ATOM     20  F   UNL     1      -0.809  10.521  23.285  0.00  0.00    +0.000 F 
ENDBRANCH  14  17
ENDBRANCH   5   7
BRANCH   1  21
ATOM     21  C   UNL     1       6.532   5.445  19.051  0.00  0.00    +0.000 C 
BRANCH  21  22
ATOM     22  C   UNL     1       7.164   6.135  17.821  0.00  0.00    +0.000 C 
BRANCH  22  23
ATOM     23  C   UNL     1       6.873   5.402  16.542  0.00  0.00    +0.000 A 
ATOM     24  N   UNL     1       7.476   4.308  16.112  0.00  0.00    +0.000 NA
ATOM     25  N   UNL     1       6.857   3.888  14.960  0.00  0.00    +0.000 NA
ATOM     26  C   UNL     1       5.904   4.748  14.692  0.00  0.00    +0.000 A 
ATOM     27  N   UNL     1       5.860   5.704  15.661  0.00  0.00    +0.000 N 
ATOM     28  C   UNL     1       4.895   6.766  15.736  0.00  0.00    +0.000 C 
ENDBRANCH  22  23
BRANCH  22  30
ATOM     29  C   UNL     1       7.929   8.463  17.705  0.00  0.00    +0.000 C 
ATOM     30  N   UNL     1       6.772   7.567  17.763  0.00  0.00    +0.000 NA
ATOM     31  H   UNL     1       6.266   7.688  16.880  0.00  0.00    +0.000 HD
ENDBRANCH  22  30
ENDBRANCH  21  22
ENDBRANCH   1  21
TORSDOF 6
ENDMDL
MODEL 3
REMARK VINA RESULT:      -8.8      0.943      1.591
REMARK  Name = 
REMARK  8 active torsions:
REMARK  status: ('A' for Active; 'I' for Inactive)
REMARK    1  A    between atoms: C_1  and  N_2
REMARK    2  A    between atoms: N_2  and  C_3
REMARK    3  A    between atoms: C_3  and  C_4
REMARK    4  A    between atoms: C_3  and  C_25
REMARK    5  A    between atoms: C_4  and  C_5
REMARK    6  A    between atoms: C_9  and  N_10
REMARK    7  A    between atoms: C_17  and  C_18
REMARK    8  A    between atoms: N_29  and  C_30
REMARK                            x       y       z     vdW  Elec       q    Type
REMARK                         _______ _______ _______ _____ _____    ______ ____
ROOT
ATOM      1  C   UNL     1       4.261   4.437  19.264  0.00  0.00    +0.000 A 
ATOM      2  C   UNL     1       3.552   3.303  19.641  0.00  0.00    +0.000 A 
ATOM      3  C   UNL     1       2.210   3.437  19.959  0.00  0.00    +0.000 A 
ATOM      4  C   UNL     1       1.625   4.702  19.935  0.00  0.00    +0.000 A 
ATOM      5  C   UNL     1       2.408   5.812  19.617  0.00  0.00    +0.000 A 
ATOM      6  N   UNL     1       3.694   5.666  19.243  0.00  0.00    +0.000 NA
ENDROOT
BRANCH   5   7
ATOM      7  N   UNL     1       1.870   7.112  19.714  0.00  0.00    +0.000 N 
ATOM      8  C   UNL     1       1.237   7.617  20.916  0.00  0.00    +0.000 C 
ATOM      9  C   UNL     1       0.968   9.052  20.594  0.00  0.00    +0.000 A 
ATOM     10  C   UNL     1       1.410   9.318  19.299  0.00  0.00    +0.000 A 
ATOM     11  C   UNL     1       1.313  10.569  18.720  0.00  0.00    +0.000 A 
ATOM     12  C   UNL     1       0.732  11.585  19.478  0.00  0.00    +0.000 A 
ATOM     13  C   UNL     1       0.275  11.332  20.785  0.00  0.00    +0.000 A 
ATOM     14  C   UNL     1       0.391  10.054  21.372  0.00  0.00    +0.000 A 
ATOM     15  C   UNL     1       1.975   8.088  18.724  0.00  0.00    +0.000 C 
ATOM     16  O   UNL     1       2.405   8.061  17.585  0.00  0.00    +0.000 OA
BRANCH  14  17
ATOM     17  C   UNL     1      -0.089   9.828  22.780  0.00  0.00    +0.000 C 
ATOM     18  F   UNL     1       0.903   9.478  23.645  0.00  0.00    +0.000 F 
ATOM     19  F   UNL     1      -0.677  10.931  23.317  0.00  0.00    +0.000 F 
ATOM     20  F   UNL     1      -1.015   8.832  22.859  0.00  0.00    +0.000 F 
ENDBRANCH  14  17
ENDBRANCH   5   7
BRANCH   1  21
ATOM     21  C   UNL     1       5.689   4.334  18.791  0.00  0.00    +0.000 C 
BRANCH  21  22
ATOM     22  C   UNL     1       6.021   4.962  17.418  0.00  0.00    +0.000 C 
BRANCH  22  23
ATOM     23  C   UNL     1       6.848   6.211  17.545  0.00  0.00    +0.000 A 
ATOM     24  N   UNL     1       6.780   7.277  16.768  0.00  0.00    +0.000 NA
ATOM     25  N   UNL     1       7.618   8.242  17.271  0.00  0.00    +0.000 NA
ATOM     26  C   UNL     1       8.202   7.739  18.331  0.00  0.00    +0.000 A 
ATOM     27  N   UNL     1       7.741   6.477  18.557  0.00  0.00    +0.000 N 
ATOM     28  C   UNL     1       8.104   5.649  19.673  0.00  0.00    +0.000 C 
ENDBRANCH  22  23
BRANCH  22  30
ATOM     29  C   UNL     1       5.999   3.917  15.198  0.00  0.00    +0.000 C 
ATOM     30  N   UNL     1       6.639   3.956  16.515  0.00  0.00    +0.000 NA
ATOM     31  H   UNL     1       7.604   4.266  16.361  0.00  0.00    +0.000 HD
ENDBRANCH  22  30
ENDBRANCH  21  22
ENDBRANCH   1  21
TORSDOF 6
ENDMDL
MODEL 4
REMARK VINA RESULT:      -8.7      4.046      8.587
REMARK  Name = 
REMARK  8 active torsions:
REMARK  status: ('A' for Active; 'I' for Inactive)
REMARK    1  A    between atoms: C_1  and  N_2
REMARK    2  A    between atoms: N_2  and  C_3
REMARK    3  A    between atoms: C_3  and  C_4
REMARK    4  A    between atoms: C_3  and  C_25
REMARK    5  A    between atoms: C_4  and  C_5
REMARK    6  A    between atoms: C_9  and  N_10
REMARK    7  A    between atoms: C_17  and  C_18
REMARK    8  A    between atoms: N_29  and  C_30
REMARK                            x       y       z     vdW  Elec       q    Type
REMARK                         _______ _______ _______ _____ _____    ______ ____
ROOT
ATOM      1  C   UNL     1      -0.779  11.113  21.051  0.00  0.00    +0.000 A 
ATOM      2  C   UNL     1      -1.032  11.085  22.416  0.00  0.00    +0.000 A 
ATOM      3  C   UNL     1      -0.403  10.117  23.185  0.00  0.00    +0.000 A 
ATOM      4  C   UNL     1       0.421   9.181  22.564  0.00  0.00    +0.000 A 
ATOM      5  C   UNL     1       0.578   9.218  21.179  0.00  0.00    +0.000 A 
ATOM      6  N   UNL     1       0.019  10.202  20.447  0.00  0.00    +0.000 NA
ENDROOT
BRANCH   5   7
ATOM      7  N   UNL     1       1.301   8.204  20.517  0.00  0.00    +0.000 N 
ATOM      8  C   UNL     1       1.361   6.838  20.996  0.00  0.00    +0.000 C 
ATOM      9  C   UNL     1       2.100   6.119  19.913  0.00  0.00    +0.000 A 
ATOM     10  C   UNL     1       2.436   7.028  18.911  0.00  0.00    +0.000 A 
ATOM     11  C   UNL     1       3.113   6.659  17.765  0.00  0.00    +0.000 A 
ATOM     12  C   UNL     1       3.475   5.319  17.636  0.00  0.00    +0.000 A 
ATOM     13  C   UNL     1       3.149   4.389  18.640  0.00  0.00    +0.000 A 
ATOM     14  C   UNL     1       2.445   4.773  19.801  0.00  0.00    +0.000 A 
ATOM     15  C   UNL     1       1.944   8.362  19.291  0.00  0.00    +0.000 C 
ATOM     16  O   UNL     1       2.141   9.333  18.584  0.00  0.00    +0.000 OA
BRANCH  14  17
ATOM     17  C   UNL     1       2.094   3.746  20.843  0.00  0.00    +0.000 C 
ATOM     18  F   UNL     1       2.526   4.067  22.094  0.00  0.00    +0.000 F 
ATOM     19  F   UNL     1       0.752   3.549  20.952  0.00  0.00    +0.000 F 
ATOM     20  F   UNL     1       2.633   2.525  20.569  0.00  0.00    +0.000 F 
ENDBRANCH  14  17
ENDBRANCH   5   7
BRANCH   1  21
ATOM     21  C   UNL     1      -1.337  12.215  20.184  0.00  0.00    +0.000 C 
BRANCH  21  22
ATOM     22  C   UNL     1      -1.510  11.906  18.679  0.00  0.00    +0.000 C 
BRANCH  22  23
ATOM     23  C   UNL     1      -2.947  11.681  18.303  0.00  0.00    +0.000 A 
ATOM     24  N   UNL     1      -4.003  11.957  19.048  0.00  0.00    +0.000 NA
ATOM     25  N   UNL     1      -5.137  11.708  18.313  0.00  0.00    +0.000 NA
ATOM     26  C   UNL     1      -4.754  11.259  17.142  0.00  0.00    +0.000 A 
ATOM     27  N   UNL     1      -3.393  11.241  17.078  0.00  0.00    +0.000 N 
ATOM     28  C   UNL     1      -2.621  10.877  15.923  0.00  0.00    +0.000 C 
ENDBRANCH  22  23
BRANCH  22  30
ATOM     29  C   UNL     1       0.276  13.582  18.532  0.00  0.00    +0.000 C 
ATOM     30  N   UNL     1      -0.856  12.952  17.850  0.00  0.00    +0.000 NA
ATOM     31  H   UNL     1      -0.471  12.467  17.033  0.00  0.00    +0.000 HD
ENDBRANCH  22  30
ENDBRANCH  21  22
ENDBRANCH   1  21
TORSDOF 6
ENDMDL
MODEL 5
REMARK VINA RESULT:      -8.7      0.910      1.280
REMARK  Name = 
REMARK  8 active torsions:
REMARK  status: ('A' for Active; 'I' for Inactive)
REMARK    1  A    between atoms: C_1  and  N_2
REMARK    2  A    between atoms: N_2  and  C_3
REMARK    3  A    between atoms: C_3  and  C_4
REMARK    4  A    between atoms: C_3  and  C_25
REMARK    5  A    between atoms: C_4  and  C_5
REMARK    6  A    between atoms: C_9  and  N_10
REMARK    7  A    between atoms: C_17  and  C_18
REMARK    8  A    between atoms: N_29  and  C_30
REMARK                            x       y       z     vdW  Elec       q    Type
REMARK                         _______ _______ _______ _____ _____    ______ ____
ROOT
ATOM      1  C   UNL     1       3.723   3.614  19.050  0.00  0.00    +0.000 A 
ATOM      2  C   UNL     1       3.497   2.795  20.149  0.00  0.00    +0.000 A 
ATOM      3  C   UNL     1       2.647   3.246  21.147  0.00  0.00    +0.000 A 
ATOM      4  C   UNL     1       2.083   4.516  21.041  0.00  0.00    +0.000 A 
ATOM      5  C   UNL     1       2.405   5.319  19.947  0.00  0.00    +0.000 A 
ATOM      6  N   UNL     1       3.178   4.848  18.948  0.00  0.00    +0.000 NA
ENDROOT
BRANCH   5   7
ATOM      7  N   UNL     1       1.950   6.652  19.886  0.00  0.00    +0.000 N 
ATOM      8  C   UNL     1       1.300   7.316  20.999  0.00  0.00    +0.000 C 
ATOM      9  C   UNL     1       1.140   8.724  20.521  0.00  0.00    +0.000 A 
ATOM     10  C   UNL     1       1.655   8.828  19.231  0.00  0.00    +0.000 A 
ATOM     11  C   UNL     1       1.665  10.016  18.525  0.00  0.00    +0.000 A 
ATOM     12  C   UNL     1       1.120  11.138  19.147  0.00  0.00    +0.000 A 
ATOM     13  C   UNL     1       0.591  11.049  20.448  0.00  0.00    +0.000 A 
ATOM     14  C   UNL     1       0.597   9.834  21.166  0.00  0.00    +0.000 A 
ATOM     15  C   UNL     1       2.162   7.512  18.811  0.00  0.00    +0.000 C 
ATOM     16  O   UNL     1       2.638   7.343  17.703  0.00  0.00    +0.000 OA
BRANCH  14  17
ATOM     17  C   UNL     1       0.042   9.784  22.564  0.00  0.00    +0.000 C 
ATOM     18  F   UNL     1      -0.479  10.969  22.987  0.00  0.00    +0.000 F 
ATOM     19  F   UNL     1      -0.957   8.870  22.697  0.00  0.00    +0.000 F 
ATOM     20  F   UNL     1       0.987   9.446  23.485  0.00  0.00    +0.000 F 
ENDBRANCH  14  17
ENDBRANCH   5   7
BRANCH   1  21
ATOM     21  C   UNL     1       4.540   3.128  17.879  0.00  0.00    +0.000 C 
BRANCH  21  22
ATOM     22  C   UNL     1       5.290   4.199  17.054  0.00  0.00    +0.000 C 
BRANCH  22  23
ATOM     23  C   UNL     1       6.341   4.909  17.859  0.00  0.00    +0.000 A 
ATOM     24  N   UNL     1       7.212   4.346  18.678  0.00  0.00    +0.000 NA
ATOM     25  N   UNL     1       8.069   5.315  19.142  0.00  0.00    +0.000 NA
ATOM     26  C   UNL     1       7.688   6.456  18.620  0.00  0.00    +0.000 A 
ATOM     27  N   UNL     1       6.623   6.254  17.795  0.00  0.00    +0.000 N 
ATOM     28  C   UNL     1       5.988   7.265  16.997  0.00  0.00    +0.000 C 
ENDBRANCH  22  23
BRANCH  22  30
ATOM     29  C   UNL     1       5.676   4.509  14.650  0.00  0.00    +0.000 C 
ATOM     30  N   UNL     1       5.828   3.613  15.798  0.00  0.00    +0.000 NA
ATOM     31  H   UNL     1       6.836   3.498  15.947  0.00  0.00    +0.000 HD
ENDBRANCH  22  30
ENDBRANCH  21  22
ENDBRANCH   1  21
TORSDOF 6
ENDMDL
MODEL 6
REMARK VINA RESULT:      -8.7      1.361      2.744
REMARK  Name = 
REMARK  8 active torsions:
REMARK  status: ('A' for Active; 'I' for Inactive)
REMARK    1  A    between atoms: C_1  and  N_2
REMARK    2  A    between atoms: N_2  and  C_3
REMARK    3  A    between atoms: C_3  and  C_4
REMARK    4  A    between atoms: C_3  and  C_25
REMARK    5  A    between atoms: C_4  and  C_5
REMARK    6  A    between atoms: C_9  and  N_10
REMARK    7  A    between atoms: C_17  and  C_18
REMARK    8  A    between atoms: N_29  and  C_30
REMARK                            x       y       z     vdW  Elec       q    Type
REMARK                         _______ _______ _______ _____ _____    ______ ____
ROOT
ATOM      1  C   UNL     1       4.277   5.811  17.537  0.00  0.00    +0.000 A 
ATOM      2  C   UNL     1       3.921   4.552  18.004  0.00  0.00    +0.000 A 
ATOM      3  C   UNL     1       2.778   4.435  18.779  0.00  0.00    +0.000 A 
ATOM      4  C   UNL     1       2.051   5.578  19.103  0.00  0.00    +0.000 A 
ATOM      5  C   UNL     1       2.501   6.823  18.663  0.00  0.00    +0.000 A 
ATOM      6  N   UNL     1       3.574   6.923  17.854  0.00  0.00    +0.000 NA
ENDROOT
BRANCH   5   7
ATOM      7  N   UNL     1       1.855   8.003  19.087  0.00  0.00    +0.000 N 
ATOM      8  C   UNL     1       1.243   8.141  20.393  0.00  0.00    +0.000 C 
ATOM      9  C   UNL     1       0.831   9.578  20.436  0.00  0.00    +0.000 A 
ATOM     10  C   UNL     1       1.180  10.187  19.232  0.00  0.00    +0.000 A 
ATOM     11  C   UNL     1       0.941  11.524  18.976  0.00  0.00    +0.000 A 
ATOM     12  C   UNL     1       0.313  12.268  19.973  0.00  0.00    +0.000 A 
ATOM     13  C   UNL     1      -0.052  11.667  21.193  0.00  0.00    +0.000 A 
ATOM     14  C   UNL     1       0.208  10.304  21.450  0.00  0.00    +0.000 A 
ATOM     15  C   UNL     1       1.821   9.191  18.360  0.00  0.00    +0.000 C 
ATOM     16  O   UNL     1       2.191   9.480  17.237  0.00  0.00    +0.000 OA
BRANCH  14  17
ATOM     17  C   UNL     1      -0.175   9.703  22.775  0.00  0.00    +0.000 C 
ATOM     18  F   UNL     1      -0.921   8.568  22.664  0.00  0.00    +0.000 F 
ATOM     19  F   UNL     1       0.906   9.364  23.529  0.00  0.00    +0.000 F 
ATOM     20  F   UNL     1      -0.913  10.556  23.538  0.00  0.00    +0.000 F 
ENDBRANCH  14  17
ENDBRANCH   5   7
BRANCH   1  21
ATOM     21  C   UNL     1       5.440   5.984  16.590  0.00  0.00    +0.000 C 
BRANCH  21  22
ATOM     22  C   UNL     1       6.054   4.699  15.991  0.00  0.00    +0.000 C 
BRANCH  22  23
ATOM     23  C   UNL     1       6.794   4.963  14.710  0.00  0.00    +0.000 A 
ATOM     24  N   UNL     1       7.881   5.701  14.572  0.00  0.00    +0.000 NA
ATOM     25  N   UNL     1       8.312   5.611  13.271  0.00  0.00    +0.000 NA
ATOM     26  C   UNL     1       7.466   4.841  12.631  0.00  0.00    +0.000 A 
ATOM     27  N   UNL     1       6.508   4.394  13.490  0.00  0.00    +0.000 N 
ATOM     28  C   UNL     1       5.459   3.471  13.156  0.00  0.00    +0.000 C 
ENDBRANCH  22  23
BRANCH  22  30
ATOM     29  C   UNL     1       7.593   4.920  17.889  0.00  0.00    +0.000 C 
ATOM     30  N   UNL     1       6.888   3.994  17.000  0.00  0.00    +0.000 NA
ATOM     31  H   UNL     1       6.235   3.465  17.588  0.00  0.00    +0.000 HD
ENDBRANCH  22  30
ENDBRANCH  21  22
ENDBRANCH   1  21
TORSDOF 6
ENDMDL
MODEL 7
REMARK VINA RESULT:      -8.6      2.152      2.656
REMARK  Name = 
REMARK  8 active torsions:
REMARK  status: ('A' for Active; 'I' for Inactive)
REMARK    1  A    between atoms: C_1  and  N_2
REMARK    2  A    between atoms: N_2  and  C_3
REMARK    3  A    between atoms: C_3  and  C_4
REMARK    4  A    between atoms: C_3  and  C_25
REMARK    5  A    between atoms: C_4  and  C_5
REMARK    6  A    between atoms: C_9  and  N_10
REMARK    7  A    between atoms: C_17  and  C_18
REMARK    8  A    between atoms: N_29  and  C_30
REMARK                            x       y       z     vdW  Elec       q    Type
REMARK                         _______ _______ _______ _____ _____    ______ ____
ROOT
ATOM      1  C   UNL     1       4.136   4.155  16.897  0.00  0.00    +0.000 A 
ATOM      2  C   UNL     1       3.361   3.001  16.907  0.00  0.00    +0.000 A 
ATOM      3  C   UNL     1       2.131   3.037  17.545  0.00  0.00    +0.000 A 
ATOM      4  C   UNL     1       1.730   4.205  18.192  0.00  0.00    +0.000 A 
ATOM      5  C   UNL     1       2.584   5.307  18.206  0.00  0.00    +0.000 A 
ATOM      6  N   UNL     1       3.748   5.288  17.526  0.00  0.00    +0.000 NA
ENDROOT
BRANCH   5   7
ATOM      7  N   UNL     1       2.256   6.452  18.962  0.00  0.00    +0.000 N 
ATOM      8  C   UNL     1       2.034   7.754  18.366  0.00  0.00    +0.000 C 
ATOM      9  C   UNL     1       1.579   8.592  19.517  0.00  0.00    +0.000 A 
ATOM     10  C   UNL     1       1.563   7.811  20.671  0.00  0.00    +0.000 A 
ATOM     11  C   UNL     1       1.169   8.304  21.900  0.00  0.00    +0.000 A 
ATOM     12  C   UNL     1       0.790   9.643  21.965  0.00  0.00    +0.000 A 
ATOM     13  C   UNL     1       0.805  10.448  20.811  0.00  0.00    +0.000 A 
ATOM     14  C   UNL     1       1.196   9.932  19.557  0.00  0.00    +0.000 A 
ATOM     15  C   UNL     1       2.004   6.449  20.332  0.00  0.00    +0.000 C 
ATOM     16  O   UNL     1       2.101   5.585  21.185  0.00  0.00    +0.000 OA
BRANCH  14  17
ATOM     17  C   UNL     1       1.178  10.818  18.340  0.00  0.00    +0.000 C 
ATOM     18  F   UNL     1       2.387  10.919  17.720  0.00  0.00    +0.000 F 
ATOM     19  F   UNL     1       0.308  10.383  17.389  0.00  0.00    +0.000 F 
ATOM     20  F   UNL     1       0.808  12.095  18.634  0.00  0.00    +0.000 F 
ENDBRANCH  14  17
ENDBRANCH   5   7
BRANCH   1  21
ATOM     21  C   UNL     1       5.425   4.213  16.116  0.00  0.00    +0.000 C 
BRANCH  21  22
ATOM     22  C   UNL     1       6.263   5.506  16.239  0.00  0.00    +0.000 C 
BRANCH  22  23
ATOM     23  C   UNL     1       6.990   5.594  17.551  0.00  0.00    +0.000 A 
ATOM     24  N   UNL     1       7.279   4.586  18.355  0.00  0.00    +0.000 NA
ATOM     25  N   UNL     1       8.039   5.059  19.397  0.00  0.00    +0.000 NA
ATOM     26  C   UNL     1       8.178   6.351  19.225  0.00  0.00    +0.000 A 
ATOM     27  N   UNL     1       7.557   6.734  18.075  0.00  0.00    +0.000 N 
ATOM     28  C   UNL     1       7.564   8.062  17.530  0.00  0.00    +0.000 C 
ENDBRANCH  22  23
BRANCH  22  30
ATOM     29  C   UNL     1       6.944   4.632  14.049  0.00  0.00    +0.000 C 
ATOM     30  N   UNL     1       7.168   5.658  15.070  0.00  0.00    +0.000 NA
ATOM     31  H   UNL     1       6.926   6.556  14.638  0.00  0.00    +0.000 HD
ENDBRANCH  22  30
ENDBRANCH  21  22
ENDBRANCH   1  21
TORSDOF 6
ENDMDL
MODEL 8
REMARK VINA RESULT:      -8.6      2.498      4.051
REMARK  Name = 
REMARK  8 active torsions:
REMARK  status: ('A' for Active; 'I' for Inactive)
REMARK    1  A    between atoms: C_1  and  N_2
REMARK    2  A    between atoms: N_2  and  C_3
REMARK    3  A    between atoms: C_3  and  C_4
REMARK    4  A    between atoms: C_3  and  C_25
REMARK    5  A    between atoms: C_4  and  C_5
REMARK    6  A    between atoms: C_9  and  N_10
REMARK    7  A    between atoms: C_17  and  C_18
REMARK    8  A    between atoms: N_29  and  C_30
REMARK                            x       y       z     vdW  Elec       q    Type
REMARK                         _______ _______ _______ _____ _____    ______ ____
ROOT
ATOM      1  C   UNL     1       2.863   6.442  19.186  0.00  0.00    +0.000 A 
ATOM      2  C   UNL     1       3.206   6.702  17.865  0.00  0.00    +0.000 A 
ATOM      3  C   UNL     1       2.867   7.932  17.324  0.00  0.00    +0.000 A 
ATOM      4  C   UNL     1       2.157   8.847  18.099  0.00  0.00    +0.000 A 
ATOM      5  C   UNL     1       1.781   8.499  19.396  0.00  0.00    +0.000 A 
ATOM      6  N   UNL     1       2.173   7.330  19.939  0.00  0.00    +0.000 NA
ENDROOT
BRANCH   5   7
ATOM      7  N   UNL     1       0.953   9.357  20.150  0.00  0.00    +0.000 N 
ATOM      8  C   UNL     1       0.014  10.280  19.545  0.00  0.00    +0.000 C 
ATOM      9  C   UNL     1      -0.721  10.848  20.716  0.00  0.00    +0.000 A 
ATOM     10  C   UNL     1      -0.215  10.288  21.887  0.00  0.00    +0.000 A 
ATOM     11  C   UNL     1      -0.705  10.606  23.139  0.00  0.00    +0.000 A 
ATOM     12  C   UNL     1      -1.740  11.537  23.208  0.00  0.00    +0.000 A 
ATOM     13  C   UNL     1      -2.260  12.117  22.035  0.00  0.00    +0.000 A 
ATOM     14  C   UNL     1      -1.761  11.776  20.760  0.00  0.00    +0.000 A 
ATOM     15  C   UNL     1       0.861   9.346  21.540  0.00  0.00    +0.000 C 
ATOM     16  O   UNL     1       1.481   8.749  22.402  0.00  0.00    +0.000 OA
BRANCH  14  17
ATOM     17  C   UNL     1      -2.358  12.400  19.528  0.00  0.00    +0.000 C 
ATOM     18  F   UNL     1      -3.414  13.220  19.788  0.00  0.00    +0.000 F 
ATOM     19  F   UNL     1      -1.462  13.156  18.838  0.00  0.00    +0.000 F 
ATOM     20  F   UNL     1      -2.822  11.470  18.648  0.00  0.00    +0.000 F 
ENDBRANCH  14  17
ENDBRANCH   5   7
BRANCH   1  21
ATOM     21  C   UNL     1       3.312   5.172  19.865  0.00  0.00    +0.000 C 
BRANCH  21  22
ATOM     22  C   UNL     1       4.064   4.138  18.996  0.00  0.00    +0.000 C 
BRANCH  22  23
ATOM     23  C   UNL     1       5.494   4.528  18.752  0.00  0.00    +0.000 A 
ATOM     24  N   UNL     1       6.366   4.917  19.665  0.00  0.00    +0.000 NA
ATOM     25  N   UNL     1       7.589   5.082  19.063  0.00  0.00    +0.000 NA
ATOM     26  C   UNL     1       7.437   4.817  17.788  0.00  0.00    +0.000 A 
ATOM     27  N   UNL     1       6.149   4.447  17.545  0.00  0.00    +0.000 N 
ATOM     28  C   UNL     1       5.636   4.015  16.275  0.00  0.00    +0.000 C 
ENDBRANCH  22  23
BRANCH  22  30
ATOM     29  C   UNL     1       3.527   1.781  18.573  0.00  0.00    +0.000 C 
ATOM     30  N   UNL     1       3.931   2.773  19.571  0.00  0.00    +0.000 NA
ATOM     31  H   UNL     1       4.870   2.505  19.885  0.00  0.00    +0.000 HD
ENDBRANCH  22  30
ENDBRANCH  21  22
ENDBRANCH   1  21
TORSDOF 6
ENDMDL
MODEL 9
REMARK VINA RESULT:      -8.5      1.974      2.550
REMARK  Name = 
REMARK  8 active torsions:
REMARK  status: ('A' for Active; 'I' for Inactive)
REMARK    1  A    between atoms: C_1  and  N_2
REMARK    2  A    between atoms: N_2  and  C_3
REMARK    3  A    between atoms: C_3  and  C_4
REMARK    4  A    between atoms: C_3  and  C_25
REMARK    5  A    between atoms: C_4  and  C_5
REMARK    6  A    between atoms: C_9  and  N_10
REMARK    7  A    between atoms: C_17  and  C_18
REMARK    8  A    between atoms: N_29  and  C_30
REMARK                            x       y       z     vdW  Elec       q    Type
REMARK                         _______ _______ _______ _____ _____    ______ ____
ROOT
ATOM      1  C   UNL     1       4.345   5.550  16.682  0.00  0.00    +0.000 A 
ATOM      2  C   UNL     1       4.043   4.201  16.824  0.00  0.00    +0.000 A 
ATOM      3  C   UNL     1       3.036   3.839  17.705  0.00  0.00    +0.000 A 
ATOM      4  C   UNL     1       2.393   4.824  18.451  0.00  0.00    +0.000 A 
ATOM      5  C   UNL     1       2.791   6.154  18.315  0.00  0.00    +0.000 A 
ATOM      6  N   UNL     1       3.723   6.508  17.408  0.00  0.00    +0.000 NA
ENDROOT
BRANCH   5   7
ATOM      7  N   UNL     1       2.245   7.149  19.153  0.00  0.00    +0.000 N 
ATOM      8  C   UNL     1       1.962   8.495  18.697  0.00  0.00    +0.000 C 
ATOM      9  C   UNL     1       1.272   9.122  19.867  0.00  0.00    +0.000 A 
ATOM     10  C   UNL     1       1.192   8.191  20.900  0.00  0.00    +0.000 A 
ATOM     11  C   UNL     1       0.590   8.472  22.112  0.00  0.00    +0.000 A 
ATOM     12  C   UNL     1       0.062   9.750  22.287  0.00  0.00    +0.000 A 
ATOM     13  C   UNL     1       0.140  10.705  21.256  0.00  0.00    +0.000 A 
ATOM     14  C   UNL     1       0.745  10.404  20.017  0.00  0.00    +0.000 A 
ATOM     15  C   UNL     1       1.819   6.935  20.462  0.00  0.00    +0.000 C 
ATOM     16  O   UNL     1       1.897   5.974  21.206  0.00  0.00    +0.000 OA
BRANCH  14  17
ATOM     17  C   UNL     1       0.789  11.443  18.930  0.00  0.00    +0.000 C 
ATOM     18  F   UNL     1       0.446  12.692  19.354  0.00  0.00    +0.000 F 
ATOM     19  F   UNL     1       2.024  11.567  18.373  0.00  0.00    +0.000 F 
ATOM     20  F   UNL     1      -0.060  11.157  17.904  0.00  0.00    +0.000 F 
ENDBRANCH  14  17
ENDBRANCH   5   7
BRANCH   1  21
ATOM     21  C   UNL     1       5.344   6.014  15.651  0.00  0.00    +0.000 C 
BRANCH  21  22
ATOM     22  C   UNL     1       6.807   5.549  15.832  0.00  0.00    +0.000 C 
BRANCH  22  23
ATOM     23  C   UNL     1       7.248   5.593  17.268  0.00  0.00    +0.000 A 
ATOM     24  N   UNL     1       7.456   4.552  18.055  0.00  0.00    +0.000 NA
ATOM     25  N   UNL     1       7.949   5.001  19.256  0.00  0.00    +0.000 NA
ATOM     26  C   UNL     1       8.009   6.309  19.190  0.00  0.00    +0.000 A 
ATOM     27  N   UNL     1       7.600   6.729  17.961  0.00  0.00    +0.000 N 
ATOM     28  C   UNL     1       7.602   8.091  17.506  0.00  0.00    +0.000 C 
ENDBRANCH  22  23
BRANCH  22  30
ATOM     29  C   UNL     1       6.314   4.079  13.930  0.00  0.00    +0.000 C 
ATOM     30  N   UNL     1       7.016   4.216  15.208  0.00  0.00    +0.000 NA
ATOM     31  H   UNL     1       8.018   4.154  14.999  0.00  0.00    +0.000 HD
ENDBRANCH  22  30
ENDBRANCH  21  22
ENDBRANCH   1  21
TORSDOF 6
ENDMDL
