MODEL 1
REMARK VINA RESULT:      -7.9      0.000      0.000
REMARK  Name = 
REMARK  4 active torsions:
REMARK  status: ('A' for Active; 'I' for Inactive)
REMARK    1  A    between atoms: C_2  and  C_3
REMARK    2  A    between atoms: C_7  and  C_8
REMARK    3  A    between atoms: C_12  and  O_13
REMARK    4  A    between atoms: O_13  and  C_14
REMARK                            x       y       z     vdW  Elec       q    Type
REMARK                         _______ _______ _______ _____ _____    ______ ____
ROOT
ATOM      1  C   UNL     1       6.312   5.281  17.382  0.00  0.00    +0.000 A 
ATOM      2  C   UNL     1       6.992   5.052  18.568  0.00  0.00    +0.000 A 
ATOM      3  N   UNL     1       8.194   4.523  18.226  0.00  0.00    +0.000 N 
ATOM      4  N   UNL     1       8.334   4.323  16.916  0.00  0.00    +0.000 NA
ATOM      5  C   UNL     1       7.185   4.763  16.368  0.00  0.00    +0.000 A 
ATOM      6  H   UNL     1       8.967   4.277  18.835  0.00  0.00    +0.000 HD
ENDROOT
BRANCH   1   8
ATOM      7  O   UNL     1       4.826   6.992  16.813  0.00  0.00    +0.000 OA
ATOM      8  C   UNL     1       4.981   5.851  17.251  0.00  0.00    +0.000 C 
ATOM      9  N   UNL     1       3.894   5.078  17.663  0.00  0.00    +0.000 N 
ATOM     10  C   UNL     1       2.528   5.582  17.491  0.00  0.00    +0.000 C 
ATOM     11  C   UNL     1       1.743   5.562  18.820  0.00  0.00    +0.000 C 
ATOM     12  N   UNL     1       1.776   4.232  19.473  0.00  0.00    +0.000 NA
ATOM     13  C   UNL     1       1.027   4.248  20.736  0.00  0.00    +0.000 C 
ATOM     14  C   UNL     1       1.053   2.875  21.412  0.00  0.00    +0.000 C 
ATOM     15  C   UNL     1       2.481   2.398  21.648  0.00  0.00    +0.000 C 
ATOM     16  C   UNL     1       3.265   2.434  20.344  0.00  0.00    +0.000 C 
ATOM     17  C   UNL     1       3.182   3.819  19.689  0.00  0.00    +0.000 C 
ATOM     18  C   UNL     1       3.965   3.791  18.361  0.00  0.00    +0.000 C 
ENDBRANCH   1   8
BRANCH   5  19
ATOM     19  C   UNL     1       7.010   4.693  14.909  0.00  0.00    +0.000 A 
ATOM     20  C   UNL     1       7.951   5.229  14.020  0.00  0.00    +0.000 A 
ATOM     21  C   UNL     1       7.765   5.125  12.640  0.00  0.00    +0.000 A 
ATOM     22  C   UNL     1       6.641   4.477  12.124  0.00  0.00    +0.000 A 
ATOM     23  C   UNL     1       5.690   3.942  12.992  0.00  0.00    +0.000 A 
ATOM     24  C   UNL     1       5.887   4.040  14.373  0.00  0.00    +0.000 A 
BRANCH  23  25
ATOM     25  O   UNL     1       4.555   3.278  12.616  0.00  0.00    +0.000 OA
BRANCH  25  26
ATOM     26  C   UNL     1       4.473   2.928  11.246  0.00  0.00    +0.000 C 
ATOM     27  F   UNL     1       5.018   1.698  11.070  0.00  0.00    +0.000 F 
ATOM     28  F   UNL     1       3.156   2.816  10.934  0.00  0.00    +0.000 F 
ENDBRANCH  25  26
ENDBRANCH  23  25
ENDBRANCH   5  19
TORSDOF 4
ENDMDL
MODEL 2
REMARK VINA RESULT:      -7.8      4.303      8.053
REMARK  Name = 
REMARK  4 active torsions:
REMARK  status: ('A' for Active; 'I' for Inactive)
REMARK    1  A    between atoms: C_2  and  C_3
REMARK    2  A    between atoms: C_7  and  C_8
REMARK    3  A    between atoms: C_12  and  O_13
REMARK    4  A    between atoms: O_13  and  C_14
REMARK                            x       y       z     vdW  Elec       q    Type
REMARK                         _______ _______ _______ _____ _____    ______ ____
ROOT
ATOM      1  C   UNL     1       3.826   4.128  18.929  0.00  0.00    +0.000 A 
ATOM      2  C   UNL     1       3.495   2.782  18.966  0.00  0.00    +0.000 A 
ATOM      3  N   UNL     1       2.142   2.721  19.054  0.00  0.00    +0.000 N 
ATOM      4  N   UNL     1       1.560   3.916  19.145  0.00  0.00    +0.000 NA
ATOM      5  C   UNL     1       2.572   4.805  19.088  0.00  0.00    +0.000 A 
ATOM      6  H   UNL     1       1.549   1.898  19.053  0.00  0.00    +0.000 HD
ENDROOT
BRANCH   1   8
ATOM      7  O   UNL     1       5.583   5.481  19.665  0.00  0.00    +0.000 OA
ATOM      8  C   UNL     1       5.167   4.679  18.826  0.00  0.00    +0.000 C 
ATOM      9  N   UNL     1       5.952   4.296  17.738  0.00  0.00    +0.000 N 
ATOM     10  C   UNL     1       7.334   4.772  17.625  0.00  0.00    +0.000 C 
ATOM     11  C   UNL     1       7.589   5.459  16.265  0.00  0.00    +0.000 C 
ATOM     12  N   UNL     1       7.191   4.605  15.121  0.00  0.00    +0.000 NA
ATOM     13  C   UNL     1       7.440   5.289  13.845  0.00  0.00    +0.000 C 
ATOM     14  C   UNL     1       7.036   4.409  12.659  0.00  0.00    +0.000 C 
ATOM     15  C   UNL     1       5.576   3.981  12.756  0.00  0.00    +0.000 C 
ATOM     16  C   UNL     1       5.315   3.321  14.102  0.00  0.00    +0.000 C 
ATOM     17  C   UNL     1       5.765   4.226  15.257  0.00  0.00    +0.000 C 
ATOM     18  C   UNL     1       5.507   3.498  16.592  0.00  0.00    +0.000 C 
ENDBRANCH   1   8
BRANCH   5  19
ATOM     19  C   UNL     1       2.271   6.243  19.155  0.00  0.00    +0.000 A 
ATOM     20  C   UNL     1       2.297   7.063  18.020  0.00  0.00    +0.000 A 
ATOM     21  C   UNL     1       1.984   8.421  18.116  0.00  0.00    +0.000 A 
ATOM     22  C   UNL     1       1.632   8.981  19.346  0.00  0.00    +0.000 A 
ATOM     23  C   UNL     1       1.606   8.183  20.489  0.00  0.00    +0.000 A 
ATOM     24  C   UNL     1       1.910   6.822  20.384  0.00  0.00    +0.000 A 
BRANCH  23  25
ATOM     25  O   UNL     1       1.271   8.605  21.745  0.00  0.00    +0.000 OA
BRANCH  25  26
ATOM     26  C   UNL     1      -0.082   8.984  21.925  0.00  0.00    +0.000 C 
ATOM     27  F   UNL     1      -0.883   7.946  21.576  0.00  0.00    +0.000 F 
ATOM     28  F   UNL     1      -0.273   9.190  23.254  0.00  0.00    +0.000 F 
ENDBRANCH  25  26
ENDBRANCH  23  25
ENDBRANCH   5  19
TORSDOF 4
ENDMDL
MODEL 3
REMARK VINA RESULT:      -7.8      4.567      6.122
REMARK  Name = 
REMARK  4 active torsions:
REMARK  status: ('A' for Active; 'I' for Inactive)
REMARK    1  A    between atoms: C_2  and  C_3
REMARK    2  A    between atoms: C_7  and  C_8
REMARK    3  A    between atoms: C_12  and  O_13
REMARK    4  A    between atoms: O_13  and  C_14
REMARK                            x       y       z     vdW  Elec       q    Type
REMARK                         _______ _______ _______ _____ _____    ______ ____
ROOT
ATOM      1  C   UNL     1       2.810   6.387  19.184  0.00  0.00    +0.000 A 
ATOM      2  C   UNL     1       2.128   5.908  20.291  0.00  0.00    +0.000 A 
ATOM      3  N   UNL     1       2.645   4.682  20.560  0.00  0.00    +0.000 N 
ATOM      4  N   UNL     1       3.564   4.287  19.680  0.00  0.00    +0.000 NA
ATOM      5  C   UNL     1       3.677   5.309  18.808  0.00  0.00    +0.000 A 
ATOM      6  H   UNL     1       2.419   4.060  21.329  0.00  0.00    +0.000 HD
ENDROOT
BRANCH   1   8
ATOM      7  O   UNL     1       3.377   8.071  17.666  0.00  0.00    +0.000 OA
ATOM      8  C   UNL     1       2.602   7.673  18.538  0.00  0.00    +0.000 C 
ATOM      9  N   UNL     1       1.521   8.450  18.957  0.00  0.00    +0.000 N 
ATOM     10  C   UNL     1       1.231   9.724  18.293  0.00  0.00    +0.000 C 
ATOM     11  C   UNL     1       1.147  10.887  19.305  0.00  0.00    +0.000 C 
ATOM     12  N   UNL     1       0.206  10.601  20.413  0.00  0.00    +0.000 NA
ATOM     13  C   UNL     1       0.156  11.723  21.360  0.00  0.00    +0.000 C 
ATOM     14  C   UNL     1      -0.820  11.436  22.505  0.00  0.00    +0.000 C 
ATOM     15  C   UNL     1      -0.460  10.144  23.230  0.00  0.00    +0.000 C 
ATOM     16  C   UNL     1      -0.359   8.999  22.235  0.00  0.00    +0.000 C 
ATOM     17  C   UNL     1       0.604   9.345  21.091  0.00  0.00    +0.000 C 
ATOM     18  C   UNL     1       0.645   8.166  20.098  0.00  0.00    +0.000 C 
ENDBRANCH   1   8
BRANCH   5  19
ATOM     19  C   UNL     1       4.631   5.201  17.694  0.00  0.00    +0.000 A 
ATOM     20  C   UNL     1       4.417   4.337  16.612  0.00  0.00    +0.000 A 
ATOM     21  C   UNL     1       5.333   4.275  15.560  0.00  0.00    +0.000 A 
ATOM     22  C   UNL     1       6.474   5.079  15.565  0.00  0.00    +0.000 A 
ATOM     23  C   UNL     1       6.709   5.942  16.636  0.00  0.00    +0.000 A 
ATOM     24  C   UNL     1       5.782   6.007  17.682  0.00  0.00    +0.000 A 
BRANCH  23  25
ATOM     25  O   UNL     1       7.778   6.785  16.758  0.00  0.00    +0.000 OA
BRANCH  25  26
ATOM     26  C   UNL     1       7.730   7.682  17.853  0.00  0.00    +0.000 C 
ATOM     27  F   UNL     1       8.596   7.260  18.809  0.00  0.00    +0.000 F 
ATOM     28  F   UNL     1       8.192   8.882  17.416  0.00  0.00    +0.000 F 
ENDBRANCH  25  26
ENDBRANCH  23  25
ENDBRANCH   5  19
TORSDOF 4
ENDMDL
MODEL 4
REMARK VINA RESULT:      -7.5      3.683      5.371
REMARK  Name = 
REMARK  4 active torsions:
REMARK  status: ('A' for Active; 'I' for Inactive)
REMARK    1  A    between atoms: C_2  and  C_3
REMARK    2  A    between atoms: C_7  and  C_8
REMARK    3  A    between atoms: C_12  and  O_13
REMARK    4  A    between atoms: O_13  and  C_14
REMARK                            x       y       z     vdW  Elec       q    Type
REMARK                         _______ _______ _______ _____ _____    ______ ____
ROOT
ATOM      1  C   UNL     1       2.826   6.037  19.508  0.00  0.00    +0.000 A 
ATOM      2  C   UNL     1       1.885   5.558  20.406  0.00  0.00    +0.000 A 
ATOM      3  N   UNL     1       2.369   4.384  20.882  0.00  0.00    +0.000 N 
ATOM      4  N   UNL     1       3.521   4.017  20.322  0.00  0.00    +0.000 NA
ATOM      5  C   UNL     1       3.822   5.007  19.457  0.00  0.00    +0.000 A 
ATOM      6  H   UNL     1       1.968   3.781  21.592  0.00  0.00    +0.000 HD
ENDROOT
BRANCH   1   8
ATOM      7  O   UNL     1       3.589   7.556  17.905  0.00  0.00    +0.000 OA
ATOM      8  C   UNL     1       2.741   7.278  18.755  0.00  0.00    +0.000 C 
ATOM      9  N   UNL     1       1.691   8.150  19.045  0.00  0.00    +0.000 N 
ATOM     10  C   UNL     1       1.524   9.382  18.268  0.00  0.00    +0.000 C 
ATOM     11  C   UNL     1       1.460  10.625  19.181  0.00  0.00    +0.000 C 
ATOM     12  N   UNL     1       0.441  10.488  20.248  0.00  0.00    +0.000 NA
ATOM     13  C   UNL     1       0.411  11.683  21.101  0.00  0.00    +0.000 C 
ATOM     14  C   UNL     1      -0.646  11.549  22.202  0.00  0.00    +0.000 C 
ATOM     15  C   UNL     1      -0.414  10.301  23.045  0.00  0.00    +0.000 C 
ATOM     16  C   UNL     1      -0.332   9.075  22.148  0.00  0.00    +0.000 C 
ATOM     17  C   UNL     1       0.715   9.268  21.043  0.00  0.00    +0.000 C 
ATOM     18  C   UNL     1       0.735   8.013  20.148  0.00  0.00    +0.000 C 
ENDBRANCH   1   8
BRANCH   5  19
ATOM     19  C   UNL     1       5.058   4.918  18.666  0.00  0.00    +0.000 A 
ATOM     20  C   UNL     1       6.281   5.416  19.136  0.00  0.00    +0.000 A 
ATOM     21  C   UNL     1       7.440   5.296  18.367  0.00  0.00    +0.000 A 
ATOM     22  C   UNL     1       7.401   4.669  17.119  0.00  0.00    +0.000 A 
ATOM     23  C   UNL     1       6.193   4.173  16.631  0.00  0.00    +0.000 A 
ATOM     24  C   UNL     1       5.037   4.287  17.410  0.00  0.00    +0.000 A 
BRANCH  23  25
ATOM     25  O   UNL     1       6.022   3.533  15.434  0.00  0.00    +0.000 OA
BRANCH  25  26
ATOM     26  C   UNL     1       6.144   4.346  14.281  0.00  0.00    +0.000 C 
ATOM     27  F   UNL     1       5.610   3.691  13.219  0.00  0.00    +0.000 F 
ATOM     28  F   UNL     1       5.377   5.450  14.479  0.00  0.00    +0.000 F 
ENDBRANCH  25  26
ENDBRANCH  23  25
ENDBRANCH   5  19
TORSDOF 4
ENDMDL
MODEL 5
REMARK VINA RESULT:      -7.4      5.823      7.894
REMARK  Name = 
REMARK  4 active torsions:
REMARK  status: ('A' for Active; 'I' for Inactive)
REMARK    1  A    between atoms: C_2  and  C_3
REMARK    2  A    between atoms: C_7  and  C_8
REMARK    3  A    between atoms: C_12  and  O_13
REMARK    4  A    between atoms: O_13  and  C_14
REMARK                            x       y       z     vdW  Elec       q    Type
REMARK                         _______ _______ _______ _____ _____    ______ ____
ROOT
ATOM      1  C   UNL     1       1.599   8.766  19.350  0.00  0.00    +0.000 A 
ATOM      2  C   UNL     1       1.440   9.967  18.675  0.00  0.00    +0.000 A 
ATOM      3  N   UNL     1       1.932   9.773  17.426  0.00  0.00    +0.000 N 
ATOM      4  N   UNL     1       2.462   8.564  17.243  0.00  0.00    +0.000 NA
ATOM      5  C   UNL     1       2.289   7.924  18.417  0.00  0.00    +0.000 A 
ATOM      6  H   UNL     1       1.936  10.422  16.645  0.00  0.00    +0.000 HD
ENDROOT
BRANCH   1   8
ATOM      7  O   UNL     1       1.133   7.336  21.139  0.00  0.00    +0.000 OA
ATOM      8  C   UNL     1       1.205   8.494  20.723  0.00  0.00    +0.000 C 
ATOM      9  N   UNL     1       0.885   9.580  21.540  0.00  0.00    +0.000 N 
ATOM     10  C   UNL     1       0.547   9.363  22.950  0.00  0.00    +0.000 C 
ATOM     11  C   UNL     1      -0.815   9.996  23.311  0.00  0.00    +0.000 C 
ATOM     12  N   UNL     1      -0.890  11.425  22.926  0.00  0.00    +0.000 NA
ATOM     13  C   UNL     1      -2.198  11.994  23.276  0.00  0.00    +0.000 C 
ATOM     14  C   UNL     1      -2.280  13.472  22.886  0.00  0.00    +0.000 C 
ATOM     15  C   UNL     1      -1.996  13.671  21.402  0.00  0.00    +0.000 C 
ATOM     16  C   UNL     1      -0.663  13.033  21.037  0.00  0.00    +0.000 C 
ATOM     17  C   UNL     1      -0.617  11.563  21.476  0.00  0.00    +0.000 C 
ATOM     18  C   UNL     1       0.761  10.976  21.111  0.00  0.00    +0.000 C 
ENDBRANCH   1   8
BRANCH   5  19
ATOM     19  C   UNL     1       2.762   6.539  18.557  0.00  0.00    +0.000 A 
ATOM     20  C   UNL     1       4.000   6.230  19.137  0.00  0.00    +0.000 A 
ATOM     21  C   UNL     1       4.410   4.903  19.274  0.00  0.00    +0.000 A 
ATOM     22  C   UNL     1       3.588   3.859  18.841  0.00  0.00    +0.000 A 
ATOM     23  C   UNL     1       2.355   4.146  18.255  0.00  0.00    +0.000 A 
ATOM     24  C   UNL     1       1.946   5.477  18.131  0.00  0.00    +0.000 A 
BRANCH  23  25
ATOM     25  O   UNL     1       1.457   3.220  17.801  0.00  0.00    +0.000 OA
BRANCH  25  26
ATOM     26  C   UNL     1       0.790   2.470  18.799  0.00  0.00    +0.000 C 
ATOM     27  F   UNL     1       1.636   1.526  19.284  0.00  0.00    +0.000 F 
ATOM     28  F   UNL     1       0.522   3.314  19.829  0.00  0.00    +0.000 F 
ENDBRANCH  25  26
ENDBRANCH  23  25
ENDBRANCH   5  19
TORSDOF 4
ENDMDL
MODEL 6
REMARK VINA RESULT:      -7.3      5.656      7.865
REMARK  Name = 
REMARK  4 active torsions:
REMARK  status: ('A' for Active; 'I' for Inactive)
REMARK    1  A    between atoms: C_2  and  C_3
REMARK    2  A    between atoms: C_7  and  C_8
REMARK    3  A    between atoms: C_12  and  O_13
REMARK    4  A    between atoms: O_13  and  C_14
REMARK                            x       y       z     vdW  Elec       q    Type
REMARK                         _______ _______ _______ _____ _____    ______ ____
ROOT
ATOM      1  C   UNL     1       1.693   8.584  19.320  0.00  0.00    +0.000 A 
ATOM      2  C   UNL     1       1.440   9.739  18.596  0.00  0.00    +0.000 A 
ATOM      3  N   UNL     1       1.959   9.539  17.359  0.00  0.00    +0.000 N 
ATOM      4  N   UNL     1       2.592   8.374  17.229  0.00  0.00    +0.000 NA
ATOM      5  C   UNL     1       2.461   7.768  18.426  0.00  0.00    +0.000 A 
ATOM      6  H   UNL     1       1.917  10.154  16.552  0.00  0.00    +0.000 HD
ENDROOT
BRANCH   1   8
ATOM      7  O   UNL     1       1.209   7.183  21.126  0.00  0.00    +0.000 OA
ATOM      8  C   UNL     1       1.310   8.335  20.700  0.00  0.00    +0.000 C 
ATOM      9  N   UNL     1       1.033   9.435  21.512  0.00  0.00    +0.000 N 
ATOM     10  C   UNL     1       0.707   9.239  22.928  0.00  0.00    +0.000 C 
ATOM     11  C   UNL     1      -0.631   9.914  23.302  0.00  0.00    +0.000 C 
ATOM     12  N   UNL     1      -0.670  11.342  22.906  0.00  0.00    +0.000 NA
ATOM     13  C   UNL     1      -1.956  11.952  23.269  0.00  0.00    +0.000 C 
ATOM     14  C   UNL     1      -2.000  13.429  22.868  0.00  0.00    +0.000 C 
ATOM     15  C   UNL     1      -1.729  13.608  21.378  0.00  0.00    +0.000 C 
ATOM     16  C   UNL     1      -0.421  12.928  21.001  0.00  0.00    +0.000 C 
ATOM     17  C   UNL     1      -0.412  11.461  21.452  0.00  0.00    +0.000 C 
ATOM     18  C   UNL     1       0.944  10.831  21.073  0.00  0.00    +0.000 C 
ENDBRANCH   1   8
BRANCH   5  19
ATOM     19  C   UNL     1       3.049   6.435  18.625  0.00  0.00    +0.000 A 
ATOM     20  C   UNL     1       2.320   5.259  18.405  0.00  0.00    +0.000 A 
ATOM     21  C   UNL     1       2.916   4.009  18.582  0.00  0.00    +0.000 A 
ATOM     22  C   UNL     1       4.253   3.911  18.974  0.00  0.00    +0.000 A 
ATOM     23  C   UNL     1       4.994   5.069  19.204  0.00  0.00    +0.000 A 
ATOM     24  C   UNL     1       4.395   6.318  19.014  0.00  0.00    +0.000 A 
BRANCH  23  25
ATOM     25  O   UNL     1       6.308   5.110  19.581  0.00  0.00    +0.000 OA
BRANCH  25  26
ATOM     26  C   UNL     1       7.217   5.558  18.591  0.00  0.00    +0.000 C 
ATOM     27  F   UNL     1       8.188   6.298  19.183  0.00  0.00    +0.000 F 
ATOM     28  F   UNL     1       7.828   4.460  18.074  0.00  0.00    +0.000 F 
ENDBRANCH  25  26
ENDBRANCH  23  25
ENDBRANCH   5  19
TORSDOF 4
ENDMDL
MODEL 7
REMARK VINA RESULT:      -7.3      4.677      6.514
REMARK  Name = 
REMARK  4 active torsions:
REMARK  status: ('A' for Active; 'I' for Inactive)
REMARK    1  A    between atoms: C_2  and  C_3
REMARK    2  A    between atoms: C_7  and  C_8
REMARK    3  A    between atoms: C_12  and  O_13
REMARK    4  A    between atoms: O_13  and  C_14
REMARK                            x       y       z     vdW  Elec       q    Type
REMARK                         _______ _______ _______ _____ _____    ______ ____
ROOT
ATOM      1  C   UNL     1       2.453   6.226  19.617  0.00  0.00    +0.000 A 
ATOM      2  C   UNL     1       1.628   5.896  20.681  0.00  0.00    +0.000 A 
ATOM      3  N   UNL     1       1.979   4.643  21.066  0.00  0.00    +0.000 N 
ATOM      4  N   UNL     1       2.922   4.096  20.300  0.00  0.00    +0.000 NA
ATOM      5  C   UNL     1       3.224   5.040  19.386  0.00  0.00    +0.000 A 
ATOM      6  H   UNL     1       1.619   4.101  21.845  0.00  0.00    +0.000 HD
ENDROOT
BRANCH   1   8
ATOM      7  O   UNL     1       3.325   7.730  18.056  0.00  0.00    +0.000 OA
ATOM      8  C   UNL     1       2.447   7.482  18.884  0.00  0.00    +0.000 C 
ATOM      9  N   UNL     1       1.437   8.402  19.168  0.00  0.00    +0.000 N 
ATOM     10  C   UNL     1       1.349   9.653  18.409  0.00  0.00    +0.000 C 
ATOM     11  C   UNL     1       1.330  10.883  19.342  0.00  0.00    +0.000 C 
ATOM     12  N   UNL     1       0.282  10.781  20.386  0.00  0.00    +0.000 NA
ATOM     13  C   UNL     1       0.295  11.962  21.259  0.00  0.00    +0.000 C 
ATOM     14  C   UNL     1      -0.789  11.865  22.336  0.00  0.00    +0.000 C 
ATOM     15  C   UNL     1      -0.639  10.592  23.162  0.00  0.00    +0.000 C 
ATOM     16  C   UNL     1      -0.601   9.378  22.245  0.00  0.00    +0.000 C 
ATOM     17  C   UNL     1       0.477   9.536  21.165  0.00  0.00    +0.000 C 
ATOM     18  C   UNL     1       0.452   8.296  20.249  0.00  0.00    +0.000 C 
ENDBRANCH   1   8
BRANCH   5  19
ATOM     19  C   UNL     1       4.253   4.757  18.374  0.00  0.00    +0.000 A 
ATOM     20  C   UNL     1       3.926   4.378  17.065  0.00  0.00    +0.000 A 
ATOM     21  C   UNL     1       4.929   4.138  16.123  0.00  0.00    +0.000 A 
ATOM     22  C   UNL     1       6.274   4.281  16.469  0.00  0.00    +0.000 A 
ATOM     23  C   UNL     1       6.620   4.652  17.768  0.00  0.00    +0.000 A 
ATOM     24  C   UNL     1       5.611   4.901  18.704  0.00  0.00    +0.000 A 
BRANCH  23  25
ATOM     25  O   UNL     1       7.895   4.834  18.229  0.00  0.00    +0.000 OA
BRANCH  25  26
ATOM     26  C   UNL     1       8.026   5.701  19.341  0.00  0.00    +0.000 C 
ATOM     27  F   UNL     1       8.960   5.198  20.187  0.00  0.00    +0.000 F 
ATOM     28  F   UNL     1       8.517   6.881  18.880  0.00  0.00    +0.000 F 
ENDBRANCH  25  26
ENDBRANCH  23  25
ENDBRANCH   5  19
TORSDOF 4
ENDMDL
MODEL 8
REMARK VINA RESULT:      -7.3      7.125     10.112
REMARK  Name = 
REMARK  4 active torsions:
REMARK  status: ('A' for Active; 'I' for Inactive)
REMARK    1  A    between atoms: C_2  and  C_3
REMARK    2  A    between atoms: C_7  and  C_8
REMARK    3  A    between atoms: C_12  and  O_13
REMARK    4  A    between atoms: O_13  and  C_14
REMARK                            x       y       z     vdW  Elec       q    Type
REMARK                         _______ _______ _______ _____ _____    ______ ____
ROOT
ATOM      1  C   UNL     1       0.159  12.243  20.739  0.00  0.00    +0.000 A 
ATOM      2  C   UNL     1       1.230  13.123  20.724  0.00  0.00    +0.000 A 
ATOM      3  N   UNL     1       0.884  14.137  19.892  0.00  0.00    +0.000 N 
ATOM      4  N   UNL     1      -0.300  13.964  19.306  0.00  0.00    +0.000 NA
ATOM      5  C   UNL     1      -0.766  12.797  19.793  0.00  0.00    +0.000 A 
ATOM      6  H   UNL     1       1.406  14.981  19.679  0.00  0.00    +0.000 HD
ENDROOT
BRANCH   1   8
ATOM      7  O   UNL     1      -0.092  11.034  22.722  0.00  0.00    +0.000 OA
ATOM      8  C   UNL     1       0.072  11.009  21.501  0.00  0.00    +0.000 C 
ATOM      9  N   UNL     1       0.211   9.802  20.813  0.00  0.00    +0.000 N 
ATOM     10  C   UNL     1       0.065   8.530  21.526  0.00  0.00    +0.000 C 
ATOM     11  C   UNL     1       1.292   7.616  21.314  0.00  0.00    +0.000 C 
ATOM     12  N   UNL     1       1.610   7.426  19.879  0.00  0.00    +0.000 NA
ATOM     13  C   UNL     1       2.784   6.559  19.713  0.00  0.00    +0.000 C 
ATOM     14  C   UNL     1       3.114   6.355  18.232  0.00  0.00    +0.000 C 
ATOM     15  C   UNL     1       3.333   7.686  17.523  0.00  0.00    +0.000 C 
ATOM     16  C   UNL     1       2.135   8.597  17.744  0.00  0.00    +0.000 C 
ATOM     17  C   UNL     1       1.823   8.745  19.239  0.00  0.00    +0.000 C 
ATOM     18  C   UNL     1       0.586   9.651  19.404  0.00  0.00    +0.000 C 
ENDBRANCH   1   8
BRANCH   5  19
ATOM     19  C   UNL     1      -2.079  12.306  19.349  0.00  0.00    +0.000 A 
ATOM     20  C   UNL     1      -3.276  12.762  19.917  0.00  0.00    +0.000 A 
ATOM     21  C   UNL     1      -4.507  12.290  19.457  0.00  0.00    +0.000 A 
ATOM     22  C   UNL     1      -4.565  11.361  18.416  0.00  0.00    +0.000 A 
ATOM     23  C   UNL     1      -3.385  10.890  17.841  0.00  0.00    +0.000 A 
ATOM     24  C   UNL     1      -2.156  11.374  18.300  0.00  0.00    +0.000 A 
BRANCH  23  25
ATOM     25  O   UNL     1      -3.305   9.991  16.814  0.00  0.00    +0.000 OA
BRANCH  25  26
ATOM     26  C   UNL     1      -2.727  10.478  15.616  0.00  0.00    +0.000 C 
ATOM     27  F   UNL     1      -2.919   9.566  14.629  0.00  0.00    +0.000 F 
ATOM     28  F   UNL     1      -3.418  11.590  15.255  0.00  0.00    +0.000 F 
ENDBRANCH  25  26
ENDBRANCH  23  25
ENDBRANCH   5  19
TORSDOF 4
ENDMDL
MODEL 9
REMARK VINA RESULT:      -7.1      7.068      9.716
REMARK  Name = 
REMARK  4 active torsions:
REMARK  status: ('A' for Active; 'I' for Inactive)
REMARK    1  A    between atoms: C_2  and  C_3
REMARK    2  A    between atoms: C_7  and  C_8
REMARK    3  A    between atoms: C_12  and  O_13
REMARK    4  A    between atoms: O_13  and  C_14
REMARK                            x       y       z     vdW  Elec       q    Type
REMARK                         _______ _______ _______ _____ _____    ______ ____
ROOT
ATOM      1  C   UNL     1      -0.548  10.665  21.535  0.00  0.00    +0.000 A 
ATOM      2  C   UNL     1      -0.934  10.560  22.862  0.00  0.00    +0.000 A 
ATOM      3  N   UNL     1      -0.229   9.526  23.387  0.00  0.00    +0.000 N 
ATOM      4  N   UNL     1       0.540   8.899  22.497  0.00  0.00    +0.000 NA
ATOM      5  C   UNL     1       0.353   9.566  21.340  0.00  0.00    +0.000 A 
ATOM      6  H   UNL     1      -0.220   9.194  24.346  0.00  0.00    +0.000 HD
ENDROOT
BRANCH   1   8
ATOM      7  O   UNL     1      -1.961  11.365  19.810  0.00  0.00    +0.000 OA
ATOM      8  C   UNL     1      -1.035  11.642  20.574  0.00  0.00    +0.000 C 
ATOM      9  N   UNL     1      -0.402  12.885  20.527  0.00  0.00    +0.000 N 
ATOM     10  C   UNL     1      -0.898  13.926  19.622  0.00  0.00    +0.000 C 
ATOM     11  C   UNL     1       0.222  14.462  18.704  0.00  0.00    +0.000 C 
ATOM     12  N   UNL     1       1.415  14.898  19.468  0.00  0.00    +0.000 NA
ATOM     13  C   UNL     1       2.463  15.394  18.566  0.00  0.00    +0.000 C 
ATOM     14  C   UNL     1       3.696  15.852  19.350  0.00  0.00    +0.000 C 
ATOM     15  C   UNL     1       4.240  14.734  20.232  0.00  0.00    +0.000 C 
ATOM     16  C   UNL     1       3.135  14.190  21.125  0.00  0.00    +0.000 C 
ATOM     17  C   UNL     1       1.910  13.776  20.299  0.00  0.00    +0.000 C 
ATOM     18  C   UNL     1       0.813  13.263  21.254  0.00  0.00    +0.000 C 
ENDBRANCH   1   8
BRANCH   5  19
ATOM     19  C   UNL     1       1.073   9.130  20.134  0.00  0.00    +0.000 A 
ATOM     20  C   UNL     1       1.122   9.912  18.973  0.00  0.00    +0.000 A 
ATOM     21  C   UNL     1       1.834   9.478  17.853  0.00  0.00    +0.000 A 
ATOM     22  C   UNL     1       2.516   8.259  17.876  0.00  0.00    +0.000 A 
ATOM     23  C   UNL     1       2.474   7.463  19.020  0.00  0.00    +0.000 A 
ATOM     24  C   UNL     1       1.769   7.909  20.142  0.00  0.00    +0.000 A 
BRANCH  23  25
ATOM     25  O   UNL     1       3.104   6.259  19.174  0.00  0.00    +0.000 OA
BRANCH  25  26
ATOM     26  C   UNL     1       2.747   5.257  18.239  0.00  0.00    +0.000 C 
ATOM     27  F   UNL     1       1.497   5.507  17.775  0.00  0.00    +0.000 F 
ATOM     28  F   UNL     1       3.586   5.376  17.177  0.00  0.00    +0.000 F 
ENDBRANCH  25  26
ENDBRANCH  23  25
ENDBRANCH   5  19
TORSDOF 4
ENDMDL
