MODEL 1
REMARK VINA RESULT:      -7.8      0.000      0.000
REMARK  Name = 
REMARK  7 active torsions:
REMARK  status: ('A' for Active; 'I' for Inactive)
REMARK    1  A    between atoms: C_1  and  C_2
REMARK    2  A    between atoms: C_4  and  S_5
REMARK    3  A    between atoms: S_5  and  C_6
REMARK    4  A    between atoms: C_6  and  C_7
REMARK    5  A    between atoms: N_9  and  C_10
REMARK    6  A    between atoms: C_13  and  O_14
REMARK    7  A    between atoms: C_20  and  C_21
REMARK                            x       y       z     vdW  Elec       q    Type
REMARK                         _______ _______ _______ _____ _____    ______ ____
ROOT
ATOM      1  C   UNL     1       0.050  12.897  18.176  0.00  0.00    +0.000 C 
ATOM      2  C   UNL     1       0.008  11.947  19.348  0.00  0.00    +0.000 A 
ATOM      3  C   UNL     1       0.772  10.671  19.220  0.00  0.00    +0.000 A 
ATOM      4  C   UNL     1       0.727   9.846  20.282  0.00  0.00    +0.000 A 
ATOM      5  N   UNL     1      -0.008  10.218  21.419  0.00  0.00    +0.000 N 
ATOM      6  N   UNL     1      -0.189   9.513  22.574  0.00  0.00    +0.000 NA
ATOM      7  C   UNL     1      -0.919  10.314  23.343  0.00  0.00    +0.000 A 
ATOM      8  C   UNL     1      -1.282  11.518  22.711  0.00  0.00    +0.000 A 
ATOM      9  C   UNL     1      -0.696  11.442  21.458  0.00  0.00    +0.000 A 
ATOM     10  N   UNL     1      -0.681  12.302  20.392  0.00  0.00    +0.000 NA
ENDROOT
BRANCH   8  11
ATOM     11  C   UNL     1      -2.098  12.607  23.229  0.00  0.00    +0.000 A 
ATOM     12  C   UNL     1      -1.487  13.808  23.623  0.00  0.00    +0.000 A 
ATOM     13  C   UNL     1      -2.238  14.837  24.195  0.00  0.00    +0.000 A 
ATOM     14  C   UNL     1      -3.609  14.678  24.380  0.00  0.00    +0.000 A 
ATOM     15  C   UNL     1      -4.230  13.496  23.981  0.00  0.00    +0.000 A 
ATOM     16  C   UNL     1      -3.479  12.466  23.408  0.00  0.00    +0.000 A 
ENDBRANCH   8  11
BRANCH   4  17
ATOM     17  S   UNL     1       1.641   8.361  20.261  0.00  0.00    +0.000 S 
BRANCH  17  18
ATOM     18  C   UNL     1       2.132   8.232  18.509  0.00  0.00    +0.000 C 
BRANCH  18  19
ATOM     19  C   UNL     1       2.795   6.895  18.244  0.00  0.00    +0.000 C 
ATOM     20  O   UNL     1       3.715   6.813  17.431  0.00  0.00    +0.000 OA
ATOM     21  N   UNL     1       2.250   5.833  18.954  0.00  0.00    +0.000 N 
ATOM     22  H   UNL     1       1.397   6.004  19.476  0.00  0.00    +0.000 HD
BRANCH  21  23
ATOM     23  C   UNL     1       2.667   4.485  18.853  0.00  0.00    +0.000 A 
ATOM     24  C   UNL     1       3.668   3.934  19.661  0.00  0.00    +0.000 A 
ATOM     25  C   UNL     1       4.129   2.632  19.453  0.00  0.00    +0.000 A 
ATOM     26  C   UNL     1       3.569   1.867  18.442  0.00  0.00    +0.000 A 
ATOM     27  C   UNL     1       2.528   2.368  17.669  0.00  0.00    +0.000 A 
ATOM     28  C   UNL     1       2.067   3.674  17.882  0.00  0.00    +0.000 A 
BRANCH  26  29
ATOM     29  O   UNL     1       4.024   0.611  18.175  0.00  0.00    +0.000 OA
ATOM     30  H   UNL     1       3.330  -0.024  18.422  0.00  0.00    +0.000 HD
ENDBRANCH  26  29
ENDBRANCH  21  23
ENDBRANCH  18  19
ENDBRANCH  17  18
ENDBRANCH   4  17
TORSDOF 6
ENDMDL
MODEL 2
REMARK VINA RESULT:      -7.6      2.950      4.071
REMARK  Name = 
REMARK  7 active torsions:
REMARK  status: ('A' for Active; 'I' for Inactive)
REMARK    1  A    between atoms: C_1  and  C_2
REMARK    2  A    between atoms: C_4  and  S_5
REMARK    3  A    between atoms: S_5  and  C_6
REMARK    4  A    between atoms: C_6  and  C_7
REMARK    5  A    between atoms: N_9  and  C_10
REMARK    6  A    between atoms: C_13  and  O_14
REMARK    7  A    between atoms: C_20  and  C_21
REMARK                            x       y       z     vdW  Elec       q    Type
REMARK                         _______ _______ _______ _____ _____    ______ ____
ROOT
ATOM      1  C   UNL     1      -2.388  11.150  16.940  0.00  0.00    +0.000 C 
ATOM      2  C   UNL     1      -1.474  11.391  18.116  0.00  0.00    +0.000 A 
ATOM      3  C   UNL     1      -1.291  10.267  19.080  0.00  0.00    +0.000 A 
ATOM      4  C   UNL     1      -0.464  10.503  20.114  0.00  0.00    +0.000 A 
ATOM      5  N   UNL     1       0.169  11.752  20.225  0.00  0.00    +0.000 N 
ATOM      6  N   UNL     1       1.018  12.183  21.204  0.00  0.00    +0.000 NA
ATOM      7  C   UNL     1       1.368  13.408  20.825  0.00  0.00    +0.000 A 
ATOM      8  C   UNL     1       0.731  13.833  19.644  0.00  0.00    +0.000 A 
ATOM      9  C   UNL     1      -0.055  12.755  19.268  0.00  0.00    +0.000 A 
ATOM     10  N   UNL     1      -0.899  12.554  18.208  0.00  0.00    +0.000 NA
ENDROOT
BRANCH   8  11
ATOM     11  C   UNL     1       0.844  15.113  18.961  0.00  0.00    +0.000 A 
ATOM     12  C   UNL     1       2.108  15.585  18.572  0.00  0.00    +0.000 A 
ATOM     13  C   UNL     1       2.250  16.844  17.985  0.00  0.00    +0.000 A 
ATOM     14  C   UNL     1       1.130  17.645  17.777  0.00  0.00    +0.000 A 
ATOM     15  C   UNL     1      -0.132  17.183  18.145  0.00  0.00    +0.000 A 
ATOM     16  C   UNL     1      -0.275  15.923  18.732  0.00  0.00    +0.000 A 
ENDBRANCH   8  11
BRANCH   4  17
ATOM     17  S   UNL     1      -0.129   9.232  21.261  0.00  0.00    +0.000 S 
BRANCH  17  18
ATOM     18  C   UNL     1       1.653   8.938  21.004  0.00  0.00    +0.000 C 
BRANCH  18  19
ATOM     19  C   UNL     1       1.867   7.678  20.188  0.00  0.00    +0.000 C 
ATOM     20  O   UNL     1       1.964   7.745  18.964  0.00  0.00    +0.000 OA
ATOM     21  N   UNL     1       1.900   6.509  20.936  0.00  0.00    +0.000 N 
ATOM     22  H   UNL     1       1.655   6.571  21.919  0.00  0.00    +0.000 HD
BRANCH  21  23
ATOM     23  C   UNL     1       2.049   5.205  20.407  0.00  0.00    +0.000 A 
ATOM     24  C   UNL     1       3.249   4.738  19.858  0.00  0.00    +0.000 A 
ATOM     25  C   UNL     1       3.322   3.486  19.244  0.00  0.00    +0.000 A 
ATOM     26  C   UNL     1       2.192   2.686  19.196  0.00  0.00    +0.000 A 
ATOM     27  C   UNL     1       1.006   3.099  19.791  0.00  0.00    +0.000 A 
ATOM     28  C   UNL     1       0.937   4.355  20.409  0.00  0.00    +0.000 A 
BRANCH  26  29
ATOM     29  O   UNL     1       2.209   1.479  18.562  0.00  0.00    +0.000 OA
ATOM     30  H   UNL     1       1.346   1.052  18.696  0.00  0.00    +0.000 HD
ENDBRANCH  26  29
ENDBRANCH  21  23
ENDBRANCH  18  19
ENDBRANCH  17  18
ENDBRANCH   4  17
TORSDOF 6
ENDMDL
MODEL 3
REMARK VINA RESULT:      -7.5      1.589      2.086
REMARK  Name = 
REMARK  7 active torsions:
REMARK  status: ('A' for Active; 'I' for Inactive)
REMARK    1  A    between atoms: C_1  and  C_2
REMARK    2  A    between atoms: C_4  and  S_5
REMARK    3  A    between atoms: S_5  and  C_6
REMARK    4  A    between atoms: C_6  and  C_7
REMARK    5  A    between atoms: N_9  and  C_10
REMARK    6  A    between atoms: C_13  and  O_14
REMARK    7  A    between atoms: C_20  and  C_21
REMARK                            x       y       z     vdW  Elec       q    Type
REMARK                         _______ _______ _______ _____ _____    ______ ____
ROOT
ATOM      1  C   UNL     1      -3.306  10.486  17.030  0.00  0.00    +0.000 C 
ATOM      2  C   UNL     1      -2.166  10.632  18.009  0.00  0.00    +0.000 A 
ATOM      3  C   UNL     1      -0.859  10.020  17.631  0.00  0.00    +0.000 A 
ATOM      4  C   UNL     1       0.144  10.173  18.515  0.00  0.00    +0.000 A 
ATOM      5  N   UNL     1      -0.083  10.883  19.705  0.00  0.00    +0.000 N 
ATOM      6  N   UNL     1       0.794  11.124  20.723  0.00  0.00    +0.000 NA
ATOM      7  C   UNL     1       0.109  11.869  21.584  0.00  0.00    +0.000 A 
ATOM      8  C   UNL     1      -1.226  12.087  21.196  0.00  0.00    +0.000 A 
ATOM      9  C   UNL     1      -1.345  11.434  19.980  0.00  0.00    +0.000 A 
ATOM     10  N   UNL     1      -2.392  11.288  19.108  0.00  0.00    +0.000 NA
ENDROOT
BRANCH   8  11
ATOM     11  C   UNL     1      -2.269  12.819  21.900  0.00  0.00    +0.000 A 
ATOM     12  C   UNL     1      -2.820  12.286  23.077  0.00  0.00    +0.000 A 
ATOM     13  C   UNL     1      -3.875  12.931  23.727  0.00  0.00    +0.000 A 
ATOM     14  C   UNL     1      -4.390  14.116  23.210  0.00  0.00    +0.000 A 
ATOM     15  C   UNL     1      -3.844  14.663  22.051  0.00  0.00    +0.000 A 
ATOM     16  C   UNL     1      -2.788  14.019  21.400  0.00  0.00    +0.000 A 
ENDBRANCH   8  11
BRANCH   4  17
ATOM     17  S   UNL     1       1.730   9.552  18.138  0.00  0.00    +0.000 S 
BRANCH  17  18
ATOM     18  C   UNL     1       1.941   8.242  19.388  0.00  0.00    +0.000 C 
BRANCH  18  19
ATOM     19  C   UNL     1       2.588   7.019  18.767  0.00  0.00    +0.000 C 
ATOM     20  O   UNL     1       3.273   7.132  17.752  0.00  0.00    +0.000 OA
ATOM     21  N   UNL     1       2.301   5.826  19.416  0.00  0.00    +0.000 N 
ATOM     22  H   UNL     1       1.600   5.846  20.150  0.00  0.00    +0.000 HD
BRANCH  21  23
ATOM     23  C   UNL     1       2.751   4.548  19.011  0.00  0.00    +0.000 A 
ATOM     24  C   UNL     1       2.168   3.831  17.960  0.00  0.00    +0.000 A 
ATOM     25  C   UNL     1       2.568   2.526  17.667  0.00  0.00    +0.000 A 
ATOM     26  C   UNL     1       3.574   1.939  18.418  0.00  0.00    +0.000 A 
ATOM     27  C   UNL     1       4.214   2.652  19.425  0.00  0.00    +0.000 A 
ATOM     28  C   UNL     1       3.812   3.963  19.714  0.00  0.00    +0.000 A 
BRANCH  26  29
ATOM     29  O   UNL     1       3.959   0.651  18.196  0.00  0.00    +0.000 OA
ATOM     30  H   UNL     1       4.915   0.585  18.360  0.00  0.00    +0.000 HD
ENDBRANCH  26  29
ENDBRANCH  21  23
ENDBRANCH  18  19
ENDBRANCH  17  18
ENDBRANCH   4  17
TORSDOF 6
ENDMDL
MODEL 4
REMARK VINA RESULT:      -7.4      3.009      4.890
REMARK  Name = 
REMARK  7 active torsions:
REMARK  status: ('A' for Active; 'I' for Inactive)
REMARK    1  A    between atoms: C_1  and  C_2
REMARK    2  A    between atoms: C_4  and  S_5
REMARK    3  A    between atoms: S_5  and  C_6
REMARK    4  A    between atoms: C_6  and  C_7
REMARK    5  A    between atoms: N_9  and  C_10
REMARK    6  A    between atoms: C_13  and  O_14
REMARK    7  A    between atoms: C_20  and  C_21
REMARK                            x       y       z     vdW  Elec       q    Type
REMARK                         _______ _______ _______ _____ _____    ______ ____
ROOT
ATOM      1  C   UNL     1      -1.937  11.486  17.404  0.00  0.00    +0.000 C 
ATOM      2  C   UNL     1      -1.097  11.907  18.585  0.00  0.00    +0.000 A 
ATOM      3  C   UNL     1      -1.167  11.058  19.810  0.00  0.00    +0.000 A 
ATOM      4  C   UNL     1      -0.402  11.448  20.845  0.00  0.00    +0.000 A 
ATOM      5  N   UNL     1       0.401  12.594  20.721  0.00  0.00    +0.000 N 
ATOM      6  N   UNL     1       1.221  13.154  21.658  0.00  0.00    +0.000 NA
ATOM      7  C   UNL     1       1.784  14.185  21.035  0.00  0.00    +0.000 A 
ATOM      8  C   UNL     1       1.318  14.365  19.719  0.00  0.00    +0.000 A 
ATOM      9  C   UNL     1       0.412  13.334  19.528  0.00  0.00    +0.000 A 
ATOM     10  N   UNL     1      -0.362  12.972  18.458  0.00  0.00    +0.000 NA
ENDROOT
BRANCH   8  11
ATOM     11  C   UNL     1       1.680  15.399  18.761  0.00  0.00    +0.000 A 
ATOM     12  C   UNL     1       2.876  15.287  18.035  0.00  0.00    +0.000 A 
ATOM     13  C   UNL     1       3.283  16.303  17.167  0.00  0.00    +0.000 A 
ATOM     14  C   UNL     1       2.498  17.442  17.015  0.00  0.00    +0.000 A 
ATOM     15  C   UNL     1       1.302  17.561  17.718  0.00  0.00    +0.000 A 
ATOM     16  C   UNL     1       0.893  16.544  18.586  0.00  0.00    +0.000 A 
ENDBRANCH   8  11
BRANCH   4  17
ATOM     17  S   UNL     1      -0.360  10.486  22.300  0.00  0.00    +0.000 S 
BRANCH  17  18
ATOM     18  C   UNL     1       1.166   9.513  22.077  0.00  0.00    +0.000 C 
BRANCH  18  19
ATOM     19  C   UNL     1       0.878   8.258  21.276  0.00  0.00    +0.000 C 
ATOM     20  O   UNL     1      -0.280   7.867  21.137  0.00  0.00    +0.000 OA
ATOM     21  N   UNL     1       2.008   7.621  20.781  0.00  0.00    +0.000 N 
ATOM     22  H   UNL     1       2.913   7.958  21.093  0.00  0.00    +0.000 HD
BRANCH  21  23
ATOM     23  C   UNL     1       2.007   6.417  20.038  0.00  0.00    +0.000 A 
ATOM     24  C   UNL     1       2.340   6.359  18.680  0.00  0.00    +0.000 A 
ATOM     25  C   UNL     1       2.217   5.171  17.957  0.00  0.00    +0.000 A 
ATOM     26  C   UNL     1       1.776   4.026  18.602  0.00  0.00    +0.000 A 
ATOM     27  C   UNL     1       1.502   4.042  19.964  0.00  0.00    +0.000 A 
ATOM     28  C   UNL     1       1.629   5.235  20.687  0.00  0.00    +0.000 A 
BRANCH  26  29
ATOM     29  O   UNL     1       1.595   2.859  17.921  0.00  0.00    +0.000 OA
ATOM     30  H   UNL     1       0.900   2.348  18.370  0.00  0.00    +0.000 HD
ENDBRANCH  26  29
ENDBRANCH  21  23
ENDBRANCH  18  19
ENDBRANCH  17  18
ENDBRANCH   4  17
TORSDOF 6
ENDMDL
MODEL 5
REMARK VINA RESULT:      -7.3      2.933      3.669
REMARK  Name = 
REMARK  7 active torsions:
REMARK  status: ('A' for Active; 'I' for Inactive)
REMARK    1  A    between atoms: C_1  and  C_2
REMARK    2  A    between atoms: C_4  and  S_5
REMARK    3  A    between atoms: S_5  and  C_6
REMARK    4  A    between atoms: C_6  and  C_7
REMARK    5  A    between atoms: N_9  and  C_10
REMARK    6  A    between atoms: C_13  and  O_14
REMARK    7  A    between atoms: C_20  and  C_21
REMARK                            x       y       z     vdW  Elec       q    Type
REMARK                         _______ _______ _______ _____ _____    ______ ____
ROOT
ATOM      1  C   UNL     1      -2.395  11.113  17.118  0.00  0.00    +0.000 C 
ATOM      2  C   UNL     1      -1.324  11.378  18.148  0.00  0.00    +0.000 A 
ATOM      3  C   UNL     1      -0.753  10.198  18.860  0.00  0.00    +0.000 A 
ATOM      4  C   UNL     1       0.207  10.460  19.765  0.00  0.00    +0.000 A 
ATOM      5  N   UNL     1       0.612  11.787  19.982  0.00  0.00    +0.000 N 
ATOM      6  N   UNL     1       1.546  12.250  20.864  0.00  0.00    +0.000 NA
ATOM      7  C   UNL     1       1.587  13.561  20.648  0.00  0.00    +0.000 A 
ATOM      8  C   UNL     1       0.661  13.998  19.682  0.00  0.00    +0.000 A 
ATOM      9  C   UNL     1       0.025  12.841  19.263  0.00  0.00    +0.000 A 
ATOM     10  N   UNL     1      -0.962  12.612  18.341  0.00  0.00    +0.000 NA
ENDROOT
BRANCH   8  11
ATOM     11  C   UNL     1       0.403  15.354  19.219  0.00  0.00    +0.000 A 
ATOM     12  C   UNL     1       1.440  16.100  18.636  0.00  0.00    +0.000 A 
ATOM     13  C   UNL     1       1.237  17.429  18.256  0.00  0.00    +0.000 A 
ATOM     14  C   UNL     1      -0.005  18.026  18.453  0.00  0.00    +0.000 A 
ATOM     15  C   UNL     1      -1.047  17.294  19.017  0.00  0.00    +0.000 A 
ATOM     16  C   UNL     1      -0.845  15.964  19.398  0.00  0.00    +0.000 A 
ENDBRANCH   8  11
BRANCH   4  17
ATOM     17  S   UNL     1       0.987   9.144  20.603  0.00  0.00    +0.000 S 
BRANCH  17  18
ATOM     18  C   UNL     1       1.908   8.322  19.261  0.00  0.00    +0.000 C 
BRANCH  18  19
ATOM     19  C   UNL     1       2.079   6.846  19.566  0.00  0.00    +0.000 C 
ATOM     20  O   UNL     1       1.718   6.394  20.651  0.00  0.00    +0.000 OA
ATOM     21  N   UNL     1       2.688   6.118  18.552  0.00  0.00    +0.000 N 
ATOM     22  H   UNL     1       3.077   6.634  17.770  0.00  0.00    +0.000 HD
BRANCH  21  23
ATOM     23  C   UNL     1       2.992   4.738  18.609  0.00  0.00    +0.000 A 
ATOM     24  C   UNL     1       4.040   4.218  19.378  0.00  0.00    +0.000 A 
ATOM     25  C   UNL     1       4.378   2.865  19.316  0.00  0.00    +0.000 A 
ATOM     26  C   UNL     1       3.650   2.020  18.494  0.00  0.00    +0.000 A 
ATOM     27  C   UNL     1       2.564   2.498  17.771  0.00  0.00    +0.000 A 
ATOM     28  C   UNL     1       2.226   3.856  17.837  0.00  0.00    +0.000 A 
BRANCH  26  29
ATOM     29  O   UNL     1       3.979   0.703  18.369  0.00  0.00    +0.000 OA
ATOM     30  H   UNL     1       3.493   0.201  19.045  0.00  0.00    +0.000 HD
ENDBRANCH  26  29
ENDBRANCH  21  23
ENDBRANCH  18  19
ENDBRANCH  17  18
ENDBRANCH   4  17
TORSDOF 6
ENDMDL
MODEL 6
REMARK VINA RESULT:      -7.3      3.573      9.544
REMARK  Name = 
REMARK  7 active torsions:
REMARK  status: ('A' for Active; 'I' for Inactive)
REMARK    1  A    between atoms: C_1  and  C_2
REMARK    2  A    between atoms: C_4  and  S_5
REMARK    3  A    between atoms: S_5  and  C_6
REMARK    4  A    between atoms: C_6  and  C_7
REMARK    5  A    between atoms: N_9  and  C_10
REMARK    6  A    between atoms: C_13  and  O_14
REMARK    7  A    between atoms: C_20  and  C_21
REMARK                            x       y       z     vdW  Elec       q    Type
REMARK                         _______ _______ _______ _____ _____    ______ ____
ROOT
ATOM      1  C   UNL     1      -0.012   9.507  23.292  0.00  0.00    +0.000 C 
ATOM      2  C   UNL     1       0.418   9.623  21.850  0.00  0.00    +0.000 A 
ATOM      3  C   UNL     1       0.158  10.921  21.162  0.00  0.00    +0.000 A 
ATOM      4  C   UNL     1       0.559  11.001  19.880  0.00  0.00    +0.000 A 
ATOM      5  N   UNL     1       1.186   9.898  19.279  0.00  0.00    +0.000 N 
ATOM      6  N   UNL     1       1.640   9.782  17.996  0.00  0.00    +0.000 NA
ATOM      7  C   UNL     1       2.185   8.571  17.944  0.00  0.00    +0.000 A 
ATOM      8  C   UNL     1       2.057   7.847  19.145  0.00  0.00    +0.000 A 
ATOM      9  C   UNL     1       1.397   8.713  20.002  0.00  0.00    +0.000 A 
ATOM     10  N   UNL     1       0.993   8.591  21.305  0.00  0.00    +0.000 NA
ENDROOT
BRANCH   8  11
ATOM     11  C   UNL     1       2.498   6.492  19.440  0.00  0.00    +0.000 A 
ATOM     12  C   UNL     1       3.527   5.914  18.681  0.00  0.00    +0.000 A 
ATOM     13  C   UNL     1       3.915   4.589  18.894  0.00  0.00    +0.000 A 
ATOM     14  C   UNL     1       3.278   3.827  19.869  0.00  0.00    +0.000 A 
ATOM     15  C   UNL     1       2.264   4.392  20.640  0.00  0.00    +0.000 A 
ATOM     16  C   UNL     1       1.877   5.718  20.428  0.00  0.00    +0.000 A 
ENDBRANCH   8  11
BRANCH   4  17
ATOM     17  S   UNL     1       0.363  12.498  19.006  0.00  0.00    +0.000 S 
BRANCH  17  18
ATOM     18  C   UNL     1      -1.174  12.203  18.071  0.00  0.00    +0.000 C 
BRANCH  18  19
ATOM     19  C   UNL     1      -2.353  12.082  19.018  0.00  0.00    +0.000 C 
ATOM     20  O   UNL     1      -3.251  11.275  18.786  0.00  0.00    +0.000 OA
ATOM     21  N   UNL     1      -2.319  12.963  20.091  0.00  0.00    +0.000 N 
ATOM     22  H   UNL     1      -1.603  13.683  20.087  0.00  0.00    +0.000 HD
BRANCH  21  23
ATOM     23  C   UNL     1      -3.316  13.073  21.089  0.00  0.00    +0.000 A 
ATOM     24  C   UNL     1      -4.539  13.719  20.877  0.00  0.00    +0.000 A 
ATOM     25  C   UNL     1      -5.447  13.905  21.921  0.00  0.00    +0.000 A 
ATOM     26  C   UNL     1      -5.140  13.423  23.183  0.00  0.00    +0.000 A 
ATOM     27  C   UNL     1      -3.961  12.720  23.404  0.00  0.00    +0.000 A 
ATOM     28  C   UNL     1      -3.053  12.533  22.354  0.00  0.00    +0.000 A 
BRANCH  26  29
ATOM     29  O   UNL     1      -5.977  13.627  24.238  0.00  0.00    +0.000 OA
ATOM     30  H   UNL     1      -6.693  14.219  23.950  0.00  0.00    +0.000 HD
ENDBRANCH  26  29
ENDBRANCH  21  23
ENDBRANCH  18  19
ENDBRANCH  17  18
ENDBRANCH   4  17
TORSDOF 6
ENDMDL
MODEL 7
REMARK VINA RESULT:      -7.3      3.713     10.643
REMARK  Name = 
REMARK  7 active torsions:
REMARK  status: ('A' for Active; 'I' for Inactive)
REMARK    1  A    between atoms: C_1  and  C_2
REMARK    2  A    between atoms: C_4  and  S_5
REMARK    3  A    between atoms: S_5  and  C_6
REMARK    4  A    between atoms: C_6  and  C_7
REMARK    5  A    between atoms: N_9  and  C_10
REMARK    6  A    between atoms: C_13  and  O_14
REMARK    7  A    between atoms: C_20  and  C_21
REMARK                            x       y       z     vdW  Elec       q    Type
REMARK                         _______ _______ _______ _____ _____    ______ ____
ROOT
ATOM      1  C   UNL     1       2.336   4.034  21.245  0.00  0.00    +0.000 C 
ATOM      2  C   UNL     1       2.439   5.267  20.380  0.00  0.00    +0.000 A 
ATOM      3  C   UNL     1       1.588   6.435  20.752  0.00  0.00    +0.000 A 
ATOM      4  C   UNL     1       1.705   7.525  19.972  0.00  0.00    +0.000 A 
ATOM      5  N   UNL     1       2.597   7.509  18.887  0.00  0.00    +0.000 N 
ATOM      6  N   UNL     1       2.838   8.499  17.979  0.00  0.00    +0.000 NA
ATOM      7  C   UNL     1       3.789   8.006  17.193  0.00  0.00    +0.000 A 
ATOM      8  C   UNL     1       4.153   6.686  17.515  0.00  0.00    +0.000 A 
ATOM      9  C   UNL     1       3.366   6.367  18.610  0.00  0.00    +0.000 A 
ATOM     10  N   UNL     1       3.265   5.236  19.376  0.00  0.00    +0.000 NA
ENDROOT
BRANCH   8  11
ATOM     11  C   UNL     1       5.124   5.825  16.857  0.00  0.00    +0.000 A 
ATOM     12  C   UNL     1       6.189   5.285  17.595  0.00  0.00    +0.000 A 
ATOM     13  C   UNL     1       7.176   4.519  16.969  0.00  0.00    +0.000 A 
ATOM     14  C   UNL     1       7.109   4.284  15.599  0.00  0.00    +0.000 A 
ATOM     15  C   UNL     1       6.050   4.802  14.856  0.00  0.00    +0.000 A 
ATOM     16  C   UNL     1       5.062   5.567  15.482  0.00  0.00    +0.000 A 
ENDBRANCH   8  11
BRANCH   4  17
ATOM     17  S   UNL     1       0.805   8.967  20.362  0.00  0.00    +0.000 S 
BRANCH  17  18
ATOM     18  C   UNL     1       0.012   8.514  21.940  0.00  0.00    +0.000 C 
BRANCH  18  19
ATOM     19  C   UNL     1      -0.269   9.756  22.765  0.00  0.00    +0.000 C 
ATOM     20  O   UNL     1       0.124   9.825  23.928  0.00  0.00    +0.000 OA
ATOM     21  N   UNL     1      -1.010  10.726  22.105  0.00  0.00    +0.000 N 
ATOM     22  H   UNL     1      -1.405  10.485  21.202  0.00  0.00    +0.000 HD
BRANCH  21  23
ATOM     23  C   UNL     1      -1.433  11.954  22.669  0.00  0.00    +0.000 A 
ATOM     24  C   UNL     1      -2.649  12.104  23.345  0.00  0.00    +0.000 A 
ATOM     25  C   UNL     1      -3.079  13.357  23.786  0.00  0.00    +0.000 A 
ATOM     26  C   UNL     1      -2.278  14.466  23.567  0.00  0.00    +0.000 A 
ATOM     27  C   UNL     1      -1.036  14.334  22.956  0.00  0.00    +0.000 A 
ATOM     28  C   UNL     1      -0.607  13.074  22.518  0.00  0.00    +0.000 A 
BRANCH  26  29
ATOM     29  O   UNL     1      -2.684  15.713  23.938  0.00  0.00    +0.000 OA
ATOM     30  H   UNL     1      -2.198  15.966  24.741  0.00  0.00    +0.000 HD
ENDBRANCH  26  29
ENDBRANCH  21  23
ENDBRANCH  18  19
ENDBRANCH  17  18
ENDBRANCH   4  17
TORSDOF 6
ENDMDL
MODEL 8
REMARK VINA RESULT:      -7.3      3.766      9.474
REMARK  Name = 
REMARK  7 active torsions:
REMARK  status: ('A' for Active; 'I' for Inactive)
REMARK    1  A    between atoms: C_1  and  C_2
REMARK    2  A    between atoms: C_4  and  S_5
REMARK    3  A    between atoms: S_5  and  C_6
REMARK    4  A    between atoms: C_6  and  C_7
REMARK    5  A    between atoms: N_9  and  C_10
REMARK    6  A    between atoms: C_13  and  O_14
REMARK    7  A    between atoms: C_20  and  C_21
REMARK                            x       y       z     vdW  Elec       q    Type
REMARK                         _______ _______ _______ _____ _____    ______ ____
ROOT
ATOM      1  C   UNL     1       0.040   9.469  22.892  0.00  0.00    +0.000 C 
ATOM      2  C   UNL     1       0.577   9.589  21.486  0.00  0.00    +0.000 A 
ATOM      3  C   UNL     1       0.582  10.949  20.871  0.00  0.00    +0.000 A 
ATOM      4  C   UNL     1       1.075  11.031  19.622  0.00  0.00    +0.000 A 
ATOM      5  N   UNL     1       1.549   9.872  18.986  0.00  0.00    +0.000 N 
ATOM      6  N   UNL     1       2.061   9.752  17.726  0.00  0.00    +0.000 NA
ATOM      7  C   UNL     1       2.399   8.470  17.625  0.00  0.00    +0.000 A 
ATOM      8  C   UNL     1       2.074   7.714  18.766  0.00  0.00    +0.000 A 
ATOM      9  C   UNL     1       1.512   8.630  19.641  0.00  0.00    +0.000 A 
ATOM     10  N   UNL     1       1.007   8.507  20.908  0.00  0.00    +0.000 NA
ENDROOT
BRANCH   8  11
ATOM     11  C   UNL     1       2.264   6.289  18.997  0.00  0.00    +0.000 A 
ATOM     12  C   UNL     1       2.198   5.395  17.917  0.00  0.00    +0.000 A 
ATOM     13  C   UNL     1       2.300   4.017  18.123  0.00  0.00    +0.000 A 
ATOM     14  C   UNL     1       2.469   3.518  19.411  0.00  0.00    +0.000 A 
ATOM     15  C   UNL     1       2.550   4.395  20.491  0.00  0.00    +0.000 A 
ATOM     16  C   UNL     1       2.449   5.773  20.285  0.00  0.00    +0.000 A 
ENDBRANCH   8  11
BRANCH   4  17
ATOM     17  S   UNL     1       1.188  12.585  18.839  0.00  0.00    +0.000 S 
BRANCH  17  18
ATOM     18  C   UNL     1      -0.552  12.934  18.416  0.00  0.00    +0.000 C 
BRANCH  18  19
ATOM     19  C   UNL     1      -1.325  13.339  19.656  0.00  0.00    +0.000 C 
ATOM     20  O   UNL     1      -1.037  14.377  20.250  0.00  0.00    +0.000 OA
ATOM     21  N   UNL     1      -2.308  12.437  20.039  0.00  0.00    +0.000 N 
ATOM     22  H   UNL     1      -2.344  11.546  19.555  0.00  0.00    +0.000 HD
BRANCH  21  23
ATOM     23  C   UNL     1      -3.137  12.568  21.178  0.00  0.00    +0.000 A 
ATOM     24  C   UNL     1      -4.457  13.030  21.112  0.00  0.00    +0.000 A 
ATOM     25  C   UNL     1      -5.202  13.253  22.271  0.00  0.00    +0.000 A 
ATOM     26  C   UNL     1      -4.631  12.993  23.507  0.00  0.00    +0.000 A 
ATOM     27  C   UNL     1      -3.346  12.472  23.597  0.00  0.00    +0.000 A 
ATOM     28  C   UNL     1      -2.602  12.247  22.431  0.00  0.00    +0.000 A 
BRANCH  26  29
ATOM     29  O   UNL     1      -5.308  13.244  24.663  0.00  0.00    +0.000 OA
ATOM     30  H   UNL     1      -6.095  13.773  24.447  0.00  0.00    +0.000 HD
ENDBRANCH  26  29
ENDBRANCH  21  23
ENDBRANCH  18  19
ENDBRANCH  17  18
ENDBRANCH   4  17
TORSDOF 6
ENDMDL
MODEL 9
REMARK VINA RESULT:      -7.2      1.186      1.226
REMARK  Name = 
REMARK  7 active torsions:
REMARK  status: ('A' for Active; 'I' for Inactive)
REMARK    1  A    between atoms: C_1  and  C_2
REMARK    2  A    between atoms: C_4  and  S_5
REMARK    3  A    between atoms: S_5  and  C_6
REMARK    4  A    between atoms: C_6  and  C_7
REMARK    5  A    between atoms: N_9  and  C_10
REMARK    6  A    between atoms: C_13  and  O_14
REMARK    7  A    between atoms: C_20  and  C_21
REMARK                            x       y       z     vdW  Elec       q    Type
REMARK                         _______ _______ _______ _____ _____    ______ ____
ROOT
ATOM      1  C   UNL     1      -2.204  11.469  17.227  0.00  0.00    +0.000 C 
ATOM      2  C   UNL     1      -1.604  11.187  18.583  0.00  0.00    +0.000 A 
ATOM      3  C   UNL     1      -0.469  10.219  18.640  0.00  0.00    +0.000 A 
ATOM      4  C   UNL     1       0.055   9.993  19.857  0.00  0.00    +0.000 A 
ATOM      5  N   UNL     1      -0.472  10.661  20.975  0.00  0.00    +0.000 N 
ATOM      6  N   UNL     1      -0.092  10.549  22.281  0.00  0.00    +0.000 NA
ATOM      7  C   UNL     1      -0.864  11.415  22.929  0.00  0.00    +0.000 A 
ATOM      8  C   UNL     1      -1.794  12.066  22.097  0.00  0.00    +0.000 A 
ATOM      9  C   UNL     1      -1.540  11.562  20.832  0.00  0.00    +0.000 A 
ATOM     10  N   UNL     1      -2.105  11.809  19.609  0.00  0.00    +0.000 NA
ENDROOT
BRANCH   8  11
ATOM     11  C   UNL     1      -2.811  13.042  22.461  0.00  0.00    +0.000 A 
ATOM     12  C   UNL     1      -2.805  14.311  21.860  0.00  0.00    +0.000 A 
ATOM     13  C   UNL     1      -3.722  15.290  22.248  0.00  0.00    +0.000 A 
ATOM     14  C   UNL     1      -4.657  15.012  23.241  0.00  0.00    +0.000 A 
ATOM     15  C   UNL     1      -4.684  13.752  23.837  0.00  0.00    +0.000 A 
ATOM     16  C   UNL     1      -3.766  12.772  23.448  0.00  0.00    +0.000 A 
ENDBRANCH   8  11
BRANCH   4  17
ATOM     17  S   UNL     1       1.429   8.930  20.023  0.00  0.00    +0.000 S 
BRANCH  17  18
ATOM     18  C   UNL     1       1.974   8.731  18.295  0.00  0.00    +0.000 C 
BRANCH  18  19
ATOM     19  C   UNL     1       2.731   7.427  18.128  0.00  0.00    +0.000 C 
ATOM     20  O   UNL     1       3.787   7.403  17.499  0.00  0.00    +0.000 OA
ATOM     21  N   UNL     1       2.108   6.325  18.699  0.00  0.00    +0.000 N 
ATOM     22  H   UNL     1       1.166   6.449  19.057  0.00  0.00    +0.000 HD
BRANCH  21  23
ATOM     23  C   UNL     1       2.591   4.997  18.648  0.00  0.00    +0.000 A 
ATOM     24  C   UNL     1       3.629   4.531  19.463  0.00  0.00    +0.000 A 
ATOM     25  C   UNL     1       4.152   3.246  19.301  0.00  0.00    +0.000 A 
ATOM     26  C   UNL     1       3.620   2.413  18.331  0.00  0.00    +0.000 A 
ATOM     27  C   UNL     1       2.546   2.828  17.553  0.00  0.00    +0.000 A 
ATOM     28  C   UNL     1       2.022   4.117  17.720  0.00  0.00    +0.000 A 
BRANCH  26  29
ATOM     29  O   UNL     1       4.135   1.171  18.109  0.00  0.00    +0.000 OA
ATOM     30  H   UNL     1       4.382   0.785  18.966  0.00  0.00    +0.000 HD
ENDBRANCH  26  29
ENDBRANCH  21  23
ENDBRANCH  18  19
ENDBRANCH  17  18
ENDBRANCH   4  17
TORSDOF 6
ENDMDL
