MODEL 1
REMARK VINA RESULT:      -8.9      0.000      0.000
REMARK  Name = 
REMARK  4 active torsions:
REMARK  status: ('A' for Active; 'I' for Inactive)
REMARK    1  A    between atoms: C_1  and  C_2
REMARK    2  A    between atoms: C_5  and  C_6
REMARK    3  A    between atoms: C_9  and  C_10
REMARK    4  A    between atoms: C_14  and  N_15
REMARK                            x       y       z     vdW  Elec       q    Type
REMARK                         _______ _______ _______ _____ _____    ______ ____
ROOT
ATOM      1  C   UNL     1       2.589   6.410  19.743  0.00  0.00    +0.000 A 
ATOM      2  C   UNL     1       2.115   5.318  20.489  0.00  0.00    +0.000 A 
ATOM      3  C   UNL     1       2.671   4.048  20.331  0.00  0.00    +0.000 A 
ATOM      4  C   UNL     1       3.687   3.850  19.402  0.00  0.00    +0.000 A 
ATOM      5  C   UNL     1       4.191   4.928  18.669  0.00  0.00    +0.000 A 
ATOM      6  C   UNL     1       3.661   6.211  18.861  0.00  0.00    +0.000 A 
ENDROOT
BRANCH   5   7
ATOM      7  N   UNL     1       5.186   4.721  17.676  0.00  0.00    +0.000 N 
ATOM      8  C   UNL     1       4.730   4.350  16.341  0.00  0.00    +0.000 C 
ATOM      9  C   UNL     1       5.753   4.735  15.287  0.00  0.00    +0.000 C 
ATOM     10  C   UNL     1       7.063   4.089  15.675  0.00  0.00    +0.000 C 
ATOM     11  N   UNL     1       7.415   4.435  17.028  0.00  0.00    +0.000 N 
ATOM     12  C   UNL     1       6.526   4.687  18.037  0.00  0.00    +0.000 C 
ATOM     13  O   UNL     1       6.960   4.854  19.174  0.00  0.00    +0.000 OA
ATOM     14  H   UNL     1       8.366   4.312  17.350  0.00  0.00    +0.000 HD
ENDBRANCH   5   7
BRANCH   1  18
ATOM     15  C   UNL     1       0.710   9.348  20.342  0.00  0.00    +0.000 A 
ATOM     16  N   UNL     1       1.122   9.613  19.090  0.00  0.00    +0.000 NA
ATOM     17  O   UNL     1       1.915   8.514  18.767  0.00  0.00    +0.000 OA
ATOM     18  C   UNL     1       1.907   7.691  19.855  0.00  0.00    +0.000 A 
ATOM     19  N   UNL     1       1.190   8.162  20.851  0.00  0.00    +0.000 NA
BRANCH  15  24
ATOM     20  C   UNL     1      -2.758  12.768  23.447  0.00  0.00    +0.000 C 
ATOM     21  C   UNL     1      -1.867  11.864  22.650  0.00  0.00    +0.000 A 
ATOM     22  C   UNL     1      -1.227  10.773  23.241  0.00  0.00    +0.000 A 
ATOM     23  C   UNL     1      -0.390   9.952  22.478  0.00  0.00    +0.000 A 
ATOM     24  C   UNL     1      -0.177  10.209  21.115  0.00  0.00    +0.000 A 
ATOM     25  C   UNL     1      -0.829  11.296  20.524  0.00  0.00    +0.000 A 
ATOM     26  C   UNL     1      -1.661  12.107  21.290  0.00  0.00    +0.000 A 
ATOM     27  F   UNL     1      -2.272  13.144  20.700  0.00  0.00    +0.000 F 
ENDBRANCH  15  24
ENDBRANCH   1  18
TORSDOF 3
ENDMDL
MODEL 2
REMARK VINA RESULT:      -8.8      5.781      7.766
REMARK  Name = 
REMARK  4 active torsions:
REMARK  status: ('A' for Active; 'I' for Inactive)
REMARK    1  A    between atoms: C_1  and  C_2
REMARK    2  A    between atoms: C_5  and  C_6
REMARK    3  A    between atoms: C_9  and  C_10
REMARK    4  A    between atoms: C_14  and  N_15
REMARK                            x       y       z     vdW  Elec       q    Type
REMARK                         _______ _______ _______ _____ _____    ______ ____
ROOT
ATOM      1  C   UNL     1       6.513   6.216  17.205  0.00  0.00    +0.000 A 
ATOM      2  C   UNL     1       6.937   5.579  16.027  0.00  0.00    +0.000 A 
ATOM      3  C   UNL     1       6.262   4.460  15.537  0.00  0.00    +0.000 A 
ATOM      4  C   UNL     1       5.174   3.949  16.237  0.00  0.00    +0.000 A 
ATOM      5  C   UNL     1       4.720   4.585  17.396  0.00  0.00    +0.000 A 
ATOM      6  C   UNL     1       5.372   5.733  17.863  0.00  0.00    +0.000 A 
ENDROOT
BRANCH   5   7
ATOM      7  N   UNL     1       3.648   4.032  18.147  0.00  0.00    +0.000 N 
ATOM      8  C   UNL     1       2.302   4.500  17.831  0.00  0.00    +0.000 C 
ATOM      9  C   UNL     1       1.259   3.470  18.226  0.00  0.00    +0.000 C 
ATOM     10  C   UNL     1       1.461   3.165  19.692  0.00  0.00    +0.000 C 
ATOM     11  N   UNL     1       2.826   2.783  19.944  0.00  0.00    +0.000 N 
ATOM     12  C   UNL     1       3.915   3.234  19.250  0.00  0.00    +0.000 C 
ATOM     13  O   UNL     1       5.035   2.921  19.646  0.00  0.00    +0.000 OA
ATOM     14  H   UNL     1       3.065   2.297  20.798  0.00  0.00    +0.000 HD
ENDBRANCH   5   7
BRANCH   1  18
ATOM     15  C   UNL     1       8.371   9.079  18.143  0.00  0.00    +0.000 A 
ATOM     16  N   UNL     1       8.897   8.193  19.007  0.00  0.00    +0.000 NA
ATOM     17  O   UNL     1       8.195   7.019  18.741  0.00  0.00    +0.000 OA
ATOM     18  C   UNL     1       7.312   7.308  17.743  0.00  0.00    +0.000 A 
ATOM     19  N   UNL     1       7.373   8.561  17.348  0.00  0.00    +0.000 NA
BRANCH  15  24
ATOM     20  C   UNL     1      10.131  14.555  17.625  0.00  0.00    +0.000 C 
ATOM     21  C   UNL     1       9.685  13.133  17.777  0.00  0.00    +0.000 A 
ATOM     22  C   UNL     1      10.576  12.132  18.171  0.00  0.00    +0.000 A 
ATOM     23  C   UNL     1      10.137  10.810  18.293  0.00  0.00    +0.000 A 
ATOM     24  C   UNL     1       8.804  10.465  18.022  0.00  0.00    +0.000 A 
ATOM     25  C   UNL     1       7.912  11.472  17.639  0.00  0.00    +0.000 A 
ATOM     26  C   UNL     1       8.356  12.786  17.521  0.00  0.00    +0.000 A 
ATOM     27  F   UNL     1       7.483  13.732  17.149  0.00  0.00    +0.000 F 
ENDBRANCH  15  24
ENDBRANCH   1  18
TORSDOF 3
ENDMDL
MODEL 3
REMARK VINA RESULT:      -8.8      6.078      8.009
REMARK  Name = 
REMARK  4 active torsions:
REMARK  status: ('A' for Active; 'I' for Inactive)
REMARK    1  A    between atoms: C_1  and  C_2
REMARK    2  A    between atoms: C_5  and  C_6
REMARK    3  A    between atoms: C_9  and  C_10
REMARK    4  A    between atoms: C_14  and  N_15
REMARK                            x       y       z     vdW  Elec       q    Type
REMARK                         _______ _______ _______ _____ _____    ______ ____
ROOT
ATOM      1  C   UNL     1       6.468   6.284  17.189  0.00  0.00    +0.000 A 
ATOM      2  C   UNL     1       6.856   5.692  15.976  0.00  0.00    +0.000 A 
ATOM      3  C   UNL     1       6.163   4.596  15.461  0.00  0.00    +0.000 A 
ATOM      4  C   UNL     1       5.092   4.062  16.170  0.00  0.00    +0.000 A 
ATOM      5  C   UNL     1       4.674   4.653  17.366  0.00  0.00    +0.000 A 
ATOM      6  C   UNL     1       5.344   5.780  17.859  0.00  0.00    +0.000 A 
ENDROOT
BRANCH   5   7
ATOM      7  N   UNL     1       3.620   4.075  18.123  0.00  0.00    +0.000 N 
ATOM      8  C   UNL     1       2.260   4.497  17.805  0.00  0.00    +0.000 C 
ATOM      9  C   UNL     1       1.249   3.439  18.212  0.00  0.00    +0.000 C 
ATOM     10  C   UNL     1       1.462   3.156  19.680  0.00  0.00    +0.000 C 
ATOM     11  N   UNL     1       2.839   2.820  19.935  0.00  0.00    +0.000 N 
ATOM     12  C   UNL     1       3.913   3.298  19.235  0.00  0.00    +0.000 C 
ATOM     13  O   UNL     1       5.042   3.024  19.634  0.00  0.00    +0.000 OA
ATOM     14  H   UNL     1       3.094   2.352  20.795  0.00  0.00    +0.000 HD
ENDBRANCH   5   7
BRANCH   1  18
ATOM     15  C   UNL     1       8.378   9.094  18.180  0.00  0.00    +0.000 A 
ATOM     16  N   UNL     1       8.886   8.184  19.029  0.00  0.00    +0.000 NA
ATOM     17  O   UNL     1       8.162   7.028  18.741  0.00  0.00    +0.000 OA
ATOM     18  C   UNL     1       7.286   7.351  17.747  0.00  0.00    +0.000 A 
ATOM     19  N   UNL     1       7.372   8.610  17.374  0.00  0.00    +0.000 NA
BRANCH  15  24
ATOM     20  C   UNL     1      10.145  14.582  17.829  0.00  0.00    +0.000 C 
ATOM     21  C   UNL     1       9.679  13.160  17.901  0.00  0.00    +0.000 A 
ATOM     22  C   UNL     1       8.405  12.792  17.463  0.00  0.00    +0.000 A 
ATOM     23  C   UNL     1       7.989  11.459  17.553  0.00  0.00    +0.000 A 
ATOM     24  C   UNL     1       8.837  10.474  18.083  0.00  0.00    +0.000 A 
ATOM     25  C   UNL     1      10.116  10.845  18.511  0.00  0.00    +0.000 A 
ATOM     26  C   UNL     1      10.522  12.173  18.417  0.00  0.00    +0.000 A 
ATOM     27  F   UNL     1      11.752  12.503  18.836  0.00  0.00    +0.000 F 
ENDBRANCH  15  24
ENDBRANCH   1  18
TORSDOF 3
ENDMDL
MODEL 4
REMARK VINA RESULT:      -8.6      3.946      9.631
REMARK  Name = 
REMARK  4 active torsions:
REMARK  status: ('A' for Active; 'I' for Inactive)
REMARK    1  A    between atoms: C_1  and  C_2
REMARK    2  A    between atoms: C_5  and  C_6
REMARK    3  A    between atoms: C_9  and  C_10
REMARK    4  A    between atoms: C_14  and  N_15
REMARK                            x       y       z     vdW  Elec       q    Type
REMARK                         _______ _______ _______ _____ _____    ______ ____
ROOT
ATOM      1  C   UNL     1       0.651  10.513  18.694  0.00  0.00    +0.000 A 
ATOM      2  C   UNL     1       1.298  11.759  18.744  0.00  0.00    +0.000 A 
ATOM      3  C   UNL     1       0.582  12.945  18.578  0.00  0.00    +0.000 A 
ATOM      4  C   UNL     1      -0.786  12.896  18.329  0.00  0.00    +0.000 A 
ATOM      5  C   UNL     1      -1.453  11.668  18.301  0.00  0.00    +0.000 A 
ATOM      6  C   UNL     1      -0.740  10.481  18.512  0.00  0.00    +0.000 A 
ENDROOT
BRANCH   5   7
ATOM      7  N   UNL     1      -2.838  11.609  17.988  0.00  0.00    +0.000 N 
ATOM      8  C   UNL     1      -3.779  11.762  19.092  0.00  0.00    +0.000 C 
ATOM      9  C   UNL     1      -5.122  12.270  18.600  0.00  0.00    +0.000 C 
ATOM     10  C   UNL     1      -5.600  11.315  17.531  0.00  0.00    +0.000 C 
ATOM     11  N   UNL     1      -4.594  11.152  16.514  0.00  0.00    +0.000 N 
ATOM     12  C   UNL     1      -3.243  11.229  16.716  0.00  0.00    +0.000 C 
ATOM     13  O   UNL     1      -2.493  10.952  15.784  0.00  0.00    +0.000 OA
ATOM     14  H   UNL     1      -4.845  10.769  15.612  0.00  0.00    +0.000 HD
ENDBRANCH   5   7
BRANCH   1  18
ATOM     15  C   UNL     1       2.595   7.569  18.417  0.00  0.00    +0.000 A 
ATOM     16  N   UNL     1       2.167   7.422  19.683  0.00  0.00    +0.000 NA
ATOM     17  O   UNL     1       1.408   8.568  19.908  0.00  0.00    +0.000 OA
ATOM     18  C   UNL     1       1.451   9.299  18.758  0.00  0.00    +0.000 A 
ATOM     19  N   UNL     1       2.175   8.735  17.816  0.00  0.00    +0.000 NA
BRANCH  15  24
ATOM     20  C   UNL     1       5.912   3.744  15.638  0.00  0.00    +0.000 C 
ATOM     21  C   UNL     1       5.050   4.748  16.342  0.00  0.00    +0.000 A 
ATOM     22  C   UNL     1       5.289   6.119  16.222  0.00  0.00    +0.000 A 
ATOM     23  C   UNL     1       4.478   7.035  16.900  0.00  0.00    +0.000 A 
ATOM     24  C   UNL     1       3.419   6.598  17.710  0.00  0.00    +0.000 A 
ATOM     25  C   UNL     1       3.176   5.224  17.819  0.00  0.00    +0.000 A 
ATOM     26  C   UNL     1       3.987   4.319  17.140  0.00  0.00    +0.000 A 
ATOM     27  F   UNL     1       3.735   3.009  17.264  0.00  0.00    +0.000 F 
ENDBRANCH  15  24
ENDBRANCH   1  18
TORSDOF 3
ENDMDL
MODEL 5
REMARK VINA RESULT:      -8.6      1.816      2.312
REMARK  Name = 
REMARK  4 active torsions:
REMARK  status: ('A' for Active; 'I' for Inactive)
REMARK    1  A    between atoms: C_1  and  C_2
REMARK    2  A    between atoms: C_5  and  C_6
REMARK    3  A    between atoms: C_9  and  C_10
REMARK    4  A    between atoms: C_14  and  N_15
REMARK                            x       y       z     vdW  Elec       q    Type
REMARK                         _______ _______ _______ _____ _____    ______ ____
ROOT
ATOM      1  C   UNL     1       3.457   6.157  18.241  0.00  0.00    +0.000 A 
ATOM      2  C   UNL     1       3.242   4.996  19.002  0.00  0.00    +0.000 A 
ATOM      3  C   UNL     1       3.870   3.796  18.668  0.00  0.00    +0.000 A 
ATOM      4  C   UNL     1       4.696   3.736  17.551  0.00  0.00    +0.000 A 
ATOM      5  C   UNL     1       4.944   4.886  16.796  0.00  0.00    +0.000 A 
ATOM      6  C   UNL     1       4.348   6.101  17.159  0.00  0.00    +0.000 A 
ENDROOT
BRANCH   5   7
ATOM      7  N   UNL     1       5.739   4.817  15.620  0.00  0.00    +0.000 N 
ATOM      8  C   UNL     1       5.359   3.830  14.615  0.00  0.00    +0.000 C 
ATOM      9  C   UNL     1       5.853   4.234  13.237  0.00  0.00    +0.000 C 
ATOM     10  C   UNL     1       7.346   4.445  13.339  0.00  0.00    +0.000 C 
ATOM     11  N   UNL     1       7.653   5.371  14.398  0.00  0.00    +0.000 N 
ATOM     12  C   UNL     1       6.927   5.531  15.546  0.00  0.00    +0.000 C 
ATOM     13  O   UNL     1       7.367   6.271  16.421  0.00  0.00    +0.000 OA
ATOM     14  H   UNL     1       8.559   5.821  14.428  0.00  0.00    +0.000 HD
ENDBRANCH   5   7
BRANCH   1  18
ATOM     15  C   UNL     1       1.469   8.865  19.355  0.00  0.00    +0.000 A 
ATOM     16  N   UNL     1       1.609   9.222  18.066  0.00  0.00    +0.000 NA
ATOM     17  O   UNL     1       2.422   8.222  17.536  0.00  0.00    +0.000 OA
ATOM     18  C   UNL     1       2.696   7.357  18.554  0.00  0.00    +0.000 A 
ATOM     19  N   UNL     1       2.143   7.713  19.694  0.00  0.00    +0.000 NA
BRANCH  15  24
ATOM     20  C   UNL     1      -1.738  11.770  23.180  0.00  0.00    +0.000 C 
ATOM     21  C   UNL     1      -0.899  11.034  22.180  0.00  0.00    +0.000 A 
ATOM     22  C   UNL     1      -0.856  11.428  20.840  0.00  0.00    +0.000 A 
ATOM     23  C   UNL     1      -0.074  10.717  19.924  0.00  0.00    +0.000 A 
ATOM     24  C   UNL     1       0.672   9.600  20.329  0.00  0.00    +0.000 A 
ATOM     25  C   UNL     1       0.635   9.214  21.673  0.00  0.00    +0.000 A 
ATOM     26  C   UNL     1      -0.144   9.929  22.579  0.00  0.00    +0.000 A 
ATOM     27  F   UNL     1      -0.166   9.538  23.861  0.00  0.00    +0.000 F 
ENDBRANCH  15  24
ENDBRANCH   1  18
TORSDOF 3
ENDMDL
MODEL 6
REMARK VINA RESULT:      -8.6      1.051      1.303
REMARK  Name = 
REMARK  4 active torsions:
REMARK  status: ('A' for Active; 'I' for Inactive)
REMARK    1  A    between atoms: C_1  and  C_2
REMARK    2  A    between atoms: C_5  and  C_6
REMARK    3  A    between atoms: C_9  and  C_10
REMARK    4  A    between atoms: C_14  and  N_15
REMARK                            x       y       z     vdW  Elec       q    Type
REMARK                         _______ _______ _______ _____ _____    ______ ____
ROOT
ATOM      1  C   UNL     1       2.400   6.704  19.766  0.00  0.00    +0.000 A 
ATOM      2  C   UNL     1       1.810   5.676  20.519  0.00  0.00    +0.000 A 
ATOM      3  C   UNL     1       2.236   4.355  20.384  0.00  0.00    +0.000 A 
ATOM      4  C   UNL     1       3.239   4.043  19.472  0.00  0.00    +0.000 A 
ATOM      5  C   UNL     1       3.858   5.054  18.732  0.00  0.00    +0.000 A 
ATOM      6  C   UNL     1       3.458   6.387  18.901  0.00  0.00    +0.000 A 
ENDROOT
BRANCH   5   7
ATOM      7  N   UNL     1       4.839   4.734  17.756  0.00  0.00    +0.000 N 
ATOM      8  C   UNL     1       4.362   4.296  16.449  0.00  0.00    +0.000 C 
ATOM      9  C   UNL     1       5.399   4.561  15.372  0.00  0.00    +0.000 C 
ATOM     10  C   UNL     1       6.678   3.882  15.803  0.00  0.00    +0.000 C 
ATOM     11  N   UNL     1       7.050   4.301  17.130  0.00  0.00    +0.000 N 
ATOM     12  C   UNL     1       6.177   4.663  18.119  0.00  0.00    +0.000 C 
ATOM     13  O   UNL     1       6.622   4.885  19.242  0.00  0.00    +0.000 OA
ATOM     14  H   UNL     1       7.995   4.157  17.459  0.00  0.00    +0.000 HD
ENDBRANCH   5   7
BRANCH   1  18
ATOM     15  C   UNL     1       0.889   9.850  20.353  0.00  0.00    +0.000 A 
ATOM     16  N   UNL     1       1.094   9.958  19.029  0.00  0.00    +0.000 NA
ATOM     17  O   UNL     1       1.730   8.764  18.697  0.00  0.00    +0.000 OA
ATOM     18  C   UNL     1       1.849   8.049  19.853  0.00  0.00    +0.000 A 
ATOM     19  N   UNL     1       1.358   8.676  20.899  0.00  0.00    +0.000 NA
BRANCH  15  24
ATOM     20  C   UNL     1      -1.771  13.877  23.526  0.00  0.00    +0.000 C 
ATOM     21  C   UNL     1      -1.063  12.842  22.707  0.00  0.00    +0.000 A 
ATOM     22  C   UNL     1      -0.073  13.197  21.787  0.00  0.00    +0.000 A 
ATOM     23  C   UNL     1       0.563  12.212  21.026  0.00  0.00    +0.000 A 
ATOM     24  C   UNL     1       0.221  10.858  21.167  0.00  0.00    +0.000 A 
ATOM     25  C   UNL     1      -0.763  10.505  22.096  0.00  0.00    +0.000 A 
ATOM     26  C   UNL     1      -1.391  11.491  22.851  0.00  0.00    +0.000 A 
ATOM     27  F   UNL     1      -2.333  11.127  23.733  0.00  0.00    +0.000 F 
ENDBRANCH  15  24
ENDBRANCH   1  18
TORSDOF 3
ENDMDL
MODEL 7
REMARK VINA RESULT:      -8.5      1.388      1.732
REMARK  Name = 
REMARK  4 active torsions:
REMARK  status: ('A' for Active; 'I' for Inactive)
REMARK    1  A    between atoms: C_1  and  C_2
REMARK    2  A    between atoms: C_5  and  C_6
REMARK    3  A    between atoms: C_9  and  C_10
REMARK    4  A    between atoms: C_14  and  N_15
REMARK                            x       y       z     vdW  Elec       q    Type
REMARK                         _______ _______ _______ _____ _____    ______ ____
ROOT
ATOM      1  C   UNL     1       2.943   6.881  18.811  0.00  0.00    +0.000 A 
ATOM      2  C   UNL     1       2.764   5.876  19.775  0.00  0.00    +0.000 A 
ATOM      3  C   UNL     1       3.481   4.681  19.704  0.00  0.00    +0.000 A 
ATOM      4  C   UNL     1       4.363   4.467  18.651  0.00  0.00    +0.000 A 
ATOM      5  C   UNL     1       4.576   5.465  17.696  0.00  0.00    +0.000 A 
ATOM      6  C   UNL     1       3.888   6.681  17.793  0.00  0.00    +0.000 A 
ENDROOT
BRANCH   5   7
ATOM      7  N   UNL     1       5.430   5.228  16.586  0.00  0.00    +0.000 N 
ATOM      8  C   UNL     1       5.041   4.171  15.658  0.00  0.00    +0.000 C 
ATOM      9  C   UNL     1       5.640   4.403  14.282  0.00  0.00    +0.000 C 
ATOM     10  C   UNL     1       7.136   4.527  14.458  0.00  0.00    +0.000 C 
ATOM     11  N   UNL     1       7.446   5.533  15.441  0.00  0.00    +0.000 N 
ATOM     12  C   UNL     1       6.667   5.853  16.519  0.00  0.00    +0.000 C 
ATOM     13  O   UNL     1       7.107   6.648  17.346  0.00  0.00    +0.000 OA
ATOM     14  H   UNL     1       8.377   5.925  15.486  0.00  0.00    +0.000 HD
ENDBRANCH   5   7
BRANCH   1  18
ATOM     15  C   UNL     1       0.739   9.606  19.303  0.00  0.00    +0.000 A 
ATOM     16  N   UNL     1       0.916   9.715  17.975  0.00  0.00    +0.000 NA
ATOM     17  O   UNL     1       1.814   8.691  17.679  0.00  0.00    +0.000 OA
ATOM     18  C   UNL     1       2.094   8.062  18.856  0.00  0.00    +0.000 A 
ATOM     19  N   UNL     1       1.467   8.591  19.884  0.00  0.00    +0.000 NA
BRANCH  15  24
ATOM     20  C   UNL     1      -2.821  12.960  22.375  0.00  0.00    +0.000 C 
ATOM     21  C   UNL     1      -1.892  12.106  21.567  0.00  0.00    +0.000 A 
ATOM     22  C   UNL     1      -1.852  12.196  20.174  0.00  0.00    +0.000 A 
ATOM     23  C   UNL     1      -0.985  11.379  19.441  0.00  0.00    +0.000 A 
ATOM     24  C   UNL     1      -0.147  10.457  20.087  0.00  0.00    +0.000 A 
ATOM     25  C   UNL     1      -0.182  10.376  21.483  0.00  0.00    +0.000 A 
ATOM     26  C   UNL     1      -1.047  11.195  22.204  0.00  0.00    +0.000 A 
ATOM     27  F   UNL     1      -1.064  11.096  23.541  0.00  0.00    +0.000 F 
ENDBRANCH  15  24
ENDBRANCH   1  18
TORSDOF 3
ENDMDL
MODEL 8
REMARK VINA RESULT:      -8.5      5.882      7.998
REMARK  Name = 
REMARK  4 active torsions:
REMARK  status: ('A' for Active; 'I' for Inactive)
REMARK    1  A    between atoms: C_1  and  C_2
REMARK    2  A    between atoms: C_5  and  C_6
REMARK    3  A    between atoms: C_9  and  C_10
REMARK    4  A    between atoms: C_14  and  N_15
REMARK                            x       y       z     vdW  Elec       q    Type
REMARK                         _______ _______ _______ _____ _____    ______ ____
ROOT
ATOM      1  C   UNL     1       6.381   6.162  16.964  0.00  0.00    +0.000 A 
ATOM      2  C   UNL     1       6.788   5.695  15.704  0.00  0.00    +0.000 A 
ATOM      3  C   UNL     1       6.099   4.663  15.067  0.00  0.00    +0.000 A 
ATOM      4  C   UNL     1       5.012   4.066  15.697  0.00  0.00    +0.000 A 
ATOM      5  C   UNL     1       4.575   4.534  16.939  0.00  0.00    +0.000 A 
ATOM      6  C   UNL     1       5.241   5.600  17.558  0.00  0.00    +0.000 A 
ENDROOT
BRANCH   5   7
ATOM      7  N   UNL     1       3.503   3.889  17.614  0.00  0.00    +0.000 N 
ATOM      8  C   UNL     1       3.562   2.435  17.723  0.00  0.00    +0.000 C 
ATOM      9  C   UNL     1       2.755   1.942  18.910  0.00  0.00    +0.000 C 
ATOM     10  C   UNL     1       1.350   2.476  18.751  0.00  0.00    +0.000 C 
ATOM     11  N   UNL     1       1.371   3.905  18.573  0.00  0.00    +0.000 N 
ATOM     12  C   UNL     1       2.375   4.613  17.970  0.00  0.00    +0.000 C 
ATOM     13  O   UNL     1       2.211   5.815  17.777  0.00  0.00    +0.000 OA
ATOM     14  H   UNL     1       0.528   4.445  18.718  0.00  0.00    +0.000 HD
ENDBRANCH   5   7
BRANCH   1  18
ATOM     15  C   UNL     1       8.298   8.837  18.267  0.00  0.00    +0.000 A 
ATOM     16  N   UNL     1       8.751   7.848  19.057  0.00  0.00    +0.000 NA
ATOM     17  O   UNL     1       8.019   6.736  18.643  0.00  0.00    +0.000 OA
ATOM     18  C   UNL     1       7.194   7.161  17.643  0.00  0.00    +0.000 A 
ATOM     19  N   UNL     1       7.319   8.443  17.382  0.00  0.00    +0.000 NA
BRANCH  15  24
ATOM     20  C   UNL     1      10.176  14.296  18.436  0.00  0.00    +0.000 C 
ATOM     21  C   UNL     1       9.687  12.881  18.372  0.00  0.00    +0.000 A 
ATOM     22  C   UNL     1       8.604  12.524  17.565  0.00  0.00    +0.000 A 
ATOM     23  C   UNL     1       8.160  11.198  17.533  0.00  0.00    +0.000 A 
ATOM     24  C   UNL     1       8.786  10.209  18.306  0.00  0.00    +0.000 A 
ATOM     25  C   UNL     1       9.878  10.568  19.105  0.00  0.00    +0.000 A 
ATOM     26  C   UNL     1      10.314  11.890  19.130  0.00  0.00    +0.000 A 
ATOM     27  F   UNL     1      11.360  12.208  19.906  0.00  0.00    +0.000 F 
ENDBRANCH  15  24
ENDBRANCH   1  18
TORSDOF 3
ENDMDL
MODEL 9
REMARK VINA RESULT:      -8.5      1.065      1.343
REMARK  Name = 
REMARK  4 active torsions:
REMARK  status: ('A' for Active; 'I' for Inactive)
REMARK    1  A    between atoms: C_1  and  C_2
REMARK    2  A    between atoms: C_5  and  C_6
REMARK    3  A    between atoms: C_9  and  C_10
REMARK    4  A    between atoms: C_14  and  N_15
REMARK                            x       y       z     vdW  Elec       q    Type
REMARK                         _______ _______ _______ _____ _____    ______ ____
ROOT
ATOM      1  C   UNL     1       2.377   6.497  20.014  0.00  0.00    +0.000 A 
ATOM      2  C   UNL     1       1.811   5.431  20.732  0.00  0.00    +0.000 A 
ATOM      3  C   UNL     1       2.341   4.144  20.638  0.00  0.00    +0.000 A 
ATOM      4  C   UNL     1       3.426   3.903  19.801  0.00  0.00    +0.000 A 
ATOM      5  C   UNL     1       4.020   4.955  19.099  0.00  0.00    +0.000 A 
ATOM      6  C   UNL     1       3.514   6.255  19.228  0.00  0.00    +0.000 A 
ENDROOT
BRANCH   5   7
ATOM      7  N   UNL     1       5.090   4.704  18.197  0.00  0.00    +0.000 N 
ATOM      8  C   UNL     1       6.352   5.390  18.452  0.00  0.00    +0.000 C 
ATOM      9  C   UNL     1       7.519   4.631  17.846  0.00  0.00    +0.000 C 
ATOM     10  C   UNL     1       7.221   4.448  16.376  0.00  0.00    +0.000 C 
ATOM     11  N   UNL     1       5.930   3.836  16.196  0.00  0.00    +0.000 N 
ATOM     12  C   UNL     1       4.857   3.991  17.030  0.00  0.00    +0.000 C 
ATOM     13  O   UNL     1       3.778   3.509  16.695  0.00  0.00    +0.000 OA
ATOM     14  H   UNL     1       5.694   3.406  15.311  0.00  0.00    +0.000 HD
ENDBRANCH   5   7
BRANCH   1  18
ATOM     15  C   UNL     1       0.548   9.499  20.421  0.00  0.00    +0.000 A 
ATOM     16  N   UNL     1       1.041   9.718  19.190  0.00  0.00    +0.000 NA
ATOM     17  O   UNL     1       1.820   8.589  18.944  0.00  0.00    +0.000 OA
ATOM     18  C   UNL     1       1.725   7.798  20.050  0.00  0.00    +0.000 A 
ATOM     19  N   UNL     1       0.965   8.316  20.990  0.00  0.00    +0.000 NA
BRANCH  15  24
ATOM     20  C   UNL     1      -2.997  13.100  23.218  0.00  0.00    +0.000 C 
ATOM     21  C   UNL     1      -2.086  12.150  22.502  0.00  0.00    +0.000 A 
ATOM     22  C   UNL     1      -1.408  11.140  23.189  0.00  0.00    +0.000 A 
ATOM     23  C   UNL     1      -0.553  10.274  22.500  0.00  0.00    +0.000 A 
ATOM     24  C   UNL     1      -0.358  10.404  21.117  0.00  0.00    +0.000 A 
ATOM     25  C   UNL     1      -1.046  11.410  20.430  0.00  0.00    +0.000 A 
ATOM     26  C   UNL     1      -1.897  12.267  21.123  0.00  0.00    +0.000 A 
ATOM     27  F   UNL     1      -2.543  13.224  20.443  0.00  0.00    +0.000 F 
ENDBRANCH  15  24
ENDBRANCH   1  18
TORSDOF 3
ENDMDL
