MODEL 1
REMARK VINA RESULT:      -9.0      0.000      0.000
REMARK  Name = 
REMARK  4 active torsions:
REMARK  status: ('A' for Active; 'I' for Inactive)
REMARK    1  A    between atoms: C_1  and  C_2
REMARK    2  A    between atoms: C_5  and  C_6
REMARK    3  A    between atoms: N_8  and  C_9
REMARK    4  A    between atoms: C_19  and  C_20
REMARK                            x       y       z     vdW  Elec       q    Type
REMARK                         _______ _______ _______ _____ _____    ______ ____
ROOT
ATOM      1  C   UNL     1       3.613   5.730  18.318  0.00  0.00    +0.000 A 
ATOM      2  O   UNL     1       4.237   6.371  17.260  0.00  0.00    +0.000 OA
ATOM      3  C   UNL     1       4.984   5.621  16.392  0.00  0.00    +0.000 A 
ATOM      4  C   UNL     1       5.739   6.297  15.437  0.00  0.00    +0.000 A 
ATOM      5  C   UNL     1       6.512   5.580  14.519  0.00  0.00    +0.000 A 
ATOM      6  C   UNL     1       6.526   4.184  14.554  0.00  0.00    +0.000 A 
ATOM      7  C   UNL     1       5.772   3.508  15.508  0.00  0.00    +0.000 A 
ATOM      8  C   UNL     1       5.003   4.232  16.425  0.00  0.00    +0.000 A 
ATOM      9  C   UNL     1       4.195   3.541  17.433  0.00  0.00    +0.000 A 
ATOM     10  O   UNL     1       4.106   2.320  17.415  0.00  0.00    +0.000 OA
ATOM     11  C   UNL     1       3.514   4.391  18.452  0.00  0.00    +0.000 A 
ENDROOT
BRANCH  11  12
ATOM     12  C   UNL     1       2.693   3.714  19.469  0.00  0.00    +0.000 A 
ATOM     13  C   UNL     1       3.302   3.223  20.637  0.00  0.00    +0.000 A 
ATOM     14  C   UNL     1       2.526   2.718  21.682  0.00  0.00    +0.000 A 
ATOM     15  C   UNL     1       1.138   2.696  21.569  0.00  0.00    +0.000 A 
ATOM     16  C   UNL     1       0.526   3.158  20.403  0.00  0.00    +0.000 A 
ATOM     17  C   UNL     1       1.299   3.662  19.356  0.00  0.00    +0.000 A 
ENDBRANCH  11  12
BRANCH   1  20
ATOM     18  C   UNL     1       2.209   7.614  18.764  0.00  0.00    +0.000 C 
ATOM     19  O   UNL     1       1.961   7.799  17.575  0.00  0.00    +0.000 OA
ATOM     20  N   UNL     1       3.079   6.627  19.224  0.00  0.00    +0.000 N 
ATOM     21  H   UNL     1       2.778   6.198  20.086  0.00  0.00    +0.000 HD
BRANCH  18  26
ATOM     22  C   UNL     1      -0.537  11.111  22.523  0.00  0.00    +0.000 C 
ATOM     23  C   UNL     1       0.184  10.188  21.585  0.00  0.00    +0.000 A 
ATOM     24  C   UNL     1       0.771   9.003  22.039  0.00  0.00    +0.000 A 
ATOM     25  C   UNL     1       1.435   8.142  21.150  0.00  0.00    +0.000 A 
ATOM     26  C   UNL     1       1.517   8.462  19.790  0.00  0.00    +0.000 A 
ATOM     27  C   UNL     1       0.919   9.648  19.338  0.00  0.00    +0.000 A 
ATOM     28  C   UNL     1       0.266  10.505  20.226  0.00  0.00    +0.000 A 
ENDBRANCH  18  26
ENDBRANCH   1  20
TORSDOF 3
ENDMDL
MODEL 2
REMARK VINA RESULT:      -8.9      0.259      1.331
REMARK  Name = 
REMARK  4 active torsions:
REMARK  status: ('A' for Active; 'I' for Inactive)
REMARK    1  A    between atoms: C_1  and  C_2
REMARK    2  A    between atoms: C_5  and  C_6
REMARK    3  A    between atoms: N_8  and  C_9
REMARK    4  A    between atoms: C_19  and  C_20
REMARK                            x       y       z     vdW  Elec       q    Type
REMARK                         _______ _______ _______ _____ _____    ______ ____
ROOT
ATOM      1  C   UNL     1       3.581   6.005  18.323  0.00  0.00    +0.000 A 
ATOM      2  O   UNL     1       4.219   6.578  17.236  0.00  0.00    +0.000 OA
ATOM      3  C   UNL     1       4.975   5.775  16.425  0.00  0.00    +0.000 A 
ATOM      4  C   UNL     1       5.744   6.389  15.439  0.00  0.00    +0.000 A 
ATOM      5  C   UNL     1       6.526   5.615  14.577  0.00  0.00    +0.000 A 
ATOM      6  C   UNL     1       6.535   4.224  14.697  0.00  0.00    +0.000 A 
ATOM      7  C   UNL     1       5.766   3.609  15.681  0.00  0.00    +0.000 A 
ATOM      8  C   UNL     1       4.989   4.390  16.543  0.00  0.00    +0.000 A 
ATOM      9  C   UNL     1       4.166   3.764  17.581  0.00  0.00    +0.000 A 
ATOM     10  O   UNL     1       4.073   2.544  17.637  0.00  0.00    +0.000 OA
ATOM     11  C   UNL     1       3.475   4.676  18.537  0.00  0.00    +0.000 A 
ENDROOT
BRANCH  11  12
ATOM     12  C   UNL     1       2.639   4.064  19.584  0.00  0.00    +0.000 A 
ATOM     13  C   UNL     1       1.284   3.800  19.321  0.00  0.00    +0.000 A 
ATOM     14  C   UNL     1       0.513   3.082  20.238  0.00  0.00    +0.000 A 
ATOM     15  C   UNL     1       1.086   2.625  21.421  0.00  0.00    +0.000 A 
ATOM     16  C   UNL     1       2.425   2.904  21.701  0.00  0.00    +0.000 A 
ATOM     17  C   UNL     1       3.198   3.623  20.788  0.00  0.00    +0.000 A 
ENDBRANCH  11  12
BRANCH   1  20
ATOM     18  C   UNL     1       2.090   7.845  18.660  0.00  0.00    +0.000 C 
ATOM     19  O   UNL     1       1.777   7.898  17.473  0.00  0.00    +0.000 OA
ATOM     20  N   UNL     1       3.038   6.956  19.166  0.00  0.00    +0.000 N 
ATOM     21  H   UNL     1       2.803   6.599  20.080  0.00  0.00    +0.000 HD
BRANCH  18  26
ATOM     22  C   UNL     1      -0.572  11.141  22.653  0.00  0.00    +0.000 C 
ATOM     23  C   UNL     1       0.105  10.319  21.596  0.00  0.00    +0.000 A 
ATOM     24  C   UNL     1       0.293  10.811  20.300  0.00  0.00    +0.000 A 
ATOM     25  C   UNL     1       0.935  10.035  19.322  0.00  0.00    +0.000 A 
ATOM     26  C   UNL     1       1.399   8.752  19.634  0.00  0.00    +0.000 A 
ATOM     27  C   UNL     1       1.216   8.266  20.938  0.00  0.00    +0.000 A 
ATOM     28  C   UNL     1       0.570   9.038  21.906  0.00  0.00    +0.000 A 
ENDBRANCH  18  26
ENDBRANCH   1  20
TORSDOF 3
ENDMDL
MODEL 3
REMARK VINA RESULT:      -8.5      0.508      1.066
REMARK  Name = 
REMARK  4 active torsions:
REMARK  status: ('A' for Active; 'I' for Inactive)
REMARK    1  A    between atoms: C_1  and  C_2
REMARK    2  A    between atoms: C_5  and  C_6
REMARK    3  A    between atoms: N_8  and  C_9
REMARK    4  A    between atoms: C_19  and  C_20
REMARK                            x       y       z     vdW  Elec       q    Type
REMARK                         _______ _______ _______ _____ _____    ______ ____
ROOT
ATOM      1  C   UNL     1       3.448   5.997  18.263  0.00  0.00    +0.000 A 
ATOM      2  O   UNL     1       4.071   6.556  17.160  0.00  0.00    +0.000 OA
ATOM      3  C   UNL     1       4.861   5.755  16.380  0.00  0.00    +0.000 A 
ATOM      4  C   UNL     1       5.612   6.364  15.378  0.00  0.00    +0.000 A 
ATOM      5  C   UNL     1       6.427   5.591  14.546  0.00  0.00    +0.000 A 
ATOM      6  C   UNL     1       6.487   4.206  14.713  0.00  0.00    +0.000 A 
ATOM      7  C   UNL     1       5.737   3.597  15.715  0.00  0.00    +0.000 A 
ATOM      8  C   UNL     1       4.926   4.377  16.546  0.00  0.00    +0.000 A 
ATOM      9  C   UNL     1       4.121   3.756  17.601  0.00  0.00    +0.000 A 
ATOM     10  O   UNL     1       4.074   2.536  17.698  0.00  0.00    +0.000 OA
ATOM     11  C   UNL     1       3.391   4.674  18.522  0.00  0.00    +0.000 A 
ENDROOT
BRANCH  11  12
ATOM     12  C   UNL     1       2.573   4.067  19.585  0.00  0.00    +0.000 A 
ATOM     13  C   UNL     1       1.232   3.735  19.323  0.00  0.00    +0.000 A 
ATOM     14  C   UNL     1       0.484   3.020  20.261  0.00  0.00    +0.000 A 
ATOM     15  C   UNL     1       1.066   2.633  21.465  0.00  0.00    +0.000 A 
ATOM     16  C   UNL     1       2.389   2.979  21.744  0.00  0.00    +0.000 A 
ATOM     17  C   UNL     1       3.140   3.695  20.810  0.00  0.00    +0.000 A 
ENDBRANCH  11  12
BRANCH   1  20
ATOM     18  C   UNL     1       2.252   8.057  18.476  0.00  0.00    +0.000 C 
ATOM     19  O   UNL     1       2.284   8.281  17.268  0.00  0.00    +0.000 OA
ATOM     20  N   UNL     1       2.866   6.956  19.070  0.00  0.00    +0.000 N 
ATOM     21  H   UNL     1       2.337   6.569  19.838  0.00  0.00    +0.000 HD
BRANCH  18  26
ATOM     22  C   UNL     1      -0.737  11.876  21.698  0.00  0.00    +0.000 C 
ATOM     23  C   UNL     1       0.041  10.870  20.900  0.00  0.00    +0.000 A 
ATOM     24  C   UNL     1       0.471   9.667  21.468  0.00  0.00    +0.000 A 
ATOM     25  C   UNL     1       1.189   8.729  20.709  0.00  0.00    +0.000 A 
ATOM     26  C   UNL     1       1.486   8.989  19.366  0.00  0.00    +0.000 A 
ATOM     27  C   UNL     1       1.045  10.195  18.799  0.00  0.00    +0.000 A 
ATOM     28  C   UNL     1       0.336  11.128  19.559  0.00  0.00    +0.000 A 
ENDBRANCH  18  26
ENDBRANCH   1  20
TORSDOF 3
ENDMDL
MODEL 4
REMARK VINA RESULT:      -8.0      1.718      6.970
REMARK  Name = 
REMARK  4 active torsions:
REMARK  status: ('A' for Active; 'I' for Inactive)
REMARK    1  A    between atoms: C_1  and  C_2
REMARK    2  A    between atoms: C_5  and  C_6
REMARK    3  A    between atoms: N_8  and  C_9
REMARK    4  A    between atoms: C_19  and  C_20
REMARK                            x       y       z     vdW  Elec       q    Type
REMARK                         _______ _______ _______ _____ _____    ______ ____
ROOT
ATOM      1  C   UNL     1       2.952   6.358  18.196  0.00  0.00    +0.000 A 
ATOM      2  O   UNL     1       2.787   7.726  18.331  0.00  0.00    +0.000 OA
ATOM      3  C   UNL     1       2.001   8.191  19.351  0.00  0.00    +0.000 A 
ATOM      4  C   UNL     1       1.708   9.553  19.374  0.00  0.00    +0.000 A 
ATOM      5  C   UNL     1       0.918  10.082  20.399  0.00  0.00    +0.000 A 
ATOM      6  C   UNL     1       0.424   9.249  21.405  0.00  0.00    +0.000 A 
ATOM      7  C   UNL     1       0.716   7.888  21.382  0.00  0.00    +0.000 A 
ATOM      8  C   UNL     1       1.505   7.365  20.352  0.00  0.00    +0.000 A 
ATOM      9  C   UNL     1       1.832   5.938  20.313  0.00  0.00    +0.000 A 
ATOM     10  O   UNL     1       1.502   5.208  21.239  0.00  0.00    +0.000 OA
ATOM     11  C   UNL     1       2.564   5.445  19.110  0.00  0.00    +0.000 A 
ENDROOT
BRANCH  11  12
ATOM     12  C   UNL     1       2.906   4.014  19.057  0.00  0.00    +0.000 A 
ATOM     13  C   UNL     1       2.211   3.168  18.174  0.00  0.00    +0.000 A 
ATOM     14  C   UNL     1       2.620   1.845  17.993  0.00  0.00    +0.000 A 
ATOM     15  C   UNL     1       3.721   1.356  18.692  0.00  0.00    +0.000 A 
ATOM     16  C   UNL     1       4.400   2.181  19.589  0.00  0.00    +0.000 A 
ATOM     17  C   UNL     1       3.994   3.504  19.774  0.00  0.00    +0.000 A 
ENDBRANCH  11  12
BRANCH   1  20
ATOM     18  C   UNL     1       4.962   5.809  17.021  0.00  0.00    +0.000 C 
ATOM     19  O   UNL     1       5.671   5.991  18.008  0.00  0.00    +0.000 OA
ATOM     20  N   UNL     1       3.585   6.028  17.013  0.00  0.00    +0.000 N 
ATOM     21  H   UNL     1       3.077   5.355  16.457  0.00  0.00    +0.000 HD
BRANCH  18  26
ATOM     22  C   UNL     1       7.145   3.631  12.083  0.00  0.00    +0.000 C 
ATOM     23  C   UNL     1       6.618   4.207  13.365  0.00  0.00    +0.000 A 
ATOM     24  C   UNL     1       7.396   5.064  14.150  0.00  0.00    +0.000 A 
ATOM     25  C   UNL     1       6.888   5.605  15.343  0.00  0.00    +0.000 A 
ATOM     26  C   UNL     1       5.590   5.290  15.762  0.00  0.00    +0.000 A 
ATOM     27  C   UNL     1       4.812   4.436  14.966  0.00  0.00    +0.000 A 
ATOM     28  C   UNL     1       5.323   3.895  13.784  0.00  0.00    +0.000 A 
ENDBRANCH  18  26
ENDBRANCH   1  20
TORSDOF 3
ENDMDL
MODEL 5
REMARK VINA RESULT:      -7.6      7.662     10.938
REMARK  Name = 
REMARK  4 active torsions:
REMARK  status: ('A' for Active; 'I' for Inactive)
REMARK    1  A    between atoms: C_1  and  C_2
REMARK    2  A    between atoms: C_5  and  C_6
REMARK    3  A    between atoms: N_8  and  C_9
REMARK    4  A    between atoms: C_19  and  C_20
REMARK                            x       y       z     vdW  Elec       q    Type
REMARK                         _______ _______ _______ _____ _____    ______ ____
ROOT
ATOM      1  C   UNL     1      -3.672  12.646  19.801  0.00  0.00    +0.000 A 
ATOM      2  O   UNL     1      -4.070  13.111  21.043  0.00  0.00    +0.000 OA
ATOM      3  C   UNL     1      -5.343  12.835  21.467  0.00  0.00    +0.000 A 
ATOM      4  C   UNL     1      -5.783  13.449  22.637  0.00  0.00    +0.000 A 
ATOM      5  C   UNL     1      -7.070  13.193  23.120  0.00  0.00    +0.000 A 
ATOM      6  C   UNL     1      -7.916  12.319  22.433  0.00  0.00    +0.000 A 
ATOM      7  C   UNL     1      -7.476  11.706  21.264  0.00  0.00    +0.000 A 
ATOM      8  C   UNL     1      -6.188  11.968  20.785  0.00  0.00    +0.000 A 
ATOM      9  C   UNL     1      -5.701  11.327  19.561  0.00  0.00    +0.000 A 
ATOM     10  O   UNL     1      -6.382  10.476  19.002  0.00  0.00    +0.000 OA
ATOM     11  C   UNL     1      -4.369  11.766  19.053  0.00  0.00    +0.000 A 
ENDROOT
BRANCH  11  12
ATOM     12  C   UNL     1      -3.862  11.128  17.826  0.00  0.00    +0.000 A 
ATOM     13  C   UNL     1      -4.327  11.567  16.574  0.00  0.00    +0.000 A 
ATOM     14  C   UNL     1      -3.748  11.087  15.397  0.00  0.00    +0.000 A 
ATOM     15  C   UNL     1      -2.705  10.167  15.460  0.00  0.00    +0.000 A 
ATOM     16  C   UNL     1      -2.254   9.708  16.698  0.00  0.00    +0.000 A 
ATOM     17  C   UNL     1      -2.831  10.183  17.877  0.00  0.00    +0.000 A 
ENDBRANCH  11  12
BRANCH   1  20
ATOM     18  C   UNL     1      -1.284  12.624  19.934  0.00  0.00    +0.000 C 
ATOM     19  O   UNL     1      -1.271  11.750  20.798  0.00  0.00    +0.000 OA
ATOM     20  N   UNL     1      -2.455  13.175  19.416  0.00  0.00    +0.000 N 
ATOM     21  H   UNL     1      -2.398  13.380  18.430  0.00  0.00    +0.000 HD
BRANCH  18  26
ATOM     22  C   UNL     1       3.683  14.786  17.801  0.00  0.00    +0.000 C 
ATOM     23  C   UNL     1       2.413  14.192  18.337  0.00  0.00    +0.000 A 
ATOM     24  C   UNL     1       2.197  12.811  18.333  0.00  0.00    +0.000 A 
ATOM     25  C   UNL     1       1.009  12.267  18.846  0.00  0.00    +0.000 A 
ATOM     26  C   UNL     1       0.019  13.106  19.371  0.00  0.00    +0.000 A 
ATOM     27  C   UNL     1       0.245  14.491  19.380  0.00  0.00    +0.000 A 
ATOM     28  C   UNL     1       1.425  15.029  18.863  0.00  0.00    +0.000 A 
ENDBRANCH  18  26
ENDBRANCH   1  20
TORSDOF 3
ENDMDL
MODEL 6
REMARK VINA RESULT:      -7.5      7.544     10.747
REMARK  Name = 
REMARK  4 active torsions:
REMARK  status: ('A' for Active; 'I' for Inactive)
REMARK    1  A    between atoms: C_1  and  C_2
REMARK    2  A    between atoms: C_5  and  C_6
REMARK    3  A    between atoms: N_8  and  C_9
REMARK    4  A    between atoms: C_19  and  C_20
REMARK                            x       y       z     vdW  Elec       q    Type
REMARK                         _______ _______ _______ _____ _____    ______ ____
ROOT
ATOM      1  C   UNL     1      -3.542  12.508  19.676  0.00  0.00    +0.000 A 
ATOM      2  O   UNL     1      -3.983  12.900  20.929  0.00  0.00    +0.000 OA
ATOM      3  C   UNL     1      -5.283  12.645  21.273  0.00  0.00    +0.000 A 
ATOM      4  C   UNL     1      -5.757  13.192  22.463  0.00  0.00    +0.000 A 
ATOM      5  C   UNL     1      -7.074  12.953  22.867  0.00  0.00    +0.000 A 
ATOM      6  C   UNL     1      -7.917  12.162  22.082  0.00  0.00    +0.000 A 
ATOM      7  C   UNL     1      -7.443  11.616  20.894  0.00  0.00    +0.000 A 
ATOM      8  C   UNL     1      -6.125  11.860  20.494  0.00  0.00    +0.000 A 
ATOM      9  C   UNL     1      -5.602  11.288  19.251  0.00  0.00    +0.000 A 
ATOM     10  O   UNL     1      -6.285  10.505  18.602  0.00  0.00    +0.000 OA
ATOM     11  C   UNL     1      -4.233  11.709  18.836  0.00  0.00    +0.000 A 
ENDROOT
BRANCH  11  12
ATOM     12  C   UNL     1      -3.689  11.140  17.592  0.00  0.00    +0.000 A 
ATOM     13  C   UNL     1      -2.759  10.088  17.660  0.00  0.00    +0.000 A 
ATOM     14  C   UNL     1      -2.349   9.430  16.498  0.00  0.00    +0.000 A 
ATOM     15  C   UNL     1      -2.861   9.816  15.263  0.00  0.00    +0.000 A 
ATOM     16  C   UNL     1      -3.766  10.875  15.183  0.00  0.00    +0.000 A 
ATOM     17  C   UNL     1      -4.178  11.537  16.342  0.00  0.00    +0.000 A 
ENDBRANCH  11  12
BRANCH   1  20
ATOM     18  C   UNL     1      -1.168  12.414  19.957  0.00  0.00    +0.000 C 
ATOM     19  O   UNL     1      -1.232  11.513  20.790  0.00  0.00    +0.000 OA
ATOM     20  N   UNL     1      -2.289  13.015  19.386  0.00  0.00    +0.000 N 
ATOM     21  H   UNL     1      -2.165  13.249  18.412  0.00  0.00    +0.000 HD
BRANCH  18  26
ATOM     22  C   UNL     1       4.017  14.480  18.302  0.00  0.00    +0.000 C 
ATOM     23  C   UNL     1       2.686  13.917  18.704  0.00  0.00    +0.000 A 
ATOM     24  C   UNL     1       2.273  12.651  18.277  0.00  0.00    +0.000 A 
ATOM     25  C   UNL     1       1.028  12.131  18.667  0.00  0.00    +0.000 A 
ATOM     26  C   UNL     1       0.180  12.878  19.493  0.00  0.00    +0.000 A 
ATOM     27  C   UNL     1       0.603  14.144  19.925  0.00  0.00    +0.000 A 
ATOM     28  C   UNL     1       1.838  14.661  19.530  0.00  0.00    +0.000 A 
ENDBRANCH  18  26
ENDBRANCH   1  20
TORSDOF 3
ENDMDL
MODEL 7
REMARK VINA RESULT:      -7.5      3.556      9.119
REMARK  Name = 
REMARK  4 active torsions:
REMARK  status: ('A' for Active; 'I' for Inactive)
REMARK    1  A    between atoms: C_1  and  C_2
REMARK    2  A    between atoms: C_5  and  C_6
REMARK    3  A    between atoms: N_8  and  C_9
REMARK    4  A    between atoms: C_19  and  C_20
REMARK                            x       y       z     vdW  Elec       q    Type
REMARK                         _______ _______ _______ _____ _____    ______ ____
ROOT
ATOM      1  C   UNL     1      -0.273  10.634  18.287  0.00  0.00    +0.000 A 
ATOM      2  O   UNL     1      -1.456  10.089  17.817  0.00  0.00    +0.000 OA
ATOM      3  C   UNL     1      -2.635  10.692  18.163  0.00  0.00    +0.000 A 
ATOM      4  C   UNL     1      -3.819  10.040  17.825  0.00  0.00    +0.000 A 
ATOM      5  C   UNL     1      -5.052  10.616  18.145  0.00  0.00    +0.000 A 
ATOM      6  C   UNL     1      -5.101  11.849  18.800  0.00  0.00    +0.000 A 
ATOM      7  C   UNL     1      -3.918  12.501  19.137  0.00  0.00    +0.000 A 
ATOM      8  C   UNL     1      -2.688  11.917  18.816  0.00  0.00    +0.000 A 
ATOM      9  C   UNL     1      -1.431  12.589  19.154  0.00  0.00    +0.000 A 
ATOM     10  O   UNL     1      -1.448  13.718  19.629  0.00  0.00    +0.000 OA
ATOM     11  C   UNL     1      -0.171  11.835  18.896  0.00  0.00    +0.000 A 
ENDROOT
BRANCH  11  12
ATOM     12  C   UNL     1       1.102  12.498  19.224  0.00  0.00    +0.000 A 
ATOM     13  C   UNL     1       1.841  13.123  18.204  0.00  0.00    +0.000 A 
ATOM     14  C   UNL     1       2.967  13.888  18.514  0.00  0.00    +0.000 A 
ATOM     15  C   UNL     1       3.366  14.034  19.840  0.00  0.00    +0.000 A 
ATOM     16  C   UNL     1       2.653  13.396  20.857  0.00  0.00    +0.000 A 
ATOM     17  C   UNL     1       1.527  12.629  20.551  0.00  0.00    +0.000 A 
ENDBRANCH  11  12
BRANCH   1  20
ATOM     18  C   UNL     1       1.247   8.954  19.051  0.00  0.00    +0.000 C 
ATOM     19  O   UNL     1       0.786   8.955  20.190  0.00  0.00    +0.000 OA
ATOM     20  N   UNL     1       0.810   9.811  18.043  0.00  0.00    +0.000 N 
ATOM     21  H   UNL     1       0.791   9.380  17.131  0.00  0.00    +0.000 HD
BRANCH  18  26
ATOM     22  C   UNL     1       5.312   4.933  17.951  0.00  0.00    +0.000 C 
ATOM     23  C   UNL     1       4.279   5.992  18.205  0.00  0.00    +0.000 A 
ATOM     24  C   UNL     1       4.120   7.076  17.336  0.00  0.00    +0.000 A 
ATOM     25  C   UNL     1       3.144   8.055  17.579  0.00  0.00    +0.000 A 
ATOM     26  C   UNL     1       2.312   7.957  18.702  0.00  0.00    +0.000 A 
ATOM     27  C   UNL     1       2.471   6.863  19.565  0.00  0.00    +0.000 A 
ATOM     28  C   UNL     1       3.448   5.895  19.324  0.00  0.00    +0.000 A 
ENDBRANCH  18  26
ENDBRANCH   1  20
TORSDOF 3
ENDMDL
MODEL 8
REMARK VINA RESULT:      -7.4      3.844     10.308
REMARK  Name = 
REMARK  4 active torsions:
REMARK  status: ('A' for Active; 'I' for Inactive)
REMARK    1  A    between atoms: C_1  and  C_2
REMARK    2  A    between atoms: C_5  and  C_6
REMARK    3  A    between atoms: N_8  and  C_9
REMARK    4  A    between atoms: C_19  and  C_20
REMARK                            x       y       z     vdW  Elec       q    Type
REMARK                         _______ _______ _______ _____ _____    ______ ____
ROOT
ATOM      1  C   UNL     1      -0.094  11.914  21.601  0.00  0.00    +0.000 A 
ATOM      2  O   UNL     1      -1.267  11.550  22.240  0.00  0.00    +0.000 OA
ATOM      3  C   UNL     1      -1.988  12.520  22.883  0.00  0.00    +0.000 A 
ATOM      4  C   UNL     1      -3.071  12.115  23.660  0.00  0.00    +0.000 A 
ATOM      5  C   UNL     1      -3.847  13.065  24.330  0.00  0.00    +0.000 A 
ATOM      6  C   UNL     1      -3.543  14.424  24.219  0.00  0.00    +0.000 A 
ATOM      7  C   UNL     1      -2.461  14.829  23.443  0.00  0.00    +0.000 A 
ATOM      8  C   UNL     1      -1.687  13.873  22.777  0.00  0.00    +0.000 A 
ATOM      9  C   UNL     1      -0.549  14.277  21.948  0.00  0.00    +0.000 A 
ATOM     10  O   UNL     1      -0.328  15.465  21.748  0.00  0.00    +0.000 OA
ATOM     11  C   UNL     1       0.299  13.187  21.386  0.00  0.00    +0.000 A 
ENDROOT
BRANCH  11  12
ATOM     12  C   UNL     1       1.444  13.575  20.545  0.00  0.00    +0.000 A 
ATOM     13  C   UNL     1       1.276  13.683  19.153  0.00  0.00    +0.000 A 
ATOM     14  C   UNL     1       2.300  14.197  18.355  0.00  0.00    +0.000 A 
ATOM     15  C   UNL     1       3.497  14.607  18.938  0.00  0.00    +0.000 A 
ATOM     16  C   UNL     1       3.681  14.481  20.316  0.00  0.00    +0.000 A 
ATOM     17  C   UNL     1       2.660  13.965  21.117  0.00  0.00    +0.000 A 
ENDBRANCH  11  12
BRANCH   1  20
ATOM     18  C   UNL     1       0.274  10.180  19.995  0.00  0.00    +0.000 C 
ATOM     19  O   UNL     1      -0.719  10.482  19.338  0.00  0.00    +0.000 OA
ATOM     20  N   UNL     1       0.631  10.814  21.184  0.00  0.00    +0.000 N 
ATOM     21  H   UNL     1       1.629  10.922  21.296  0.00  0.00    +0.000 HD
BRANCH  18  26
ATOM     22  C   UNL     1       3.796   6.125  17.747  0.00  0.00    +0.000 C 
ATOM     23  C   UNL     1       2.883   7.147  18.358  0.00  0.00    +0.000 A 
ATOM     24  C   UNL     1       2.419   7.016  19.671  0.00  0.00    +0.000 A 
ATOM     25  C   UNL     1       1.573   7.983  20.236  0.00  0.00    +0.000 A 
ATOM     26  C   UNL     1       1.179   9.098  19.486  0.00  0.00    +0.000 A 
ATOM     27  C   UNL     1       1.653   9.229  18.172  0.00  0.00    +0.000 A 
ATOM     28  C   UNL     1       2.490   8.261  17.611  0.00  0.00    +0.000 A 
ENDBRANCH  18  26
ENDBRANCH   1  20
TORSDOF 3
ENDMDL
MODEL 9
REMARK VINA RESULT:      -7.3      3.768      9.624
REMARK  Name = 
REMARK  4 active torsions:
REMARK  status: ('A' for Active; 'I' for Inactive)
REMARK    1  A    between atoms: C_1  and  C_2
REMARK    2  A    between atoms: C_5  and  C_6
REMARK    3  A    between atoms: N_8  and  C_9
REMARK    4  A    between atoms: C_19  and  C_20
REMARK                            x       y       z     vdW  Elec       q    Type
REMARK                         _______ _______ _______ _____ _____    ______ ____
ROOT
ATOM      1  C   UNL     1      -0.830  11.502  20.278  0.00  0.00    +0.000 A 
ATOM      2  O   UNL     1      -0.564  11.976  21.551  0.00  0.00    +0.000 OA
ATOM      3  C   UNL     1      -1.406  12.912  22.088  0.00  0.00    +0.000 A 
ATOM      4  C   UNL     1      -1.035  13.502  23.294  0.00  0.00    +0.000 A 
ATOM      5  C   UNL     1      -1.864  14.456  23.892  0.00  0.00    +0.000 A 
ATOM      6  C   UNL     1      -3.068  14.818  23.284  0.00  0.00    +0.000 A 
ATOM      7  C   UNL     1      -3.439  14.229  22.079  0.00  0.00    +0.000 A 
ATOM      8  C   UNL     1      -2.604  13.277  21.485  0.00  0.00    +0.000 A 
ATOM      9  C   UNL     1      -2.979  12.638  20.221  0.00  0.00    +0.000 A 
ATOM     10  O   UNL     1      -4.077  12.859  19.726  0.00  0.00    +0.000 OA
ATOM     11  C   UNL     1      -1.970  11.737  19.594  0.00  0.00    +0.000 A 
ENDROOT
BRANCH  11  12
ATOM     12  C   UNL     1      -2.332  11.082  18.326  0.00  0.00    +0.000 A 
ATOM     13  C   UNL     1      -3.034   9.865  18.352  0.00  0.00    +0.000 A 
ATOM     14  C   UNL     1      -3.523   9.305  17.169  0.00  0.00    +0.000 A 
ATOM     15  C   UNL     1      -3.313   9.954  15.955  0.00  0.00    +0.000 A 
ATOM     16  C   UNL     1      -2.596  11.150  15.918  0.00  0.00    +0.000 A 
ATOM     17  C   UNL     1      -2.104  11.711  17.097  0.00  0.00    +0.000 A 
ENDBRANCH  11  12
BRANCH   1  20
ATOM     18  C   UNL     1       0.357   9.426  20.242  0.00  0.00    +0.000 C 
ATOM     19  O   UNL     1      -0.326   8.940  21.140  0.00  0.00    +0.000 OA
ATOM     20  N   UNL     1       0.208  10.734  19.784  0.00  0.00    +0.000 N 
ATOM     21  H   UNL     1       0.340  10.827  18.788  0.00  0.00    +0.000 HD
BRANCH  18  26
ATOM     22  C   UNL     1       4.331   6.280  17.377  0.00  0.00    +0.000 C 
ATOM     23  C   UNL     1       3.305   7.062  18.143  0.00  0.00    +0.000 A 
ATOM     24  C   UNL     1       2.878   6.655  19.412  0.00  0.00    +0.000 A 
ATOM     25  C   UNL     1       1.924   7.400  20.122  0.00  0.00    +0.000 A 
ATOM     26  C   UNL     1       1.384   8.567  19.567  0.00  0.00    +0.000 A 
ATOM     27  C   UNL     1       1.822   8.974  18.297  0.00  0.00    +0.000 A 
ATOM     28  C   UNL     1       2.766   8.227  17.590  0.00  0.00    +0.000 A 
ENDBRANCH  18  26
ENDBRANCH   1  20
TORSDOF 3
ENDMDL
