MODEL 1
REMARK VINA RESULT:      -9.5      0.000      0.000
REMARK  Name = 
REMARK  7 active torsions:
REMARK  status: ('A' for Active; 'I' for Inactive)
REMARK    1  A    between atoms: C_1  and  C_2
REMARK    2  A    between atoms: C_4  and  C_5
REMARK    3  A    between atoms: C_5  and  N_6
REMARK    4  A    between atoms: C_7  and  C_9
REMARK    5  A    between atoms: C_13  and  C_14
REMARK    6  A    between atoms: C_25  and  C_26
REMARK    7  A    between atoms: C_26  and  O_28
REMARK                            x       y       z     vdW  Elec       q    Type
REMARK                         _______ _______ _______ _____ _____    ______ ____
ROOT
ATOM      1  N   UNL     1       5.602   4.642  17.657  0.00  0.00    +0.000 N 
ATOM      2  C   UNL     1       5.476   4.700  19.024  0.00  0.00    +0.000 C 
ATOM      3  O   UNL     1       6.368   5.134  19.747  0.00  0.00    +0.000 OA
ATOM      4  H   UNL     1       4.863   4.198  17.122  0.00  0.00    +0.000 HD
ENDROOT
BRANCH   2   5
ATOM      5  C   UNL     1       4.215   4.173  19.526  0.00  0.00    +0.000 A 
ATOM      6  N   UNL     1       4.061   2.881  20.011  0.00  0.00    +0.000 NA
ATOM      7  C   UNL     1       2.783   2.814  20.298  0.00  0.00    +0.000 A 
ATOM      8  O   UNL     1       2.079   3.959  20.089  0.00  0.00    +0.000 OA
ATOM      9  C   UNL     1       3.011   4.849  19.617  0.00  0.00    +0.000 A 
BRANCH   9  10
ATOM     10  C   UNL     1       2.555   6.218  19.422  0.00  0.00    +0.000 A 
ATOM     11  C   UNL     1       2.681   6.860  18.181  0.00  0.00    +0.000 A 
ATOM     12  C   UNL     1       2.219   8.169  18.003  0.00  0.00    +0.000 A 
ATOM     13  C   UNL     1       1.624   8.848  19.064  0.00  0.00    +0.000 A 
ATOM     14  C   UNL     1       1.475   8.212  20.296  0.00  0.00    +0.000 A 
ATOM     15  C   UNL     1       1.943   6.914  20.474  0.00  0.00    +0.000 A 
ATOM     16  O   UNL     1       0.876   8.798  21.382  0.00  0.00    +0.000 OA
ATOM     17  C   UNL     1       0.105   9.937  20.994  0.00  0.00    +0.000 C 
ATOM     18  C   UNL     1       0.890  10.820  20.039  0.00  0.00    +0.000 C 
ATOM     19  O   UNL     1       1.193  10.126  18.822  0.00  0.00    +0.000 OA
ENDBRANCH   9  10
ENDBRANCH   2   5
BRANCH   1  20
ATOM     20  C   UNL     1       6.859   4.975  17.046  0.00  0.00    +0.000 C 
BRANCH  20  24
ATOM     21  C   UNL     1       8.235   5.704  12.500  0.00  0.00    +0.000 C 
ATOM     22  C   UNL     1       7.414   4.991  13.505  0.00  0.00    +0.000 A 
ATOM     23  O   UNL     1       7.634   5.397  14.789  0.00  0.00    +0.000 OA
ATOM     24  C   UNL     1       6.813   4.678  15.600  0.00  0.00    +0.000 A 
ATOM     25  C   UNL     1       6.070   3.804  14.844  0.00  0.00    +0.000 A 
ATOM     26  C   UNL     1       6.447   3.993  13.474  0.00  0.00    +0.000 A 
BRANCH  26  27
ATOM     27  C   UNL     1       5.868   3.244  12.364  0.00  0.00    +0.000 C 
ATOM     28  O   UNL     1       4.730   3.450  11.962  0.00  0.00    +0.000 OA
BRANCH  27  29
ATOM     29  O   UNL     1       6.644   2.299  11.784  0.00  0.00    +0.000 OA
ATOM     30  H   UNL     1       6.157   1.544  11.425  0.00  0.00    +0.000 HD
ENDBRANCH  27  29
ENDBRANCH  26  27
ENDBRANCH  20  24
ENDBRANCH   1  20
TORSDOF 6
ENDMDL
MODEL 2
REMARK VINA RESULT:      -9.1      0.885      1.555
REMARK  Name = 
REMARK  7 active torsions:
REMARK  status: ('A' for Active; 'I' for Inactive)
REMARK    1  A    between atoms: C_1  and  C_2
REMARK    2  A    between atoms: C_4  and  C_5
REMARK    3  A    between atoms: C_5  and  N_6
REMARK    4  A    between atoms: C_7  and  C_9
REMARK    5  A    between atoms: C_13  and  C_14
REMARK    6  A    between atoms: C_25  and  C_26
REMARK    7  A    between atoms: C_26  and  O_28
REMARK                            x       y       z     vdW  Elec       q    Type
REMARK                         _______ _______ _______ _____ _____    ______ ____
ROOT
ATOM      1  N   UNL     1       5.085   4.918  17.428  0.00  0.00    +0.000 N 
ATOM      2  C   UNL     1       5.063   4.279  18.643  0.00  0.00    +0.000 C 
ATOM      3  O   UNL     1       6.059   4.183  19.353  0.00  0.00    +0.000 OA
ATOM      4  H   UNL     1       4.249   4.894  16.854  0.00  0.00    +0.000 HD
ENDROOT
BRANCH   2   5
ATOM      5  C   UNL     1       3.769   3.706  18.988  0.00  0.00    +0.000 A 
ATOM      6  N   UNL     1       3.539   2.342  19.100  0.00  0.00    +0.000 NA
ATOM      7  C   UNL     1       2.256   2.270  19.364  0.00  0.00    +0.000 A 
ATOM      8  O   UNL     1       1.619   3.466  19.481  0.00  0.00    +0.000 OA
ATOM      9  C   UNL     1       2.603   4.398  19.267  0.00  0.00    +0.000 A 
BRANCH   9  10
ATOM     10  C   UNL     1       2.226   5.791  19.458  0.00  0.00    +0.000 A 
ATOM     11  C   UNL     1       1.762   6.259  20.697  0.00  0.00    +0.000 A 
ATOM     12  C   UNL     1       1.424   7.606  20.871  0.00  0.00    +0.000 A 
ATOM     13  C   UNL     1       1.548   8.498  19.809  0.00  0.00    +0.000 A 
ATOM     14  C   UNL     1       2.028   8.049  18.579  0.00  0.00    +0.000 A 
ATOM     15  C   UNL     1       2.356   6.707  18.404  0.00  0.00    +0.000 A 
ATOM     16  O   UNL     1       2.207   8.865  17.492  0.00  0.00    +0.000 OA
ATOM     17  C   UNL     1       2.220  10.241  17.877  0.00  0.00    +0.000 C 
ATOM     18  C   UNL     1       1.075  10.546  18.828  0.00  0.00    +0.000 C 
ATOM     19  O   UNL     1       1.202   9.803  20.047  0.00  0.00    +0.000 OA
ENDBRANCH   9  10
ENDBRANCH   2   5
BRANCH   1  20
ATOM     20  C   UNL     1       6.336   5.383  16.895  0.00  0.00    +0.000 C 
BRANCH  20  24
ATOM     21  C   UNL     1       8.341   5.649  12.536  0.00  0.00    +0.000 C 
ATOM     22  C   UNL     1       7.368   5.050  13.478  0.00  0.00    +0.000 A 
ATOM     23  O   UNL     1       7.424   5.574  14.738  0.00  0.00    +0.000 OA
ATOM     24  C   UNL     1       6.479   4.950  15.489  0.00  0.00    +0.000 A 
ATOM     25  C   UNL     1       5.819   4.021  14.721  0.00  0.00    +0.000 A 
ATOM     26  C   UNL     1       6.384   4.071  13.406  0.00  0.00    +0.000 A 
BRANCH  26  27
ATOM     27  C   UNL     1       5.939   3.231  12.300  0.00  0.00    +0.000 C 
ATOM     28  O   UNL     1       4.807   3.304  11.841  0.00  0.00    +0.000 OA
BRANCH  27  29
ATOM     29  O   UNL     1       6.835   2.353  11.790  0.00  0.00    +0.000 OA
ATOM     30  H   UNL     1       6.441   1.607  11.317  0.00  0.00    +0.000 HD
ENDBRANCH  27  29
ENDBRANCH  26  27
ENDBRANCH  20  24
ENDBRANCH   1  20
TORSDOF 6
ENDMDL
MODEL 3
REMARK VINA RESULT:      -8.9      4.306      6.838
REMARK  Name = 
REMARK  7 active torsions:
REMARK  status: ('A' for Active; 'I' for Inactive)
REMARK    1  A    between atoms: C_1  and  C_2
REMARK    2  A    between atoms: C_4  and  C_5
REMARK    3  A    between atoms: C_5  and  N_6
REMARK    4  A    between atoms: C_7  and  C_9
REMARK    5  A    between atoms: C_13  and  C_14
REMARK    6  A    between atoms: C_25  and  C_26
REMARK    7  A    between atoms: C_26  and  O_28
REMARK                            x       y       z     vdW  Elec       q    Type
REMARK                         _______ _______ _______ _____ _____    ______ ____
ROOT
ATOM      1  N   UNL     1       7.749   7.200  17.763  0.00  0.00    +0.000 N 
ATOM      2  C   UNL     1       7.498   5.852  17.688  0.00  0.00    +0.000 C 
ATOM      3  O   UNL     1       7.810   5.075  18.585  0.00  0.00    +0.000 OA
ATOM      4  H   UNL     1       7.540   7.776  16.955  0.00  0.00    +0.000 HD
ENDROOT
BRANCH   2   5
ATOM      5  C   UNL     1       6.866   5.435  16.444  0.00  0.00    +0.000 A 
ATOM      6  N   UNL     1       7.550   5.296  15.244  0.00  0.00    +0.000 NA
ATOM      7  C   UNL     1       6.608   4.966  14.393  0.00  0.00    +0.000 A 
ATOM      8  O   UNL     1       5.364   4.830  14.926  0.00  0.00    +0.000 OA
ATOM      9  C   UNL     1       5.534   5.105  16.260  0.00  0.00    +0.000 A 
BRANCH   9  10
ATOM     10  C   UNL     1       4.371   4.910  17.113  0.00  0.00    +0.000 A 
ATOM     11  C   UNL     1       3.689   5.999  17.676  0.00  0.00    +0.000 A 
ATOM     12  C   UNL     1       2.558   5.797  18.478  0.00  0.00    +0.000 A 
ATOM     13  C   UNL     1       2.098   4.505  18.720  0.00  0.00    +0.000 A 
ATOM     14  C   UNL     1       2.756   3.417  18.148  0.00  0.00    +0.000 A 
ATOM     15  C   UNL     1       3.885   3.618  17.359  0.00  0.00    +0.000 A 
ATOM     16  O   UNL     1       2.353   2.117  18.313  0.00  0.00    +0.000 OA
ATOM     17  C   UNL     1       1.008   2.050  18.791  0.00  0.00    +0.000 C 
ATOM     18  C   UNL     1       0.795   3.024  19.939  0.00  0.00    +0.000 C 
ATOM     19  O   UNL     1       0.986   4.378  19.512  0.00  0.00    +0.000 OA
ENDBRANCH   9  10
ENDBRANCH   2   5
BRANCH   1  20
ATOM     20  C   UNL     1       8.516   7.718  18.863  0.00  0.00    +0.000 C 
BRANCH  20  24
ATOM     21  C   UNL     1      10.405  11.933  20.187  0.00  0.00    +0.000 C 
ATOM     22  C   UNL     1       9.570  11.119  19.275  0.00  0.00    +0.000 A 
ATOM     23  O   UNL     1       9.534   9.792  19.593  0.00  0.00    +0.000 OA
ATOM     24  C   UNL     1       8.728   9.169  18.692  0.00  0.00    +0.000 A 
ATOM     25  C   UNL     1       8.251  10.089  17.790  0.00  0.00    +0.000 A 
ATOM     26  C   UNL     1       8.788  11.366  18.152  0.00  0.00    +0.000 A 
BRANCH  26  27
ATOM     27  C   UNL     1       8.503  12.600  17.429  0.00  0.00    +0.000 C 
ATOM     28  O   UNL     1       7.364  12.927  17.122  0.00  0.00    +0.000 OA
BRANCH  27  29
ATOM     29  O   UNL     1       9.557  13.384  17.103  0.00  0.00    +0.000 OA
ATOM     30  H   UNL     1       9.864  13.961  17.816  0.00  0.00    +0.000 HD
ENDBRANCH  27  29
ENDBRANCH  26  27
ENDBRANCH  20  24
ENDBRANCH   1  20
TORSDOF 6
ENDMDL
MODEL 4
REMARK VINA RESULT:      -8.7      4.208      6.660
REMARK  Name = 
REMARK  7 active torsions:
REMARK  status: ('A' for Active; 'I' for Inactive)
REMARK    1  A    between atoms: C_1  and  C_2
REMARK    2  A    between atoms: C_4  and  C_5
REMARK    3  A    between atoms: C_5  and  N_6
REMARK    4  A    between atoms: C_7  and  C_9
REMARK    5  A    between atoms: C_13  and  C_14
REMARK    6  A    between atoms: C_25  and  C_26
REMARK    7  A    between atoms: C_26  and  O_28
REMARK                            x       y       z     vdW  Elec       q    Type
REMARK                         _______ _______ _______ _____ _____    ______ ____
ROOT
ATOM      1  N   UNL     1       7.673   7.008  17.687  0.00  0.00    +0.000 N 
ATOM      2  C   UNL     1       7.422   5.660  17.601  0.00  0.00    +0.000 C 
ATOM      3  O   UNL     1       7.716   4.879  18.501  0.00  0.00    +0.000 OA
ATOM      4  H   UNL     1       7.480   7.588  16.877  0.00  0.00    +0.000 HD
ENDROOT
BRANCH   2   5
ATOM      5  C   UNL     1       6.814   5.249  16.344  0.00  0.00    +0.000 A 
ATOM      6  N   UNL     1       7.455   5.339  15.115  0.00  0.00    +0.000 NA
ATOM      7  C   UNL     1       6.546   4.923  14.266  0.00  0.00    +0.000 A 
ATOM      8  O   UNL     1       5.371   4.523  14.822  0.00  0.00    +0.000 OA
ATOM      9  C   UNL     1       5.553   4.706  16.170  0.00  0.00    +0.000 A 
BRANCH   9  10
ATOM     10  C   UNL     1       4.482   4.234  17.036  0.00  0.00    +0.000 A 
ATOM     11  C   UNL     1       3.978   2.930  16.929  0.00  0.00    +0.000 A 
ATOM     12  C   UNL     1       2.962   2.484  17.784  0.00  0.00    +0.000 A 
ATOM     13  C   UNL     1       2.444   3.337  18.755  0.00  0.00    +0.000 A 
ATOM     14  C   UNL     1       2.953   4.629  18.884  0.00  0.00    +0.000 A 
ATOM     15  C   UNL     1       3.957   5.075  18.028  0.00  0.00    +0.000 A 
ATOM     16  O   UNL     1       2.520   5.523  19.830  0.00  0.00    +0.000 OA
ATOM     17  C   UNL     1       1.800   4.862  20.872  0.00  0.00    +0.000 C 
ATOM     18  C   UNL     1       0.796   3.878  20.294  0.00  0.00    +0.000 C 
ATOM     19  O   UNL     1       1.453   2.838  19.560  0.00  0.00    +0.000 OA
ENDBRANCH   9  10
ENDBRANCH   2   5
BRANCH   1  20
ATOM     20  C   UNL     1       8.419   7.521  18.803  0.00  0.00    +0.000 C 
BRANCH  20  24
ATOM     21  C   UNL     1      10.165  11.755  20.255  0.00  0.00    +0.000 C 
ATOM     22  C   UNL     1       9.407  10.932  19.285  0.00  0.00    +0.000 A 
ATOM     23  O   UNL     1       9.360   9.605  19.603  0.00  0.00    +0.000 OA
ATOM     24  C   UNL     1       8.630   8.974  18.646  0.00  0.00    +0.000 A 
ATOM     25  C   UNL     1       8.211   9.888  17.709  0.00  0.00    +0.000 A 
ATOM     26  C   UNL     1       8.709  11.171  18.108  0.00  0.00    +0.000 A 
BRANCH  26  27
ATOM     27  C   UNL     1       8.466  12.401  17.362  0.00  0.00    +0.000 C 
ATOM     28  O   UNL     1       7.359  12.693  16.929  0.00  0.00    +0.000 OA
BRANCH  27  29
ATOM     29  O   UNL     1       9.524  13.223  17.164  0.00  0.00    +0.000 OA
ATOM     30  H   UNL     1      10.297  12.793  16.770  0.00  0.00    +0.000 HD
ENDBRANCH  27  29
ENDBRANCH  26  27
ENDBRANCH  20  24
ENDBRANCH   1  20
TORSDOF 6
ENDMDL
MODEL 5
REMARK VINA RESULT:      -8.3      4.682      6.997
REMARK  Name = 
REMARK  7 active torsions:
REMARK  status: ('A' for Active; 'I' for Inactive)
REMARK    1  A    between atoms: C_1  and  C_2
REMARK    2  A    between atoms: C_4  and  C_5
REMARK    3  A    between atoms: C_5  and  N_6
REMARK    4  A    between atoms: C_7  and  C_9
REMARK    5  A    between atoms: C_13  and  C_14
REMARK    6  A    between atoms: C_25  and  C_26
REMARK    7  A    between atoms: C_26  and  O_28
REMARK                            x       y       z     vdW  Elec       q    Type
REMARK                         _______ _______ _______ _____ _____    ______ ____
ROOT
ATOM      1  N   UNL     1       7.900   7.975  17.800  0.00  0.00    +0.000 N 
ATOM      2  C   UNL     1       7.531   6.664  17.974  0.00  0.00    +0.000 C 
ATOM      3  O   UNL     1       7.751   6.052  19.015  0.00  0.00    +0.000 OA
ATOM      4  H   UNL     1       7.762   8.399  16.889  0.00  0.00    +0.000 HD
ENDROOT
BRANCH   2   5
ATOM      5  C   UNL     1       6.891   6.068  16.810  0.00  0.00    +0.000 A 
ATOM      6  N   UNL     1       7.535   5.877  15.594  0.00  0.00    +0.000 NA
ATOM      7  C   UNL     1       6.595   5.376  14.827  0.00  0.00    +0.000 A 
ATOM      8  O   UNL     1       5.395   5.176  15.435  0.00  0.00    +0.000 OA
ATOM      9  C   UNL     1       5.592   5.596  16.726  0.00  0.00    +0.000 A 
BRANCH   9  10
ATOM     10  C   UNL     1       4.491   5.378  17.652  0.00  0.00    +0.000 A 
ATOM     11  C   UNL     1       3.668   6.435  18.070  0.00  0.00    +0.000 A 
ATOM     12  C   UNL     1       2.599   6.206  18.945  0.00  0.00    +0.000 A 
ATOM     13  C   UNL     1       2.342   4.918  19.407  0.00  0.00    +0.000 A 
ATOM     14  C   UNL     1       3.140   3.856  18.982  0.00  0.00    +0.000 A 
ATOM     15  C   UNL     1       4.209   4.087  18.119  0.00  0.00    +0.000 A 
ATOM     16  O   UNL     1       2.939   2.556  19.367  0.00  0.00    +0.000 OA
ATOM     17  C   UNL     1       1.630   2.376  19.912  0.00  0.00    +0.000 C 
ATOM     18  C   UNL     1       1.302   3.481  20.902  0.00  0.00    +0.000 C 
ATOM     19  O   UNL     1       1.280   4.762  20.260  0.00  0.00    +0.000 OA
ENDBRANCH   9  10
ENDBRANCH   2   5
BRANCH   1  20
ATOM     20  C   UNL     1       8.686   8.630  18.809  0.00  0.00    +0.000 C 
BRANCH  20  24
ATOM     21  C   UNL     1       7.487  12.974  17.143  0.00  0.00    +0.000 C 
ATOM     22  C   UNL     1       8.502  12.004  17.611  0.00  0.00    +0.000 A 
ATOM     23  O   UNL     1       7.982  10.799  17.991  0.00  0.00    +0.000 OA
ATOM     24  C   UNL     1       9.014  10.006  18.382  0.00  0.00    +0.000 A 
ATOM     25  C   UNL     1      10.196  10.695  18.263  0.00  0.00    +0.000 A 
ATOM     26  C   UNL     1       9.883  12.001  17.762  0.00  0.00    +0.000 A 
BRANCH  26  27
ATOM     27  C   UNL     1      10.884  13.028  17.497  0.00  0.00    +0.000 C 
ATOM     28  O   UNL     1      11.993  13.007  18.015  0.00  0.00    +0.000 OA
BRANCH  27  29
ATOM     29  O   UNL     1      10.540  14.022  16.645  0.00  0.00    +0.000 OA
ATOM     30  H   UNL     1       9.751  14.519  16.905  0.00  0.00    +0.000 HD
ENDBRANCH  27  29
ENDBRANCH  26  27
ENDBRANCH  20  24
ENDBRANCH   1  20
TORSDOF 6
ENDMDL
MODEL 6
REMARK VINA RESULT:      -8.2      1.536      8.457
REMARK  Name = 
REMARK  7 active torsions:
REMARK  status: ('A' for Active; 'I' for Inactive)
REMARK    1  A    between atoms: C_1  and  C_2
REMARK    2  A    between atoms: C_4  and  C_5
REMARK    3  A    between atoms: C_5  and  N_6
REMARK    4  A    between atoms: C_7  and  C_9
REMARK    5  A    between atoms: C_13  and  C_14
REMARK    6  A    between atoms: C_25  and  C_26
REMARK    7  A    between atoms: C_26  and  O_28
REMARK                            x       y       z     vdW  Elec       q    Type
REMARK                         _______ _______ _______ _____ _____    ______ ____
ROOT
ATOM      1  N   UNL     1       2.815   6.661  18.612  0.00  0.00    +0.000 N 
ATOM      2  C   UNL     1       2.343   5.385  18.426  0.00  0.00    +0.000 C 
ATOM      3  O   UNL     1       1.310   5.151  17.806  0.00  0.00    +0.000 OA
ATOM      4  H   UNL     1       3.630   6.794  19.202  0.00  0.00    +0.000 HD
ENDROOT
BRANCH   2   5
ATOM      5  C   UNL     1       3.156   4.355  19.056  0.00  0.00    +0.000 A 
ATOM      6  N   UNL     1       2.729   3.590  20.133  0.00  0.00    +0.000 NA
ATOM      7  C   UNL     1       3.772   2.843  20.410  0.00  0.00    +0.000 A 
ATOM      8  O   UNL     1       4.841   3.010  19.586  0.00  0.00    +0.000 OA
ATOM      9  C   UNL     1       4.434   3.967  18.690  0.00  0.00    +0.000 A 
BRANCH   9  10
ATOM     10  C   UNL     1       5.350   4.260  17.597  0.00  0.00    +0.000 A 
ATOM     11  C   UNL     1       6.635   4.768  17.838  0.00  0.00    +0.000 A 
ATOM     12  C   UNL     1       7.513   5.024  16.777  0.00  0.00    +0.000 A 
ATOM     13  C   UNL     1       7.114   4.771  15.467  0.00  0.00    +0.000 A 
ATOM     14  C   UNL     1       5.846   4.246  15.218  0.00  0.00    +0.000 A 
ATOM     15  C   UNL     1       4.971   4.000  16.272  0.00  0.00    +0.000 A 
ATOM     16  O   UNL     1       5.386   3.943  13.962  0.00  0.00    +0.000 OA
ATOM     17  C   UNL     1       6.461   3.860  13.025  0.00  0.00    +0.000 C 
ATOM     18  C   UNL     1       7.405   5.041  13.182  0.00  0.00    +0.000 C 
ATOM     19  O   UNL     1       8.021   5.043  14.476  0.00  0.00    +0.000 OA
ENDBRANCH   9  10
ENDBRANCH   2   5
BRANCH   1  20
ATOM     20  C   UNL     1       2.020   7.780  18.186  0.00  0.00    +0.000 C 
BRANCH  20  24
ATOM     21  C   UNL     1      -0.253  11.465  20.270  0.00  0.00    +0.000 C 
ATOM     22  C   UNL     1       0.423  10.151  20.350  0.00  0.00    +0.000 A 
ATOM     23  O   UNL     1       0.844   9.670  19.143  0.00  0.00    +0.000 OA
ATOM     24  C   UNL     1       1.454   8.475  19.360  0.00  0.00    +0.000 A 
ATOM     25  C   UNL     1       1.422   8.180  20.701  0.00  0.00    +0.000 A 
ATOM     26  C   UNL     1       0.754   9.260  21.364  0.00  0.00    +0.000 A 
BRANCH  26  27
ATOM     27  C   UNL     1       0.530   9.312  22.804  0.00  0.00    +0.000 C 
ATOM     28  O   UNL     1       1.441   9.499  23.600  0.00  0.00    +0.000 OA
BRANCH  27  29
ATOM     29  O   UNL     1      -0.742   9.143  23.239  0.00  0.00    +0.000 OA
ATOM     30  H   UNL     1      -1.196   8.377  22.862  0.00  0.00    +0.000 HD
ENDBRANCH  27  29
ENDBRANCH  26  27
ENDBRANCH  20  24
ENDBRANCH   1  20
TORSDOF 6
ENDMDL
MODEL 7
REMARK VINA RESULT:      -8.1      2.245      7.970
REMARK  Name = 
REMARK  7 active torsions:
REMARK  status: ('A' for Active; 'I' for Inactive)
REMARK    1  A    between atoms: C_1  and  C_2
REMARK    2  A    between atoms: C_4  and  C_5
REMARK    3  A    between atoms: C_5  and  N_6
REMARK    4  A    between atoms: C_7  and  C_9
REMARK    5  A    between atoms: C_13  and  C_14
REMARK    6  A    between atoms: C_25  and  C_26
REMARK    7  A    between atoms: C_26  and  O_28
REMARK                            x       y       z     vdW  Elec       q    Type
REMARK                         _______ _______ _______ _____ _____    ______ ____
ROOT
ATOM      1  N   UNL     1       2.213   7.265  18.515  0.00  0.00    +0.000 N 
ATOM      2  C   UNL     1       2.156   6.764  19.792  0.00  0.00    +0.000 C 
ATOM      3  O   UNL     1       2.159   7.488  20.782  0.00  0.00    +0.000 OA
ATOM      4  H   UNL     1       2.289   6.613  17.742  0.00  0.00    +0.000 HD
ENDROOT
BRANCH   2   5
ATOM      5  C   UNL     1       2.125   5.309  19.856  0.00  0.00    +0.000 A 
ATOM      6  N   UNL     1       1.109   4.589  20.471  0.00  0.00    +0.000 NA
ATOM      7  C   UNL     1       1.501   3.343  20.347  0.00  0.00    +0.000 A 
ATOM      8  O   UNL     1       2.666   3.165  19.667  0.00  0.00    +0.000 OA
ATOM      9  C   UNL     1       3.056   4.435  19.323  0.00  0.00    +0.000 A 
BRANCH   9  10
ATOM     10  C   UNL     1       4.228   4.540  18.466  0.00  0.00    +0.000 A 
ATOM     11  C   UNL     1       5.502   4.792  18.998  0.00  0.00    +0.000 A 
ATOM     12  C   UNL     1       6.622   4.869  18.162  0.00  0.00    +0.000 A 
ATOM     13  C   UNL     1       6.481   4.692  16.788  0.00  0.00    +0.000 A 
ATOM     14  C   UNL     1       5.223   4.420  16.251  0.00  0.00    +0.000 A 
ATOM     15  C   UNL     1       4.107   4.353  17.081  0.00  0.00    +0.000 A 
ATOM     16  O   UNL     1       5.000   4.206  14.915  0.00  0.00    +0.000 OA
ATOM     17  C   UNL     1       6.219   3.913  14.230  0.00  0.00    +0.000 C 
ATOM     18  C   UNL     1       7.312   4.890  14.632  0.00  0.00    +0.000 C 
ATOM     19  O   UNL     1       7.618   4.779  16.028  0.00  0.00    +0.000 OA
ENDBRANCH   9  10
ENDBRANCH   2   5
BRANCH   1  20
ATOM     20  C   UNL     1       2.415   8.674  18.315  0.00  0.00    +0.000 C 
BRANCH  20  24
ATOM     21  C   UNL     1      -0.873  11.481  20.413  0.00  0.00    +0.000 C 
ATOM     22  C   UNL     1      -0.416  10.654  19.273  0.00  0.00    +0.000 A 
ATOM     23  O   UNL     1       0.829  10.118  19.442  0.00  0.00    +0.000 OA
ATOM     24  C   UNL     1       1.117   9.379  18.339  0.00  0.00    +0.000 A 
ATOM     25  C   UNL     1       0.066   9.442  17.455  0.00  0.00    +0.000 A 
ATOM     26  C   UNL     1      -0.943  10.269  18.046  0.00  0.00    +0.000 A 
BRANCH  26  27
ATOM     27  C   UNL     1      -2.220  10.571  17.408  0.00  0.00    +0.000 C 
ATOM     28  O   UNL     1      -3.257  10.004  17.726  0.00  0.00    +0.000 OA
BRANCH  27  29
ATOM     29  O   UNL     1      -2.218  11.514  16.437  0.00  0.00    +0.000 OA
ATOM     30  H   UNL     1      -2.311  12.422  16.759  0.00  0.00    +0.000 HD
ENDBRANCH  27  29
ENDBRANCH  26  27
ENDBRANCH  20  24
ENDBRANCH   1  20
TORSDOF 6
ENDMDL
MODEL 8
REMARK VINA RESULT:      -8.0      2.276      8.223
REMARK  Name = 
REMARK  7 active torsions:
REMARK  status: ('A' for Active; 'I' for Inactive)
REMARK    1  A    between atoms: C_1  and  C_2
REMARK    2  A    between atoms: C_4  and  C_5
REMARK    3  A    between atoms: C_5  and  N_6
REMARK    4  A    between atoms: C_7  and  C_9
REMARK    5  A    between atoms: C_13  and  C_14
REMARK    6  A    between atoms: C_25  and  C_26
REMARK    7  A    between atoms: C_26  and  O_28
REMARK                            x       y       z     vdW  Elec       q    Type
REMARK                         _______ _______ _______ _____ _____    ______ ____
ROOT
ATOM      1  N   UNL     1       2.112   7.421  18.393  0.00  0.00    +0.000 N 
ATOM      2  C   UNL     1       2.162   7.028  19.707  0.00  0.00    +0.000 C 
ATOM      3  O   UNL     1       2.237   7.832  20.631  0.00  0.00    +0.000 OA
ATOM      4  H   UNL     1       2.132   6.706  17.673  0.00  0.00    +0.000 HD
ENDROOT
BRANCH   2   5
ATOM      5  C   UNL     1       2.150   5.584  19.895  0.00  0.00    +0.000 A 
ATOM      6  N   UNL     1       1.146   4.906  20.574  0.00  0.00    +0.000 NA
ATOM      7  C   UNL     1       1.553   3.659  20.554  0.00  0.00    +0.000 A 
ATOM      8  O   UNL     1       2.716   3.438  19.885  0.00  0.00    +0.000 OA
ATOM      9  C   UNL     1       3.089   4.678  19.432  0.00  0.00    +0.000 A 
BRANCH   9  10
ATOM     10  C   UNL     1       4.256   4.725  18.562  0.00  0.00    +0.000 A 
ATOM     11  C   UNL     1       5.541   4.955  19.076  0.00  0.00    +0.000 A 
ATOM     12  C   UNL     1       6.656   4.976  18.229  0.00  0.00    +0.000 A 
ATOM     13  C   UNL     1       6.496   4.764  16.862  0.00  0.00    +0.000 A 
ATOM     14  C   UNL     1       5.226   4.513  16.344  0.00  0.00    +0.000 A 
ATOM     15  C   UNL     1       4.116   4.502  17.185  0.00  0.00    +0.000 A 
ATOM     16  O   UNL     1       4.985   4.268  15.016  0.00  0.00    +0.000 OA
ATOM     17  C   UNL     1       6.188   3.920  14.329  0.00  0.00    +0.000 C 
ATOM     18  C   UNL     1       7.312   4.876  14.694  0.00  0.00    +0.000 C 
ATOM     19  O   UNL     1       7.628   4.796  16.090  0.00  0.00    +0.000 OA
ENDBRANCH   9  10
ENDBRANCH   2   5
BRANCH   1  20
ATOM     20  C   UNL     1       2.284   8.809  18.061  0.00  0.00    +0.000 C 
BRANCH  20  24
ATOM     21  C   UNL     1      -2.257   9.889  16.919  0.00  0.00    +0.000 C 
ATOM     22  C   UNL     1      -1.061  10.066  17.773  0.00  0.00    +0.000 A 
ATOM     23  O   UNL     1      -0.008   9.269  17.424  0.00  0.00    +0.000 OA
ATOM     24  C   UNL     1       1.018   9.540  18.273  0.00  0.00    +0.000 A 
ATOM     25  C   UNL     1       0.629  10.503  19.173  0.00  0.00    +0.000 A 
ATOM     26  C   UNL     1      -0.724  10.859  18.864  0.00  0.00    +0.000 A 
BRANCH  26  27
ATOM     27  C   UNL     1      -1.487  11.860  19.601  0.00  0.00    +0.000 C 
ATOM     28  O   UNL     1      -1.520  11.884  20.825  0.00  0.00    +0.000 OA
BRANCH  27  29
ATOM     29  O   UNL     1      -2.168  12.776  18.874  0.00  0.00    +0.000 OA
ATOM     30  H   UNL     1      -2.351  13.604  19.342  0.00  0.00    +0.000 HD
ENDBRANCH  27  29
ENDBRANCH  26  27
ENDBRANCH  20  24
ENDBRANCH   1  20
TORSDOF 6
ENDMDL
MODEL 9
REMARK VINA RESULT:      -7.8      8.535     11.801
REMARK  Name = 
REMARK  7 active torsions:
REMARK  status: ('A' for Active; 'I' for Inactive)
REMARK    1  A    between atoms: C_1  and  C_2
REMARK    2  A    between atoms: C_4  and  C_5
REMARK    3  A    between atoms: C_5  and  N_6
REMARK    4  A    between atoms: C_7  and  C_9
REMARK    5  A    between atoms: C_13  and  C_14
REMARK    6  A    between atoms: C_25  and  C_26
REMARK    7  A    between atoms: C_26  and  O_28
REMARK                            x       y       z     vdW  Elec       q    Type
REMARK                         _______ _______ _______ _____ _____    ______ ____
ROOT
ATOM      1  N   UNL     1      -4.634  12.580  18.827  0.00  0.00    +0.000 N 
ATOM      2  C   UNL     1      -4.828  11.357  18.235  0.00  0.00    +0.000 C 
ATOM      3  O   UNL     1      -5.656  10.551  18.648  0.00  0.00    +0.000 OA
ATOM      4  H   UNL     1      -3.880  13.168  18.488  0.00  0.00    +0.000 HD
ENDROOT
BRANCH   2   5
ATOM      5  C   UNL     1      -3.946  11.099  17.105  0.00  0.00    +0.000 A 
ATOM      6  N   UNL     1      -4.401  10.868  15.814  0.00  0.00    +0.000 NA
ATOM      7  C   UNL     1      -3.299  10.631  15.141  0.00  0.00    +0.000 A 
ATOM      8  O   UNL     1      -2.148  10.727  15.859  0.00  0.00    +0.000 OA
ATOM      9  C   UNL     1      -2.563  11.058  17.125  0.00  0.00    +0.000 A 
BRANCH   9  10
ATOM     10  C   UNL     1      -1.515  11.352  18.092  0.00  0.00    +0.000 A 
ATOM     11  C   UNL     1      -1.038  10.369  18.972  0.00  0.00    +0.000 A 
ATOM     12  C   UNL     1      -0.015  10.661  19.882  0.00  0.00    +0.000 A 
ATOM     13  C   UNL     1       0.542  11.937  19.919  0.00  0.00    +0.000 A 
ATOM     14  C   UNL     1       0.090  12.916  19.034  0.00  0.00    +0.000 A 
ATOM     15  C   UNL     1      -0.934  12.627  18.136  0.00  0.00    +0.000 A 
ATOM     16  O   UNL     1       0.602  14.187  18.985  0.00  0.00    +0.000 OA
ATOM     17  C   UNL     1       1.867  14.259  19.646  0.00  0.00    +0.000 C 
ATOM     18  C   UNL     1       1.813  13.553  20.991  0.00  0.00    +0.000 C 
ATOM     19  O   UNL     1       1.540  12.155  20.832  0.00  0.00    +0.000 OA
ENDBRANCH   9  10
ENDBRANCH   2   5
BRANCH   1  20
ATOM     20  C   UNL     1      -5.322  12.893  20.050  0.00  0.00    +0.000 C 
BRANCH  20  24
ATOM     21  C   UNL     1      -4.406  12.429  24.744  0.00  0.00    +0.000 C 
ATOM     22  C   UNL     1      -3.946  12.547  23.342  0.00  0.00    +0.000 A 
ATOM     23  O   UNL     1      -4.960  12.635  22.432  0.00  0.00    +0.000 OA
ATOM     24  C   UNL     1      -4.403  12.752  21.198  0.00  0.00    +0.000 A 
ATOM     25  C   UNL     1      -3.034  12.732  21.307  0.00  0.00    +0.000 A 
ATOM     26  C   UNL     1      -2.715  12.600  22.698  0.00  0.00    +0.000 A 
BRANCH  26  27
ATOM     27  C   UNL     1      -1.353  12.547  23.216  0.00  0.00    +0.000 C 
ATOM     28  O   UNL     1      -0.701  11.511  23.234  0.00  0.00    +0.000 OA
BRANCH  27  29
ATOM     29  O   UNL     1      -0.824  13.703  23.683  0.00  0.00    +0.000 OA
ATOM     30  H   UNL     1       0.121  13.813  23.505  0.00  0.00    +0.000 HD
ENDBRANCH  27  29
ENDBRANCH  26  27
ENDBRANCH  20  24
ENDBRANCH   1  20
TORSDOF 6
ENDMDL
