MODEL 1
REMARK VINA RESULT:      -8.4      0.000      0.000
REMARK  Name = 
REMARK  5 active torsions:
REMARK  status: ('A' for Active; 'I' for Inactive)
REMARK    1  A    between atoms: C_2  and  C_3
REMARK    2  A    between atoms: C_3  and  C_4
REMARK    3  A    between atoms: C_4  and  C_5
REMARK    4  A    between atoms: N_11  and  C_12
REMARK    5  A    between atoms: C_14  and  C_15
REMARK                            x       y       z     vdW  Elec       q    Type
REMARK                         _______ _______ _______ _____ _____    ______ ____
ROOT
ATOM      1  C   UNL     1       5.862   6.688  17.009  0.00  0.00    +0.000 A 
ATOM      2  C   UNL     1       4.928   6.284  17.931  0.00  0.00    +0.000 A 
ATOM      3  C   UNL     1       4.419   5.040  17.475  0.00  0.00    +0.000 A 
ATOM      4  N   UNL     1       4.971   4.720  16.290  0.00  0.00    +0.000 NA
ATOM      5  N   UNL     1       5.840   5.714  16.044  0.00  0.00    +0.000 N 
ATOM      6  H   UNL     1       6.383   5.661  15.189  0.00  0.00    +0.000 HD
ENDROOT
BRANCH   3   7
ATOM      7  C   UNL     1       3.423   4.197  18.135  0.00  0.00    +0.000 A 
ATOM      8  C   UNL     1       2.119   4.085  17.624  0.00  0.00    +0.000 A 
ATOM      9  C   UNL     1       1.154   3.316  18.288  0.00  0.00    +0.000 A 
ATOM     10  C   UNL     1       1.484   2.644  19.465  0.00  0.00    +0.000 A 
ATOM     11  C   UNL     1       2.777   2.736  19.963  0.00  0.00    +0.000 A 
ATOM     12  F   UNL     1       3.097   2.085  21.090  0.00  0.00    +0.000 F 
ATOM     13  C   UNL     1       3.739   3.499  19.308  0.00  0.00    +0.000 A 
ATOM     14  F   UNL     1       4.978   3.543  19.822  0.00  0.00    +0.000 F 
ENDBRANCH   3   7
BRANCH   1  17
ATOM     15  O   UNL     1       8.157   7.091  18.644  0.00  0.00    +0.000 OA
ATOM     16  C   UNL     1       7.818   7.974  17.873  0.00  0.00    +0.000 C 
ATOM     17  N   UNL     1       6.664   7.825  17.018  0.00  0.00    +0.000 N 
ATOM     18  H   UNL     1       6.427   8.582  16.389  0.00  0.00    +0.000 HD
BRANCH  16  19
ATOM     19  C   UNL     1       8.511   9.307  17.767  0.00  0.00    +0.000 C 
BRANCH  19  20
ATOM     20  C   UNL     1       9.045   9.747  19.131  0.00  0.00    +0.000 C 
BRANCH  20  21
ATOM     21  C   UNL     1       9.853  11.009  19.023  0.00  0.00    +0.000 A 
ATOM     22  C   UNL     1      10.578  11.504  20.110  0.00  0.00    +0.000 A 
ATOM     23  C   UNL     1      11.299  12.688  19.975  0.00  0.00    +0.000 A 
ATOM     24  C   UNL     1      11.263  13.345  18.757  0.00  0.00    +0.000 A 
ATOM     25  N   UNL     1      10.566  12.901  17.688  0.00  0.00    +0.000 NA
ATOM     26  C   UNL     1       9.888  11.744  17.841  0.00  0.00    +0.000 A 
ENDBRANCH  20  21
ENDBRANCH  19  20
ENDBRANCH  16  19
ENDBRANCH   1  17
TORSDOF 5
ENDMDL
MODEL 2
REMARK VINA RESULT:      -8.4      1.202      1.318
REMARK  Name = 
REMARK  5 active torsions:
REMARK  status: ('A' for Active; 'I' for Inactive)
REMARK    1  A    between atoms: C_2  and  C_3
REMARK    2  A    between atoms: C_3  and  C_4
REMARK    3  A    between atoms: C_4  and  C_5
REMARK    4  A    between atoms: N_11  and  C_12
REMARK    5  A    between atoms: C_14  and  C_15
REMARK                            x       y       z     vdW  Elec       q    Type
REMARK                         _______ _______ _______ _____ _____    ______ ____
ROOT
ATOM      1  C   UNL     1       5.886   6.552  16.979  0.00  0.00    +0.000 A 
ATOM      2  C   UNL     1       4.936   6.102  17.861  0.00  0.00    +0.000 A 
ATOM      3  C   UNL     1       4.529   4.822  17.403  0.00  0.00    +0.000 A 
ATOM      4  N   UNL     1       5.159   4.520  16.252  0.00  0.00    +0.000 NA
ATOM      5  N   UNL     1       5.974   5.565  16.031  0.00  0.00    +0.000 N 
ATOM      6  H   UNL     1       6.560   5.535  15.204  0.00  0.00    +0.000 HD
ENDROOT
BRANCH   3   7
ATOM      7  C   UNL     1       3.558   3.925  18.029  0.00  0.00    +0.000 A 
ATOM      8  C   UNL     1       3.674   2.531  17.901  0.00  0.00    +0.000 A 
ATOM      9  C   UNL     1       2.713   1.678  18.460  0.00  0.00    +0.000 A 
ATOM     10  C   UNL     1       1.631   2.210  19.161  0.00  0.00    +0.000 A 
ATOM     11  C   UNL     1       1.523   3.586  19.308  0.00  0.00    +0.000 A 
ATOM     12  F   UNL     1       0.486   4.096  19.988  0.00  0.00    +0.000 F 
ATOM     13  C   UNL     1       2.473   4.437  18.753  0.00  0.00    +0.000 A 
ATOM     14  F   UNL     1       2.331   5.759  18.937  0.00  0.00    +0.000 F 
ENDBRANCH   3   7
BRANCH   1  17
ATOM     15  O   UNL     1       8.185   7.056  18.579  0.00  0.00    +0.000 OA
ATOM     16  C   UNL     1       7.773   7.937  17.842  0.00  0.00    +0.000 C 
ATOM     17  N   UNL     1       6.613   7.739  17.007  0.00  0.00    +0.000 N 
ATOM     18  H   UNL     1       6.314   8.496  16.406  0.00  0.00    +0.000 HD
BRANCH  16  19
ATOM     19  C   UNL     1       8.376   9.315  17.764  0.00  0.00    +0.000 C 
BRANCH  19  20
ATOM     20  C   UNL     1       8.982   9.717  19.108  0.00  0.00    +0.000 C 
BRANCH  20  21
ATOM     21  C   UNL     1       9.770  10.991  18.997  0.00  0.00    +0.000 A 
ATOM     22  C   UNL     1      10.774  11.308  19.915  0.00  0.00    +0.000 A 
ATOM     23  C   UNL     1      11.469  12.508  19.790  0.00  0.00    +0.000 A 
ATOM     24  C   UNL     1      11.128  13.359  18.752  0.00  0.00    +0.000 A 
ATOM     25  N   UNL     1      10.158  13.090  17.852  0.00  0.00    +0.000 NA
ATOM     26  C   UNL     1       9.510  11.914  17.988  0.00  0.00    +0.000 A 
ENDBRANCH  20  21
ENDBRANCH  19  20
ENDBRANCH  16  19
ENDBRANCH   1  17
TORSDOF 5
ENDMDL
MODEL 3
REMARK VINA RESULT:      -8.3      0.716      1.099
REMARK  Name = 
REMARK  5 active torsions:
REMARK  status: ('A' for Active; 'I' for Inactive)
REMARK    1  A    between atoms: C_2  and  C_3
REMARK    2  A    between atoms: C_3  and  C_4
REMARK    3  A    between atoms: C_4  and  C_5
REMARK    4  A    between atoms: N_11  and  C_12
REMARK    5  A    between atoms: C_14  and  C_15
REMARK                            x       y       z     vdW  Elec       q    Type
REMARK                         _______ _______ _______ _____ _____    ______ ____
ROOT
ATOM      1  C   UNL     1       5.809   6.376  17.216  0.00  0.00    +0.000 A 
ATOM      2  C   UNL     1       4.640   6.153  17.899  0.00  0.00    +0.000 A 
ATOM      3  C   UNL     1       4.314   4.784  17.710  0.00  0.00    +0.000 A 
ATOM      4  N   UNL     1       5.212   4.202  16.894  0.00  0.00    +0.000 NA
ATOM      5  N   UNL     1       6.102   5.173  16.627  0.00  0.00    +0.000 N 
ATOM      6  H   UNL     1       6.885   4.938  16.027  0.00  0.00    +0.000 HD
ENDROOT
BRANCH   3   7
ATOM      7  C   UNL     1       3.172   4.061  18.271  0.00  0.00    +0.000 A 
ATOM      8  C   UNL     1       1.928   4.060  17.619  0.00  0.00    +0.000 A 
ATOM      9  C   UNL     1       0.824   3.409  18.185  0.00  0.00    +0.000 A 
ATOM     10  C   UNL     1       0.955   2.744  19.405  0.00  0.00    +0.000 A 
ATOM     11  C   UNL     1       2.188   2.726  20.043  0.00  0.00    +0.000 A 
ATOM     12  F   UNL     1       2.315   2.082  21.211  0.00  0.00    +0.000 F 
ATOM     13  C   UNL     1       3.286   3.372  19.486  0.00  0.00    +0.000 A 
ATOM     14  F   UNL     1       4.460   3.312  20.134  0.00  0.00    +0.000 F 
ENDBRANCH   3   7
BRANCH   1  17
ATOM     15  O   UNL     1       8.173   6.972  18.684  0.00  0.00    +0.000 OA
ATOM     16  C   UNL     1       7.747   7.795  17.891  0.00  0.00    +0.000 C 
ATOM     17  N   UNL     1       6.554   7.548  17.117  0.00  0.00    +0.000 N 
ATOM     18  H   UNL     1       6.244   8.257  16.465  0.00  0.00    +0.000 HD
BRANCH  16  19
ATOM     19  C   UNL     1       8.366   9.151  17.675  0.00  0.00    +0.000 C 
BRANCH  19  20
ATOM     20  C   UNL     1       9.090   9.621  18.937  0.00  0.00    +0.000 C 
BRANCH  20  21
ATOM     21  C   UNL     1       9.535  11.050  18.814  0.00  0.00    +0.000 A 
ATOM     22  C   UNL     1       8.992  11.902  17.849  0.00  0.00    +0.000 A 
ATOM     23  C   UNL     1       9.445  13.215  17.755  0.00  0.00    +0.000 A 
ATOM     24  C   UNL     1      10.437  13.632  18.626  0.00  0.00    +0.000 A 
ATOM     25  N   UNL     1      10.991  12.835  19.565  0.00  0.00    +0.000 NA
ATOM     26  C   UNL     1      10.524  11.571  19.645  0.00  0.00    +0.000 A 
ENDBRANCH  20  21
ENDBRANCH  19  20
ENDBRANCH  16  19
ENDBRANCH   1  17
TORSDOF 5
ENDMDL
MODEL 4
REMARK VINA RESULT:      -8.3      1.467      1.645
REMARK  Name = 
REMARK  5 active torsions:
REMARK  status: ('A' for Active; 'I' for Inactive)
REMARK    1  A    between atoms: C_2  and  C_3
REMARK    2  A    between atoms: C_3  and  C_4
REMARK    3  A    between atoms: C_4  and  C_5
REMARK    4  A    between atoms: N_11  and  C_12
REMARK    5  A    between atoms: C_14  and  C_15
REMARK                            x       y       z     vdW  Elec       q    Type
REMARK                         _______ _______ _______ _____ _____    ______ ____
ROOT
ATOM      1  C   UNL     1       5.471   6.510  17.280  0.00  0.00    +0.000 A 
ATOM      2  C   UNL     1       4.442   6.372  18.177  0.00  0.00    +0.000 A 
ATOM      3  C   UNL     1       3.899   5.076  17.977  0.00  0.00    +0.000 A 
ATOM      4  N   UNL     1       4.528   4.463  16.957  0.00  0.00    +0.000 NA
ATOM      5  N   UNL     1       5.472   5.336  16.571  0.00  0.00    +0.000 N 
ATOM      6  H   UNL     1       6.080   5.061  15.807  0.00  0.00    +0.000 HD
ENDROOT
BRANCH   3   7
ATOM      7  C   UNL     1       2.803   4.453  18.718  0.00  0.00    +0.000 A 
ATOM      8  C   UNL     1       2.471   4.883  20.014  0.00  0.00    +0.000 A 
ATOM      9  C   UNL     1       1.453   4.249  20.740  0.00  0.00    +0.000 A 
ATOM     10  C   UNL     1       0.751   3.184  20.175  0.00  0.00    +0.000 A 
ATOM     11  C   UNL     1       1.062   2.769  18.887  0.00  0.00    +0.000 A 
ATOM     12  F   UNL     1       0.383   1.751  18.341  0.00  0.00    +0.000 F 
ATOM     13  C   UNL     1       2.072   3.394  18.163  0.00  0.00    +0.000 A 
ATOM     14  F   UNL     1       2.324   2.965  16.916  0.00  0.00    +0.000 F 
ENDBRANCH   3   7
BRANCH   1  17
ATOM     15  O   UNL     1       7.974   6.867  18.588  0.00  0.00    +0.000 OA
ATOM     16  C   UNL     1       7.596   7.713  17.795  0.00  0.00    +0.000 C 
ATOM     17  N   UNL     1       6.337   7.585  17.100  0.00  0.00    +0.000 N 
ATOM     18  H   UNL     1       6.069   8.309  16.446  0.00  0.00    +0.000 HD
BRANCH  16  19
ATOM     19  C   UNL     1       8.350   8.983  17.499  0.00  0.00    +0.000 C 
BRANCH  19  20
ATOM     20  C   UNL     1       8.887   9.605  18.788  0.00  0.00    +0.000 C 
BRANCH  20  21
ATOM     21  C   UNL     1       9.477  10.963  18.539  0.00  0.00    +0.000 A 
ATOM     22  C   UNL     1      10.738  11.311  19.031  0.00  0.00    +0.000 A 
ATOM     23  C   UNL     1      11.242  12.587  18.795  0.00  0.00    +0.000 A 
ATOM     24  C   UNL     1      10.462  13.480  18.080  0.00  0.00    +0.000 A 
ATOM     25  N   UNL     1       9.236  13.182  17.597  0.00  0.00    +0.000 NA
ATOM     26  C   UNL     1       8.777  11.934  17.827  0.00  0.00    +0.000 A 
ENDBRANCH  20  21
ENDBRANCH  19  20
ENDBRANCH  16  19
ENDBRANCH   1  17
TORSDOF 5
ENDMDL
MODEL 5
REMARK VINA RESULT:      -8.3      1.433      1.872
REMARK  Name = 
REMARK  5 active torsions:
REMARK  status: ('A' for Active; 'I' for Inactive)
REMARK    1  A    between atoms: C_2  and  C_3
REMARK    2  A    between atoms: C_3  and  C_4
REMARK    3  A    between atoms: C_4  and  C_5
REMARK    4  A    between atoms: N_11  and  C_12
REMARK    5  A    between atoms: C_14  and  C_15
REMARK                            x       y       z     vdW  Elec       q    Type
REMARK                         _______ _______ _______ _____ _____    ______ ____
ROOT
ATOM      1  C   UNL     1       5.943   6.830  16.987  0.00  0.00    +0.000 A 
ATOM      2  C   UNL     1       5.199   6.206  17.957  0.00  0.00    +0.000 A 
ATOM      3  C   UNL     1       4.709   5.004  17.383  0.00  0.00    +0.000 A 
ATOM      4  N   UNL     1       5.085   4.920  16.093  0.00  0.00    +0.000 NA
ATOM      5  N   UNL     1       5.834   6.016  15.890  0.00  0.00    +0.000 N 
ATOM      6  H   UNL     1       6.235   6.144  14.967  0.00  0.00    +0.000 HD
ENDROOT
BRANCH   3   7
ATOM      7  C   UNL     1       3.891   3.982  18.035  0.00  0.00    +0.000 A 
ATOM      8  C   UNL     1       4.486   2.918  18.734  0.00  0.00    +0.000 A 
ATOM      9  C   UNL     1       3.700   1.914  19.314  0.00  0.00    +0.000 A 
ATOM     10  C   UNL     1       2.310   1.967  19.210  0.00  0.00    +0.000 A 
ATOM     11  C   UNL     1       1.717   3.026  18.538  0.00  0.00    +0.000 A 
ATOM     12  F   UNL     1       0.381   3.081  18.444  0.00  0.00    +0.000 F 
ATOM     13  C   UNL     1       2.492   4.025  17.959  0.00  0.00    +0.000 A 
ATOM     14  F   UNL     1       1.869   5.036  17.333  0.00  0.00    +0.000 F 
ENDBRANCH   3   7
BRANCH   1  17
ATOM     15  O   UNL     1       8.301   7.259  18.523  0.00  0.00    +0.000 OA
ATOM     16  C   UNL     1       7.849   8.181  17.864  0.00  0.00    +0.000 C 
ATOM     17  N   UNL     1       6.658   8.022  17.065  0.00  0.00    +0.000 N 
ATOM     18  H   UNL     1       6.325   8.813  16.529  0.00  0.00    +0.000 HD
BRANCH  16  19
ATOM     19  C   UNL     1       8.433   9.569  17.853  0.00  0.00    +0.000 C 
BRANCH  19  20
ATOM     20  C   UNL     1       9.096   9.886  19.194  0.00  0.00    +0.000 C 
BRANCH  20  21
ATOM     21  C   UNL     1      10.072  11.020  19.069  0.00  0.00    +0.000 A 
ATOM     22  C   UNL     1      10.501  11.479  17.820  0.00  0.00    +0.000 A 
ATOM     23  C   UNL     1      11.422  12.520  17.747  0.00  0.00    +0.000 A 
ATOM     24  C   UNL     1      11.894  13.065  18.929  0.00  0.00    +0.000 A 
ATOM     25  N   UNL     1      11.509  12.642  20.153  0.00  0.00    +0.000 NA
ATOM     26  C   UNL     1      10.604  11.641  20.196  0.00  0.00    +0.000 A 
ENDBRANCH  20  21
ENDBRANCH  19  20
ENDBRANCH  16  19
ENDBRANCH   1  17
TORSDOF 5
ENDMDL
MODEL 6
REMARK VINA RESULT:      -8.3      1.876      2.122
REMARK  Name = 
REMARK  5 active torsions:
REMARK  status: ('A' for Active; 'I' for Inactive)
REMARK    1  A    between atoms: C_2  and  C_3
REMARK    2  A    between atoms: C_3  and  C_4
REMARK    3  A    between atoms: C_4  and  C_5
REMARK    4  A    between atoms: N_11  and  C_12
REMARK    5  A    between atoms: C_14  and  C_15
REMARK                            x       y       z     vdW  Elec       q    Type
REMARK                         _______ _______ _______ _____ _____    ______ ____
ROOT
ATOM      1  C   UNL     1       7.357   6.078  18.393  0.00  0.00    +0.000 A 
ATOM      2  C   UNL     1       6.049   5.806  18.707  0.00  0.00    +0.000 A 
ATOM      3  C   UNL     1       5.713   4.600  18.039  0.00  0.00    +0.000 A 
ATOM      4  N   UNL     1       6.752   4.177  17.295  0.00  0.00    +0.000 NA
ATOM      5  N   UNL     1       7.724   5.071  17.538  0.00  0.00    +0.000 N 
ATOM      6  H   UNL     1       8.617   4.929  17.077  0.00  0.00    +0.000 HD
ENDROOT
BRANCH   3   7
ATOM      7  C   UNL     1       4.437   3.886  18.091  0.00  0.00    +0.000 A 
ATOM      8  C   UNL     1       4.379   2.539  18.487  0.00  0.00    +0.000 A 
ATOM      9  C   UNL     1       3.161   1.845  18.487  0.00  0.00    +0.000 A 
ATOM     10  C   UNL     1       1.988   2.492  18.099  0.00  0.00    +0.000 A 
ATOM     11  C   UNL     1       2.038   3.829  17.725  0.00  0.00    +0.000 A 
ATOM     12  F   UNL     1       0.910   4.453  17.359  0.00  0.00    +0.000 F 
ATOM     13  C   UNL     1       3.244   4.522  17.723  0.00  0.00    +0.000 A 
ATOM     14  F   UNL     1       3.236   5.816  17.368  0.00  0.00    +0.000 F 
ENDBRANCH   3   7
BRANCH   1  17
ATOM     15  O   UNL     1       7.422   8.689  17.262  0.00  0.00    +0.000 OA
ATOM     16  C   UNL     1       8.150   8.437  18.208  0.00  0.00    +0.000 C 
ATOM     17  N   UNL     1       8.159   7.131  18.823  0.00  0.00    +0.000 N 
ATOM     18  H   UNL     1       8.774   6.971  19.611  0.00  0.00    +0.000 HD
BRANCH  16  19
ATOM     19  C   UNL     1       9.137   9.413  18.791  0.00  0.00    +0.000 C 
BRANCH  19  20
ATOM     20  C   UNL     1       9.090  10.743  18.038  0.00  0.00    +0.000 C 
BRANCH  20  21
ATOM     21  C   UNL     1      10.128  11.700  18.548  0.00  0.00    +0.000 A 
ATOM     22  C   UNL     1      11.039  11.327  19.540  0.00  0.00    +0.000 A 
ATOM     23  C   UNL     1      11.974  12.249  20.000  0.00  0.00    +0.000 A 
ATOM     24  C   UNL     1      11.962  13.524  19.459  0.00  0.00    +0.000 A 
ATOM     25  N   UNL     1      11.091  13.923  18.506  0.00  0.00    +0.000 NA
ATOM     26  C   UNL     1      10.205  13.005  18.067  0.00  0.00    +0.000 A 
ENDBRANCH  20  21
ENDBRANCH  19  20
ENDBRANCH  16  19
ENDBRANCH   1  17
TORSDOF 5
ENDMDL
MODEL 7
REMARK VINA RESULT:      -8.2      1.909      2.357
REMARK  Name = 
REMARK  5 active torsions:
REMARK  status: ('A' for Active; 'I' for Inactive)
REMARK    1  A    between atoms: C_2  and  C_3
REMARK    2  A    between atoms: C_3  and  C_4
REMARK    3  A    between atoms: C_4  and  C_5
REMARK    4  A    between atoms: N_11  and  C_12
REMARK    5  A    between atoms: C_14  and  C_15
REMARK                            x       y       z     vdW  Elec       q    Type
REMARK                         _______ _______ _______ _____ _____    ______ ____
ROOT
ATOM      1  C   UNL     1       6.331   5.490  18.793  0.00  0.00    +0.000 A 
ATOM      2  C   UNL     1       5.052   5.522  19.290  0.00  0.00    +0.000 A 
ATOM      3  C   UNL     1       4.576   4.185  19.270  0.00  0.00    +0.000 A 
ATOM      4  N   UNL     1       5.500   3.372  18.727  0.00  0.00    +0.000 NA
ATOM      5  N   UNL     1       6.544   4.176  18.466  0.00  0.00    +0.000 N 
ATOM      6  H   UNL     1       7.370   3.753  18.057  0.00  0.00    +0.000 HD
ENDROOT
BRANCH   3   7
ATOM      7  C   UNL     1       3.274   3.703  19.733  0.00  0.00    +0.000 A 
ATOM      8  C   UNL     1       2.933   3.741  21.095  0.00  0.00    +0.000 A 
ATOM      9  C   UNL     1       1.706   3.232  21.540  0.00  0.00    +0.000 A 
ATOM     10  C   UNL     1       0.803   2.688  20.627  0.00  0.00    +0.000 A 
ATOM     11  C   UNL     1       1.127   2.668  19.277  0.00  0.00    +0.000 A 
ATOM     12  F   UNL     1       0.256   2.152  18.399  0.00  0.00    +0.000 F 
ATOM     13  C   UNL     1       2.345   3.170  18.831  0.00  0.00    +0.000 A 
ATOM     14  F   UNL     1       2.603   3.141  17.514  0.00  0.00    +0.000 F 
ENDBRANCH   3   7
BRANCH   1  17
ATOM     15  O   UNL     1       6.342   7.376  16.661  0.00  0.00    +0.000 OA
ATOM     16  C   UNL     1       7.192   7.464  17.532  0.00  0.00    +0.000 C 
ATOM     17  N   UNL     1       7.235   6.537  18.638  0.00  0.00    +0.000 N 
ATOM     18  H   UNL     1       7.954   6.655  19.341  0.00  0.00    +0.000 HD
BRANCH  16  19
ATOM     19  C   UNL     1       8.299   8.486  17.524  0.00  0.00    +0.000 C 
BRANCH  19  20
ATOM     20  C   UNL     1       8.721   8.835  18.952  0.00  0.00    +0.000 C 
BRANCH  20  21
ATOM     21  C   UNL     1       9.211  10.251  19.049  0.00  0.00    +0.000 A 
ATOM     22  C   UNL     1       9.418  11.030  17.907  0.00  0.00    +0.000 A 
ATOM     23  C   UNL     1       9.892  12.333  18.038  0.00  0.00    +0.000 A 
ATOM     24  C   UNL     1      10.154  12.812  19.311  0.00  0.00    +0.000 A 
ATOM     25  N   UNL     1       9.974  12.086  20.435  0.00  0.00    +0.000 NA
ATOM     26  C   UNL     1       9.501  10.831  20.281  0.00  0.00    +0.000 A 
ENDBRANCH  20  21
ENDBRANCH  19  20
ENDBRANCH  16  19
ENDBRANCH   1  17
TORSDOF 5
ENDMDL
MODEL 8
REMARK VINA RESULT:      -8.2      1.576      1.879
REMARK  Name = 
REMARK  5 active torsions:
REMARK  status: ('A' for Active; 'I' for Inactive)
REMARK    1  A    between atoms: C_2  and  C_3
REMARK    2  A    between atoms: C_3  and  C_4
REMARK    3  A    between atoms: C_4  and  C_5
REMARK    4  A    between atoms: N_11  and  C_12
REMARK    5  A    between atoms: C_14  and  C_15
REMARK                            x       y       z     vdW  Elec       q    Type
REMARK                         _______ _______ _______ _____ _____    ______ ____
ROOT
ATOM      1  C   UNL     1       5.897   5.884  17.847  0.00  0.00    +0.000 A 
ATOM      2  C   UNL     1       4.612   5.856  18.328  0.00  0.00    +0.000 A 
ATOM      3  C   UNL     1       4.351   4.515  18.711  0.00  0.00    +0.000 A 
ATOM      4  N   UNL     1       5.410   3.736  18.421  0.00  0.00    +0.000 NA
ATOM      5  N   UNL     1       6.323   4.583  17.921  0.00  0.00    +0.000 N 
ATOM      6  H   UNL     1       7.219   4.196  17.644  0.00  0.00    +0.000 HD
ENDROOT
BRANCH   3   7
ATOM      7  C   UNL     1       3.126   3.990  19.313  0.00  0.00    +0.000 A 
ATOM      8  C   UNL     1       2.817   4.242  20.660  0.00  0.00    +0.000 A 
ATOM      9  C   UNL     1       1.667   3.695  21.245  0.00  0.00    +0.000 A 
ATOM     10  C   UNL     1       0.810   2.897  20.488  0.00  0.00    +0.000 A 
ATOM     11  C   UNL     1       1.101   2.661  19.151  0.00  0.00    +0.000 A 
ATOM     12  F   UNL     1       0.273   1.900  18.422  0.00  0.00    +0.000 F 
ATOM     13  C   UNL     1       2.241   3.201  18.566  0.00  0.00    +0.000 A 
ATOM     14  F   UNL     1       2.468   2.956  17.266  0.00  0.00    +0.000 F 
ENDBRANCH   3   7
BRANCH   1  17
ATOM     15  O   UNL     1       8.283   6.908  19.013  0.00  0.00    +0.000 OA
ATOM     16  C   UNL     1       7.837   7.446  18.013  0.00  0.00    +0.000 C 
ATOM     17  N   UNL     1       6.632   6.970  17.377  0.00  0.00    +0.000 N 
ATOM     18  H   UNL     1       6.304   7.443  16.544  0.00  0.00    +0.000 HD
BRANCH  16  19
ATOM     19  C   UNL     1       8.442   8.669  17.377  0.00  0.00    +0.000 C 
BRANCH  19  20
ATOM     20  C   UNL     1       8.040   9.930  18.143  0.00  0.00    +0.000 C 
BRANCH  20  21
ATOM     21  C   UNL     1       9.241  10.643  18.696  0.00  0.00    +0.000 A 
ATOM     22  C   UNL     1       9.399  10.848  20.069  0.00  0.00    +0.000 A 
ATOM     23  C   UNL     1      10.517  11.531  20.540  0.00  0.00    +0.000 A 
ATOM     24  C   UNL     1      11.440  11.996  19.619  0.00  0.00    +0.000 A 
ATOM     25  N   UNL     1      11.316  11.825  18.285  0.00  0.00    +0.000 NA
ATOM     26  C   UNL     1      10.231  11.147  17.855  0.00  0.00    +0.000 A 
ENDBRANCH  20  21
ENDBRANCH  19  20
ENDBRANCH  16  19
ENDBRANCH   1  17
TORSDOF 5
ENDMDL
MODEL 9
REMARK VINA RESULT:      -8.1      1.970      2.356
REMARK  Name = 
REMARK  5 active torsions:
REMARK  status: ('A' for Active; 'I' for Inactive)
REMARK    1  A    between atoms: C_2  and  C_3
REMARK    2  A    between atoms: C_3  and  C_4
REMARK    3  A    between atoms: C_4  and  C_5
REMARK    4  A    between atoms: N_11  and  C_12
REMARK    5  A    between atoms: C_14  and  C_15
REMARK                            x       y       z     vdW  Elec       q    Type
REMARK                         _______ _______ _______ _____ _____    ______ ____
ROOT
ATOM      1  C   UNL     1       7.380   5.962  18.661  0.00  0.00    +0.000 A 
ATOM      2  C   UNL     1       6.031   5.776  18.830  0.00  0.00    +0.000 A 
ATOM      3  C   UNL     1       5.733   4.485  18.320  0.00  0.00    +0.000 A 
ATOM      4  N   UNL     1       6.841   3.923  17.803  0.00  0.00    +0.000 NA
ATOM      5  N   UNL     1       7.812   4.822  18.035  0.00  0.00    +0.000 N 
ATOM      6  H   UNL     1       8.750   4.586  17.730  0.00  0.00    +0.000 HD
ENDROOT
BRANCH   3   7
ATOM      7  C   UNL     1       4.430   3.819  18.306  0.00  0.00    +0.000 A 
ATOM      8  C   UNL     1       4.287   2.504  18.779  0.00  0.00    +0.000 A 
ATOM      9  C   UNL     1       3.048   1.853  18.718  0.00  0.00    +0.000 A 
ATOM     10  C   UNL     1       1.937   2.511  18.191  0.00  0.00    +0.000 A 
ATOM     11  C   UNL     1       2.070   3.818  17.741  0.00  0.00    +0.000 A 
ATOM     12  F   UNL     1       1.001   4.454  17.241  0.00  0.00    +0.000 F 
ATOM     13  C   UNL     1       3.298   4.469  17.799  0.00  0.00    +0.000 A 
ATOM     14  F   UNL     1       3.369   5.737  17.365  0.00  0.00    +0.000 F 
ENDBRANCH   3   7
BRANCH   1  17
ATOM     15  O   UNL     1       7.523   8.447  17.280  0.00  0.00    +0.000 OA
ATOM     16  C   UNL     1       8.198   8.290  18.285  0.00  0.00    +0.000 C 
ATOM     17  N   UNL     1       8.165   7.052  19.027  0.00  0.00    +0.000 N 
ATOM     18  H   UNL     1       8.736   6.972  19.859  0.00  0.00    +0.000 HD
BRANCH  16  19
ATOM     19  C   UNL     1       9.159   9.319  18.820  0.00  0.00    +0.000 C 
BRANCH  19  20
ATOM     20  C   UNL     1       8.897  10.684  18.184  0.00  0.00    +0.000 C 
BRANCH  20  21
ATOM     21  C   UNL     1      10.095  11.583  18.300  0.00  0.00    +0.000 A 
ATOM     22  C   UNL     1      10.307  12.634  17.404  0.00  0.00    +0.000 A 
ATOM     23  C   UNL     1      11.440  13.433  17.535  0.00  0.00    +0.000 A 
ATOM     24  C   UNL     1      12.332  13.147  18.554  0.00  0.00    +0.000 A 
ATOM     25  N   UNL     1      12.164  12.135  19.433  0.00  0.00    +0.000 NA
ATOM     26  C   UNL     1      11.051  11.385  19.293  0.00  0.00    +0.000 A 
ENDBRANCH  20  21
ENDBRANCH  19  20
ENDBRANCH  16  19
ENDBRANCH   1  17
TORSDOF 5
ENDMDL
