MODEL 1
REMARK VINA RESULT:      -8.8      0.000      0.000
REMARK  Name = 
REMARK  7 active torsions:
REMARK  status: ('A' for Active; 'I' for Inactive)
REMARK    1  A    between atoms: C_1  and  N_2
REMARK    2  A    between atoms: C_6  and  C_7
REMARK    3  A    between atoms: C_7  and  C_8
REMARK    4  A    between atoms: C_8  and  C_9
REMARK    5  A    between atoms: C_13  and  N_14
REMARK    6  A    between atoms: C_22  and  C_23
REMARK    7  A    between atoms: C_23  and  O_24
REMARK                            x       y       z     vdW  Elec       q    Type
REMARK                         _______ _______ _______ _____ _____    ______ ____
ROOT
ATOM      1  N   UNL     1       3.665   4.461  19.303  0.00  0.00    +0.000 N 
ATOM      2  C   UNL     1       5.051   4.988  19.289  0.00  0.00    +0.000 C 
ATOM      3  C   UNL     1       5.416   4.849  17.847  0.00  0.00    +0.000 A 
ATOM      4  C   UNL     1       4.672   3.787  17.320  0.00  0.00    +0.000 A 
ATOM      5  C   UNL     1       4.658   3.479  15.975  0.00  0.00    +0.000 A 
ATOM      6  C   UNL     1       5.406   4.304  15.145  0.00  0.00    +0.000 A 
ATOM      7  F   UNL     1       5.370   4.105  13.821  0.00  0.00    +0.000 F 
ATOM      8  C   UNL     1       6.135   5.397  15.643  0.00  0.00    +0.000 A 
ATOM      9  C   UNL     1       6.155   5.686  17.018  0.00  0.00    +0.000 A 
ATOM     10  C   UNL     1       3.640   3.427  18.326  0.00  0.00    +0.000 C 
ATOM     11  O   UNL     1       2.832   2.539  18.179  0.00  0.00    +0.000 OA
ENDROOT
BRANCH   1  16
ATOM     12  C   UNL     1       1.928   7.562  20.195  0.00  0.00    +0.000 A 
ATOM     13  C   UNL     1       2.153   8.272  19.008  0.00  0.00    +0.000 A 
ATOM     14  C   UNL     1       2.486   7.600  17.835  0.00  0.00    +0.000 A 
ATOM     15  C   UNL     1       2.705   6.227  17.860  0.00  0.00    +0.000 A 
ATOM     16  C   UNL     1       2.720   5.551  19.091  0.00  0.00    +0.000 A 
ATOM     17  C   UNL     1       2.191   6.185  20.222  0.00  0.00    +0.000 A 
BRANCH  12  18
ATOM     18  C   UNL     1       1.478   8.282  21.440  0.00  0.00    +0.000 C 
BRANCH  18  19
ATOM     19  C   UNL     1      -0.036   8.530  21.494  0.00  0.00    +0.000 C 
BRANCH  19  25
ATOM     20  C   UNL     1      -0.612  10.945  19.558  0.00  0.00    +0.000 C 
ATOM     21  N   UNL     1      -0.543  10.986  20.994  0.00  0.00    +0.000 N 
ATOM     22  C   UNL     1      -0.699  12.101  21.762  0.00  0.00    +0.000 A 
ATOM     23  N   UNL     1      -0.586  11.777  23.028  0.00  0.00    +0.000 NA
ATOM     24  N   UNL     1      -0.349  10.428  23.090  0.00  0.00    +0.000 NA
ATOM     25  C   UNL     1      -0.310   9.952  21.865  0.00  0.00    +0.000 A 
ENDBRANCH  19  25
ENDBRANCH  18  19
ENDBRANCH  12  18
ENDBRANCH   1  16
BRANCH   9  26
ATOM     26  C   UNL     1       6.875   6.890  17.548  0.00  0.00    +0.000 C 
ATOM     27  F   UNL     1       6.090   7.974  17.751  0.00  0.00    +0.000 F 
ATOM     28  F   UNL     1       7.554   6.675  18.700  0.00  0.00    +0.000 F 
BRANCH  26  29
ATOM     29  O   UNL     1       7.822   7.289  16.584  0.00  0.00    +0.000 OA
ATOM     30  H   UNL     1       8.151   8.117  16.970  0.00  0.00    +0.000 HD
ENDBRANCH  26  29
ENDBRANCH   9  26
TORSDOF 6
ENDMDL
MODEL 2
REMARK VINA RESULT:      -8.8      4.651      6.794
REMARK  Name = 
REMARK  7 active torsions:
REMARK  status: ('A' for Active; 'I' for Inactive)
REMARK    1  A    between atoms: C_1  and  N_2
REMARK    2  A    between atoms: C_6  and  C_7
REMARK    3  A    between atoms: C_7  and  C_8
REMARK    4  A    between atoms: C_8  and  C_9
REMARK    5  A    between atoms: C_13  and  N_14
REMARK    6  A    between atoms: C_22  and  C_23
REMARK    7  A    between atoms: C_23  and  O_24
REMARK                            x       y       z     vdW  Elec       q    Type
REMARK                         _______ _______ _______ _____ _____    ______ ____
ROOT
ATOM      1  N   UNL     1       6.010   5.403  15.633  0.00  0.00    +0.000 N 
ATOM      2  C   UNL     1       4.801   6.212  15.923  0.00  0.00    +0.000 C 
ATOM      3  C   UNL     1       4.090   5.352  16.915  0.00  0.00    +0.000 A 
ATOM      4  C   UNL     1       4.451   4.024  16.664  0.00  0.00    +0.000 A 
ATOM      5  C   UNL     1       4.086   2.980  17.491  0.00  0.00    +0.000 A 
ATOM      6  C   UNL     1       3.355   3.316  18.623  0.00  0.00    +0.000 A 
ATOM      7  F   UNL     1       3.039   2.359  19.505  0.00  0.00    +0.000 F 
ATOM      8  C   UNL     1       3.008   4.645  18.917  0.00  0.00    +0.000 A 
ATOM      9  C   UNL     1       3.371   5.694  18.055  0.00  0.00    +0.000 A 
ATOM     10  C   UNL     1       5.589   4.046  15.711  0.00  0.00    +0.000 C 
ATOM     11  O   UNL     1       6.136   3.055  15.285  0.00  0.00    +0.000 OA
ENDROOT
BRANCH   1  16
ATOM     12  C   UNL     1       7.847   7.698  17.820  0.00  0.00    +0.000 A 
ATOM     13  C   UNL     1       7.938   6.875  18.951  0.00  0.00    +0.000 A 
ATOM     14  C   UNL     1       7.778   5.497  18.837  0.00  0.00    +0.000 A 
ATOM     15  C   UNL     1       7.416   4.940  17.615  0.00  0.00    +0.000 A 
ATOM     16  C   UNL     1       7.087   5.781  16.541  0.00  0.00    +0.000 A 
ATOM     17  C   UNL     1       7.444   7.135  16.602  0.00  0.00    +0.000 A 
BRANCH  12  18
ATOM     18  C   UNL     1       8.113   9.178  17.932  0.00  0.00    +0.000 C 
BRANCH  18  19
ATOM     19  C   UNL     1       8.982   9.558  19.139  0.00  0.00    +0.000 C 
BRANCH  19  25
ATOM     20  C   UNL     1       9.471  11.875  21.212  0.00  0.00    +0.000 C 
ATOM     21  N   UNL     1       9.833  11.870  19.821  0.00  0.00    +0.000 N 
ATOM     22  C   UNL     1      10.440  12.894  19.158  0.00  0.00    +0.000 A 
ATOM     23  N   UNL     1      10.636  12.549  17.908  0.00  0.00    +0.000 NA
ATOM     24  N   UNL     1      10.144  11.279  17.748  0.00  0.00    +0.000 NA
ATOM     25  C   UNL     1       9.649  10.873  18.897  0.00  0.00    +0.000 A 
ENDBRANCH  19  25
ENDBRANCH  18  19
ENDBRANCH  12  18
ENDBRANCH   1  16
BRANCH   9  26
ATOM     26  C   UNL     1       3.063   7.122  18.398  0.00  0.00    +0.000 C 
ATOM     27  F   UNL     1       4.074   7.991  18.159  0.00  0.00    +0.000 F 
ATOM     28  F   UNL     1       1.963   7.621  17.784  0.00  0.00    +0.000 F 
BRANCH  26  29
ATOM     29  O   UNL     1       2.827   7.195  19.785  0.00  0.00    +0.000 OA
ATOM     30  H   UNL     1       2.039   6.634  19.875  0.00  0.00    +0.000 HD
ENDBRANCH  26  29
ENDBRANCH   9  26
TORSDOF 6
ENDMDL
MODEL 3
REMARK VINA RESULT:      -8.4      0.762      1.139
REMARK  Name = 
REMARK  7 active torsions:
REMARK  status: ('A' for Active; 'I' for Inactive)
REMARK    1  A    between atoms: C_1  and  N_2
REMARK    2  A    between atoms: C_6  and  C_7
REMARK    3  A    between atoms: C_7  and  C_8
REMARK    4  A    between atoms: C_8  and  C_9
REMARK    5  A    between atoms: C_13  and  N_14
REMARK    6  A    between atoms: C_22  and  C_23
REMARK    7  A    between atoms: C_23  and  O_24
REMARK                            x       y       z     vdW  Elec       q    Type
REMARK                         _______ _______ _______ _____ _____    ______ ____
ROOT
ATOM      1  N   UNL     1       3.799   4.667  19.390  0.00  0.00    +0.000 N 
ATOM      2  C   UNL     1       5.186   5.193  19.398  0.00  0.00    +0.000 C 
ATOM      3  C   UNL     1       5.617   4.939  17.991  0.00  0.00    +0.000 A 
ATOM      4  C   UNL     1       4.896   3.837  17.517  0.00  0.00    +0.000 A 
ATOM      5  C   UNL     1       4.944   3.421  16.202  0.00  0.00    +0.000 A 
ATOM      6  C   UNL     1       5.732   4.177  15.343  0.00  0.00    +0.000 A 
ATOM      7  F   UNL     1       5.758   3.871  14.040  0.00  0.00    +0.000 F 
ATOM      8  C   UNL     1       6.440   5.307  15.785  0.00  0.00    +0.000 A 
ATOM      9  C   UNL     1       6.396   5.707  17.132  0.00  0.00    +0.000 A 
ATOM     10  C   UNL     1       3.818   3.558  18.499  0.00  0.00    +0.000 C 
ATOM     11  O   UNL     1       3.015   2.659  18.386  0.00  0.00    +0.000 OA
ENDROOT
BRANCH   1  16
ATOM     12  C   UNL     1       1.900   7.737  20.018  0.00  0.00    +0.000 A 
ATOM     13  C   UNL     1       2.261   8.443  18.862  0.00  0.00    +0.000 A 
ATOM     14  C   UNL     1       2.756   7.768  17.748  0.00  0.00    +0.000 A 
ATOM     15  C   UNL     1       2.998   6.401  17.816  0.00  0.00    +0.000 A 
ATOM     16  C   UNL     1       2.868   5.735  19.045  0.00  0.00    +0.000 A 
ATOM     17  C   UNL     1       2.184   6.367  20.093  0.00  0.00    +0.000 A 
BRANCH  12  18
ATOM     18  C   UNL     1       1.278   8.458  21.186  0.00  0.00    +0.000 C 
BRANCH  18  19
ATOM     19  C   UNL     1      -0.035   9.174  20.841  0.00  0.00    +0.000 C 
BRANCH  19  25
ATOM     20  C   UNL     1      -1.284  10.973  23.101  0.00  0.00    +0.000 C 
ATOM     21  N   UNL     1      -0.450  11.407  22.013  0.00  0.00    +0.000 N 
ATOM     22  C   UNL     1      -0.075  12.694  21.768  0.00  0.00    +0.000 A 
ATOM     23  N   UNL     1       0.693  12.731  20.706  0.00  0.00    +0.000 NA
ATOM     24  N   UNL     1       0.819  11.446  20.244  0.00  0.00    +0.000 NA
ATOM     25  C   UNL     1       0.121  10.649  21.024  0.00  0.00    +0.000 A 
ENDBRANCH  19  25
ENDBRANCH  18  19
ENDBRANCH  12  18
ENDBRANCH   1  16
BRANCH   9  26
ATOM     26  C   UNL     1       7.093   6.951  17.596  0.00  0.00    +0.000 C 
ATOM     27  F   UNL     1       6.281   8.018  17.785  0.00  0.00    +0.000 F 
ATOM     28  F   UNL     1       7.813   6.799  18.733  0.00  0.00    +0.000 F 
BRANCH  26  29
ATOM     29  O   UNL     1       7.997   7.344  16.589  0.00  0.00    +0.000 OA
ATOM     30  H   UNL     1       8.596   7.925  17.085  0.00  0.00    +0.000 HD
ENDBRANCH  26  29
ENDBRANCH   9  26
TORSDOF 6
ENDMDL
MODEL 4
REMARK VINA RESULT:      -8.4      4.650      6.596
REMARK  Name = 
REMARK  7 active torsions:
REMARK  status: ('A' for Active; 'I' for Inactive)
REMARK    1  A    between atoms: C_1  and  N_2
REMARK    2  A    between atoms: C_6  and  C_7
REMARK    3  A    between atoms: C_7  and  C_8
REMARK    4  A    between atoms: C_8  and  C_9
REMARK    5  A    between atoms: C_13  and  N_14
REMARK    6  A    between atoms: C_22  and  C_23
REMARK    7  A    between atoms: C_23  and  O_24
REMARK                            x       y       z     vdW  Elec       q    Type
REMARK                         _______ _______ _______ _____ _____    ______ ____
ROOT
ATOM      1  N   UNL     1       5.791   5.822  15.873  0.00  0.00    +0.000 N 
ATOM      2  C   UNL     1       4.629   6.319  16.649  0.00  0.00    +0.000 C 
ATOM      3  C   UNL     1       4.080   5.054  17.222  0.00  0.00    +0.000 A 
ATOM      4  C   UNL     1       4.414   4.012  16.350  0.00  0.00    +0.000 A 
ATOM      5  C   UNL     1       4.185   2.684  16.649  0.00  0.00    +0.000 A 
ATOM      6  C   UNL     1       3.625   2.419  17.892  0.00  0.00    +0.000 A 
ATOM      7  F   UNL     1       3.452   1.147  18.273  0.00  0.00    +0.000 F 
ATOM      8  C   UNL     1       3.312   3.443  18.801  0.00  0.00    +0.000 A 
ATOM      9  C   UNL     1       3.533   4.792  18.473  0.00  0.00    +0.000 A 
ATOM     10  C   UNL     1       5.399   4.547  15.377  0.00  0.00    +0.000 C 
ATOM     11  O   UNL     1       5.888   3.897  14.481  0.00  0.00    +0.000 OA
ENDROOT
BRANCH   1  16
ATOM     12  C   UNL     1       8.067   7.218  18.382  0.00  0.00    +0.000 A 
ATOM     13  C   UNL     1       8.180   6.091  19.207  0.00  0.00    +0.000 A 
ATOM     14  C   UNL     1       7.864   4.825  18.721  0.00  0.00    +0.000 A 
ATOM     15  C   UNL     1       7.327   4.686  17.446  0.00  0.00    +0.000 A 
ATOM     16  C   UNL     1       6.985   5.832  16.709  0.00  0.00    +0.000 A 
ATOM     17  C   UNL     1       7.488   7.076  17.114  0.00  0.00    +0.000 A 
BRANCH  12  18
ATOM     18  C   UNL     1       8.498   8.574  18.881  0.00  0.00    +0.000 C 
BRANCH  18  19
ATOM     19  C   UNL     1       8.314   9.697  17.851  0.00  0.00    +0.000 C 
BRANCH  19  25
ATOM     20  C   UNL     1       7.712  12.700  17.125  0.00  0.00    +0.000 C 
ATOM     21  N   UNL     1       8.801  12.205  17.923  0.00  0.00    +0.000 N 
ATOM     22  C   UNL     1       9.779  12.969  18.488  0.00  0.00    +0.000 A 
ATOM     23  N   UNL     1      10.603  12.198  19.155  0.00  0.00    +0.000 NA
ATOM     24  N   UNL     1      10.161  10.907  19.022  0.00  0.00    +0.000 NA
ATOM     25  C   UNL     1       9.082  10.909  18.270  0.00  0.00    +0.000 A 
ENDBRANCH  19  25
ENDBRANCH  18  19
ENDBRANCH  12  18
ENDBRANCH   1  16
BRANCH   9  26
ATOM     26  C   UNL     1       3.264   5.886  19.464  0.00  0.00    +0.000 C 
ATOM     27  F   UNL     1       4.365   6.557  19.878  0.00  0.00    +0.000 F 
ATOM     28  F   UNL     1       2.373   6.815  19.045  0.00  0.00    +0.000 F 
BRANCH  26  29
ATOM     29  O   UNL     1       2.726   5.297  20.626  0.00  0.00    +0.000 OA
ATOM     30  H   UNL     1       3.475   4.760  20.932  0.00  0.00    +0.000 HD
ENDBRANCH  26  29
ENDBRANCH   9  26
TORSDOF 6
ENDMDL
MODEL 5
REMARK VINA RESULT:      -8.1      4.396      6.511
REMARK  Name = 
REMARK  7 active torsions:
REMARK  status: ('A' for Active; 'I' for Inactive)
REMARK    1  A    between atoms: C_1  and  N_2
REMARK    2  A    between atoms: C_6  and  C_7
REMARK    3  A    between atoms: C_7  and  C_8
REMARK    4  A    between atoms: C_8  and  C_9
REMARK    5  A    between atoms: C_13  and  N_14
REMARK    6  A    between atoms: C_22  and  C_23
REMARK    7  A    between atoms: C_23  and  O_24
REMARK                            x       y       z     vdW  Elec       q    Type
REMARK                         _______ _______ _______ _____ _____    ______ ____
ROOT
ATOM      1  N   UNL     1       6.087   5.535  15.649  0.00  0.00    +0.000 N 
ATOM      2  C   UNL     1       4.887   6.358  15.934  0.00  0.00    +0.000 C 
ATOM      3  C   UNL     1       4.146   5.493  16.901  0.00  0.00    +0.000 A 
ATOM      4  C   UNL     1       4.490   4.163  16.633  0.00  0.00    +0.000 A 
ATOM      5  C   UNL     1       4.095   3.112  17.436  0.00  0.00    +0.000 A 
ATOM      6  C   UNL     1       3.353   3.441  18.562  0.00  0.00    +0.000 A 
ATOM      7  F   UNL     1       3.008   2.474  19.423  0.00  0.00    +0.000 F 
ATOM      8  C   UNL     1       3.023   4.770  18.874  0.00  0.00    +0.000 A 
ATOM      9  C   UNL     1       3.415   5.828  18.036  0.00  0.00    +0.000 A 
ATOM     10  C   UNL     1       5.643   4.184  15.698  0.00  0.00    +0.000 C 
ATOM     11  O   UNL     1       6.181   3.191  15.263  0.00  0.00    +0.000 OA
ENDROOT
BRANCH   1  16
ATOM     12  C   UNL     1       7.889   7.741  17.954  0.00  0.00    +0.000 A 
ATOM     13  C   UNL     1       7.984   6.866  19.045  0.00  0.00    +0.000 A 
ATOM     14  C   UNL     1       7.839   5.493  18.863  0.00  0.00    +0.000 A 
ATOM     15  C   UNL     1       7.489   4.991  17.614  0.00  0.00    +0.000 A 
ATOM     16  C   UNL     1       7.155   5.880  16.580  0.00  0.00    +0.000 A 
ATOM     17  C   UNL     1       7.497   7.233  16.708  0.00  0.00    +0.000 A 
BRANCH  12  18
ATOM     18  C   UNL     1       8.139   9.216  18.138  0.00  0.00    +0.000 C 
BRANCH  18  19
ATOM     19  C   UNL     1       9.398   9.530  18.957  0.00  0.00    +0.000 C 
BRANCH  19  25
ATOM     20  C   UNL     1      10.418  12.163  17.565  0.00  0.00    +0.000 C 
ATOM     21  N   UNL     1       9.801  12.053  18.859  0.00  0.00    +0.000 N 
ATOM     22  C   UNL     1       9.571  13.087  19.716  0.00  0.00    +0.000 A 
ATOM     23  N   UNL     1       8.983  12.634  20.797  0.00  0.00    +0.000 NA
ATOM     24  N   UNL     1       8.829  11.280  20.648  0.00  0.00    +0.000 NA
ATOM     25  C   UNL     1       9.332  10.927  19.485  0.00  0.00    +0.000 A 
ENDBRANCH  19  25
ENDBRANCH  18  19
ENDBRANCH  12  18
ENDBRANCH   1  16
BRANCH   9  26
ATOM     26  C   UNL     1       3.125   7.254  18.397  0.00  0.00    +0.000 C 
ATOM     27  F   UNL     1       2.766   7.448  19.689  0.00  0.00    +0.000 F 
ATOM     28  F   UNL     1       4.137   8.116  18.138  0.00  0.00    +0.000 F 
BRANCH  26  29
ATOM     29  O   UNL     1       2.019   7.680  17.635  0.00  0.00    +0.000 OA
ATOM     30  H   UNL     1       1.933   6.951  16.999  0.00  0.00    +0.000 HD
ENDBRANCH  26  29
ENDBRANCH   9  26
TORSDOF 6
ENDMDL
MODEL 6
REMARK VINA RESULT:      -8.1      1.163      1.215
REMARK  Name = 
REMARK  7 active torsions:
REMARK  status: ('A' for Active; 'I' for Inactive)
REMARK    1  A    between atoms: C_1  and  N_2
REMARK    2  A    between atoms: C_6  and  C_7
REMARK    3  A    between atoms: C_7  and  C_8
REMARK    4  A    between atoms: C_8  and  C_9
REMARK    5  A    between atoms: C_13  and  N_14
REMARK    6  A    between atoms: C_22  and  C_23
REMARK    7  A    between atoms: C_23  and  O_24
REMARK                            x       y       z     vdW  Elec       q    Type
REMARK                         _______ _______ _______ _____ _____    ______ ____
ROOT
ATOM      1  N   UNL     1       3.211   3.896  18.757  0.00  0.00    +0.000 N 
ATOM      2  C   UNL     1       4.591   4.044  19.280  0.00  0.00    +0.000 C 
ATOM      3  C   UNL     1       5.385   4.153  18.020  0.00  0.00    +0.000 A 
ATOM      4  C   UNL     1       4.691   3.465  17.018  0.00  0.00    +0.000 A 
ATOM      5  C   UNL     1       5.073   3.489  15.692  0.00  0.00    +0.000 A 
ATOM      6  C   UNL     1       6.182   4.266  15.383  0.00  0.00    +0.000 A 
ATOM      7  F   UNL     1       6.555   4.393  14.103  0.00  0.00    +0.000 F 
ATOM      8  C   UNL     1       6.877   4.994  16.363  0.00  0.00    +0.000 A 
ATOM      9  C   UNL     1       6.487   4.944  17.712  0.00  0.00    +0.000 A 
ATOM     10  C   UNL     1       3.339   3.156  17.548  0.00  0.00    +0.000 C 
ATOM     11  O   UNL     1       2.488   2.560  16.928  0.00  0.00    +0.000 OA
ENDROOT
BRANCH   1  16
ATOM     12  C   UNL     1       1.906   7.082  20.012  0.00  0.00    +0.000 A 
ATOM     13  C   UNL     1       2.590   7.941  19.142  0.00  0.00    +0.000 A 
ATOM     14  C   UNL     1       3.111   7.464  17.942  0.00  0.00    +0.000 A 
ATOM     15  C   UNL     1       3.052   6.105  17.653  0.00  0.00    +0.000 A 
ATOM     16  C   UNL     1       2.588   5.209  18.628  0.00  0.00    +0.000 A 
ATOM     17  C   UNL     1       1.886   5.709  19.733  0.00  0.00    +0.000 A 
BRANCH  12  18
ATOM     18  C   UNL     1       1.262   7.620  21.264  0.00  0.00    +0.000 C 
BRANCH  18  19
ATOM     19  C   UNL     1       1.724   9.036  21.634  0.00  0.00    +0.000 C 
BRANCH  19  25
ATOM     20  C   UNL     1      -0.029  11.044  19.959  0.00  0.00    +0.000 C 
ATOM     21  N   UNL     1      -0.173  10.727  21.354  0.00  0.00    +0.000 N 
ATOM     22  C   UNL     1      -1.096  11.270  22.197  0.00  0.00    +0.000 A 
ATOM     23  N   UNL     1      -0.955  10.749  23.392  0.00  0.00    +0.000 NA
ATOM     24  N   UNL     1       0.082   9.853  23.332  0.00  0.00    +0.000 NA
ATOM     25  C   UNL     1       0.561   9.848  22.108  0.00  0.00    +0.000 A 
ENDBRANCH  19  25
ENDBRANCH  18  19
ENDBRANCH  12  18
ENDBRANCH   1  16
BRANCH   9  26
ATOM     26  C   UNL     1       7.182   5.771  18.753  0.00  0.00    +0.000 C 
ATOM     27  F   UNL     1       7.730   6.919  18.289  0.00  0.00    +0.000 F 
ATOM     28  F   UNL     1       6.408   6.105  19.812  0.00  0.00    +0.000 F 
BRANCH  26  29
ATOM     29  O   UNL     1       8.262   5.019  19.256  0.00  0.00    +0.000 OA
ATOM     30  H   UNL     1       8.800   5.711  19.673  0.00  0.00    +0.000 HD
ENDBRANCH  26  29
ENDBRANCH   9  26
TORSDOF 6
ENDMDL
MODEL 7
REMARK VINA RESULT:      -8.0      3.955      8.429
REMARK  Name = 
REMARK  7 active torsions:
REMARK  status: ('A' for Active; 'I' for Inactive)
REMARK    1  A    between atoms: C_1  and  N_2
REMARK    2  A    between atoms: C_6  and  C_7
REMARK    3  A    between atoms: C_7  and  C_8
REMARK    4  A    between atoms: C_8  and  C_9
REMARK    5  A    between atoms: C_13  and  N_14
REMARK    6  A    between atoms: C_22  and  C_23
REMARK    7  A    between atoms: C_23  and  O_24
REMARK                            x       y       z     vdW  Elec       q    Type
REMARK                         _______ _______ _______ _____ _____    ______ ____
ROOT
ATOM      1  N   UNL     1       0.590   8.501  21.085  0.00  0.00    +0.000 N 
ATOM      2  C   UNL     1      -0.646   8.851  20.344  0.00  0.00    +0.000 C 
ATOM      3  C   UNL     1      -0.496  10.328  20.182  0.00  0.00    +0.000 A 
ATOM      4  C   UNL     1       0.278  10.797  21.249  0.00  0.00    +0.000 A 
ATOM      5  C   UNL     1       0.730  12.099  21.329  0.00  0.00    +0.000 A 
ATOM      6  C   UNL     1       0.404  12.933  20.268  0.00  0.00    +0.000 A 
ATOM      7  F   UNL     1       0.880  14.184  20.249  0.00  0.00    +0.000 F 
ATOM      8  C   UNL     1      -0.343  12.479  19.168  0.00  0.00    +0.000 A 
ATOM      9  C   UNL     1      -0.813  11.156  19.110  0.00  0.00    +0.000 A 
ATOM     10  C   UNL     1       0.853   9.612  21.934  0.00  0.00    +0.000 C 
ATOM     11  O   UNL     1       1.571   9.674  22.906  0.00  0.00    +0.000 OA
ENDROOT
BRANCH   1  16
ATOM     12  C   UNL     1       2.627   6.215  19.072  0.00  0.00    +0.000 A 
ATOM     13  C   UNL     1       2.509   6.868  17.837  0.00  0.00    +0.000 A 
ATOM     14  C   UNL     1       2.135   8.208  17.780  0.00  0.00    +0.000 A 
ATOM     15  C   UNL     1       1.769   8.877  18.943  0.00  0.00    +0.000 A 
ATOM     16  C   UNL     1       1.651   8.161  20.145  0.00  0.00    +0.000 A 
ATOM     17  C   UNL     1       2.218   6.883  20.234  0.00  0.00    +0.000 A 
BRANCH  12  18
ATOM     18  C   UNL     1       3.122   4.793  19.137  0.00  0.00    +0.000 C 
BRANCH  18  19
ATOM     19  C   UNL     1       3.730   4.292  17.820  0.00  0.00    +0.000 C 
BRANCH  19  25
ATOM     20  C   UNL     1       5.663   4.856  15.401  0.00  0.00    +0.000 C 
ATOM     21  N   UNL     1       6.034   4.666  16.777  0.00  0.00    +0.000 N 
ATOM     22  C   UNL     1       7.307   4.680  17.262  0.00  0.00    +0.000 A 
ATOM     23  N   UNL     1       7.282   4.486  18.559  0.00  0.00    +0.000 NA
ATOM     24  N   UNL     1       5.969   4.339  18.929  0.00  0.00    +0.000 NA
ATOM     25  C   UNL     1       5.217   4.435  17.854  0.00  0.00    +0.000 A 
ENDBRANCH  19  25
ENDBRANCH  18  19
ENDBRANCH  12  18
ENDBRANCH   1  16
BRANCH   9  26
ATOM     26  C   UNL     1      -1.552  10.646  17.908  0.00  0.00    +0.000 C 
ATOM     27  F   UNL     1      -0.885   9.713  17.189  0.00  0.00    +0.000 F 
ATOM     28  F   UNL     1      -2.776  10.132  18.179  0.00  0.00    +0.000 F 
BRANCH  26  29
ATOM     29  O   UNL     1      -1.748  11.728  17.027  0.00  0.00    +0.000 OA
ATOM     30  H   UNL     1      -1.698  11.284  16.165  0.00  0.00    +0.000 HD
ENDBRANCH  26  29
ENDBRANCH   9  26
TORSDOF 6
ENDMDL
MODEL 8
REMARK VINA RESULT:      -8.0      3.169      4.867
REMARK  Name = 
REMARK  7 active torsions:
REMARK  status: ('A' for Active; 'I' for Inactive)
REMARK    1  A    between atoms: C_1  and  N_2
REMARK    2  A    between atoms: C_6  and  C_7
REMARK    3  A    between atoms: C_7  and  C_8
REMARK    4  A    between atoms: C_8  and  C_9
REMARK    5  A    between atoms: C_13  and  N_14
REMARK    6  A    between atoms: C_22  and  C_23
REMARK    7  A    between atoms: C_23  and  O_24
REMARK                            x       y       z     vdW  Elec       q    Type
REMARK                         _______ _______ _______ _____ _____    ______ ____
ROOT
ATOM      1  N   UNL     1       2.914   5.767  17.404  0.00  0.00    +0.000 N 
ATOM      2  C   UNL     1       1.873   4.756  17.712  0.00  0.00    +0.000 C 
ATOM      3  C   UNL     1       2.612   3.820  18.611  0.00  0.00    +0.000 A 
ATOM      4  C   UNL     1       3.968   3.887  18.274  0.00  0.00    +0.000 A 
ATOM      5  C   UNL     1       4.953   3.256  19.006  0.00  0.00    +0.000 A 
ATOM      6  C   UNL     1       4.535   2.562  20.134  0.00  0.00    +0.000 A 
ATOM      7  F   UNL     1       5.451   1.995  20.930  0.00  0.00    +0.000 F 
ATOM      8  C   UNL     1       3.184   2.508  20.515  0.00  0.00    +0.000 A 
ATOM      9  C   UNL     1       2.190   3.139  19.748  0.00  0.00    +0.000 A 
ATOM     10  C   UNL     1       4.142   5.049  17.365  0.00  0.00    +0.000 C 
ATOM     11  O   UNL     1       5.202   5.380  16.885  0.00  0.00    +0.000 OA
ENDROOT
BRANCH   1  16
ATOM     12  C   UNL     1       1.703   8.962  18.727  0.00  0.00    +0.000 A 
ATOM     13  C   UNL     1       1.370   8.536  20.020  0.00  0.00    +0.000 A 
ATOM     14  C   UNL     1       1.919   7.367  20.542  0.00  0.00    +0.000 A 
ATOM     15  C   UNL     1       2.715   6.557  19.741  0.00  0.00    +0.000 A 
ATOM     16  C   UNL     1       2.851   6.853  18.375  0.00  0.00    +0.000 A 
ATOM     17  C   UNL     1       2.472   8.120  17.912  0.00  0.00    +0.000 A 
BRANCH  12  18
ATOM     18  C   UNL     1       1.181  10.274  18.200  0.00  0.00    +0.000 C 
BRANCH  18  19
ATOM     19  C   UNL     1       0.042  10.867  19.041  0.00  0.00    +0.000 C 
BRANCH  19  25
ATOM     20  C   UNL     1      -2.687  12.305  19.667  0.00  0.00    +0.000 C 
ATOM     21  N   UNL     1      -2.439  11.330  18.640  0.00  0.00    +0.000 N 
ATOM     22  C   UNL     1      -3.368  10.847  17.767  0.00  0.00    +0.000 A 
ATOM     23  N   UNL     1      -2.801   9.984  16.960  0.00  0.00    +0.000 NA
ATOM     24  N   UNL     1      -1.479   9.896  17.312  0.00  0.00    +0.000 NA
ATOM     25  C   UNL     1      -1.262  10.698  18.331  0.00  0.00    +0.000 A 
ENDBRANCH  19  25
ENDBRANCH  18  19
ENDBRANCH  12  18
ENDBRANCH   1  16
BRANCH   9  26
ATOM     26  C   UNL     1       0.756   3.142  20.186  0.00  0.00    +0.000 C 
ATOM     27  F   UNL     1       0.215   4.374  20.342  0.00  0.00    +0.000 F 
ATOM     28  F   UNL     1      -0.079   2.447  19.378  0.00  0.00    +0.000 F 
BRANCH  26  29
ATOM     29  O   UNL     1       0.689   2.541  21.459  0.00  0.00    +0.000 OA
ATOM     30  H   UNL     1       1.241   1.754  21.328  0.00  0.00    +0.000 HD
ENDBRANCH  26  29
ENDBRANCH   9  26
TORSDOF 6
ENDMDL
MODEL 9
REMARK VINA RESULT:      -8.0      4.570      8.518
REMARK  Name = 
REMARK  7 active torsions:
REMARK  status: ('A' for Active; 'I' for Inactive)
REMARK    1  A    between atoms: C_1  and  N_2
REMARK    2  A    between atoms: C_6  and  C_7
REMARK    3  A    between atoms: C_7  and  C_8
REMARK    4  A    between atoms: C_8  and  C_9
REMARK    5  A    between atoms: C_13  and  N_14
REMARK    6  A    between atoms: C_22  and  C_23
REMARK    7  A    between atoms: C_23  and  O_24
REMARK                            x       y       z     vdW  Elec       q    Type
REMARK                         _______ _______ _______ _____ _____    ______ ____
ROOT
ATOM      1  N   UNL     1      -0.008   9.203  20.940  0.00  0.00    +0.000 N 
ATOM      2  C   UNL     1      -1.165   9.615  20.109  0.00  0.00    +0.000 C 
ATOM      3  C   UNL     1      -1.118  11.103  20.238  0.00  0.00    +0.000 A 
ATOM      4  C   UNL     1      -0.527  11.405  21.470  0.00  0.00    +0.000 A 
ATOM      5  C   UNL     1      -0.197  12.692  21.846  0.00  0.00    +0.000 A 
ATOM      6  C   UNL     1      -0.455  13.691  20.917  0.00  0.00    +0.000 A 
ATOM      7  F   UNL     1      -0.085  14.949  21.190  0.00  0.00    +0.000 F 
ATOM      8  C   UNL     1      -1.017  13.412  19.660  0.00  0.00    +0.000 A 
ATOM      9  C   UNL     1      -1.365  12.099  19.300  0.00  0.00    +0.000 A 
ATOM     10  C   UNL     1       0.053  10.147  22.003  0.00  0.00    +0.000 C 
ATOM     11  O   UNL     1       0.635  10.064  23.061  0.00  0.00    +0.000 OA
ENDROOT
BRANCH   1  16
ATOM     12  C   UNL     1       2.534   7.438  18.979  0.00  0.00    +0.000 A 
ATOM     13  C   UNL     1       2.466   8.211  17.811  0.00  0.00    +0.000 A 
ATOM     14  C   UNL     1       1.922   9.492  17.843  0.00  0.00    +0.000 A 
ATOM     15  C   UNL     1       1.340   9.969  19.012  0.00  0.00    +0.000 A 
ATOM     16  C   UNL     1       1.188   9.110  20.112  0.00  0.00    +0.000 A 
ATOM     17  C   UNL     1       1.911   7.909  20.142  0.00  0.00    +0.000 A 
BRANCH  12  18
ATOM     18  C   UNL     1       3.209   6.090  18.961  0.00  0.00    +0.000 C 
BRANCH  18  19
ATOM     19  C   UNL     1       2.252   4.927  18.664  0.00  0.00    +0.000 C 
BRANCH  19  25
ATOM     20  C   UNL     1       0.680   2.211  18.918  0.00  0.00    +0.000 C 
ATOM     21  N   UNL     1       1.352   2.923  19.971  0.00  0.00    +0.000 N 
ATOM     22  C   UNL     1       1.402   2.539  21.278  0.00  0.00    +0.000 A 
ATOM     23  N   UNL     1       2.106   3.409  21.962  0.00  0.00    +0.000 NA
ATOM     24  N   UNL     1       2.521   4.381  21.088  0.00  0.00    +0.000 NA
ATOM     25  C   UNL     1       2.058   4.096  19.891  0.00  0.00    +0.000 A 
ENDBRANCH  19  25
ENDBRANCH  18  19
ENDBRANCH  12  18
ENDBRANCH   1  16
BRANCH   9  26
ATOM     26  C   UNL     1      -1.901  11.784  17.935  0.00  0.00    +0.000 C 
ATOM     27  F   UNL     1      -1.591  10.549  17.476  0.00  0.00    +0.000 F 
ATOM     28  F   UNL     1      -3.243  11.922  17.814  0.00  0.00    +0.000 F 
BRANCH  26  29
ATOM     29  O   UNL     1      -1.314  12.681  17.020  0.00  0.00    +0.000 OA
ATOM     30  H   UNL     1      -1.070  12.082  16.295  0.00  0.00    +0.000 HD
ENDBRANCH  26  29
ENDBRANCH   9  26
TORSDOF 6
ENDMDL
