MODEL 1
REMARK VINA RESULT:      -8.6      0.000      0.000
REMARK  Name = 
REMARK  7 active torsions:
REMARK  status: ('A' for Active; 'I' for Inactive)
REMARK    1  A    between atoms: C_1  and  N_2
REMARK    2  A    between atoms: C_6  and  C_7
REMARK    3  A    between atoms: C_7  and  C_8
REMARK    4  A    between atoms: C_8  and  C_11
REMARK    5  A    between atoms: C_15  and  N_16
REMARK    6  A    between atoms: C_23  and  C_24
REMARK    7  A    between atoms: C_24  and  C_25
REMARK                            x       y       z     vdW  Elec       q    Type
REMARK                         _______ _______ _______ _____ _____    ______ ____
ROOT
ATOM      1  C   UNL     1       1.252   8.771  19.782  0.00  0.00    +0.000 A 
ATOM      2  C   UNL     1       1.862   9.242  18.599  0.00  0.00    +0.000 A 
ATOM      3  C   UNL     1       2.552   8.391  17.737  0.00  0.00    +0.000 A 
ATOM      4  C   UNL     1       2.762   7.071  18.104  0.00  0.00    +0.000 A 
ATOM      5  C   UNL     1       2.421   6.662  19.404  0.00  0.00    +0.000 A 
ATOM      6  C   UNL     1       1.522   7.439  20.152  0.00  0.00    +0.000 A 
ENDROOT
BRANCH   5   7
ATOM      7  N   UNL     1       3.359   5.822  20.154  0.00  0.00    +0.000 N 
ATOM      8  C   UNL     1       4.533   5.499  19.300  0.00  0.00    +0.000 C 
ATOM      9  C   UNL     1       4.055   4.274  18.578  0.00  0.00    +0.000 A 
ATOM     10  C   UNL     1       3.165   3.621  19.431  0.00  0.00    +0.000 A 
ATOM     11  C   UNL     1       2.361   2.567  19.036  0.00  0.00    +0.000 A 
ATOM     12  C   UNL     1       2.444   2.174  17.702  0.00  0.00    +0.000 A 
ATOM     13  C   UNL     1       3.320   2.836  16.820  0.00  0.00    +0.000 A 
ATOM     14  C   UNL     1       4.149   3.895  17.239  0.00  0.00    +0.000 A 
ATOM     15  C   UNL     1       2.849   4.548  20.551  0.00  0.00    +0.000 C 
ATOM     16  O   UNL     1       2.121   4.286  21.483  0.00  0.00    +0.000 OA
BRANCH  14  17
ATOM     17  C   UNL     1       5.019   4.606  16.232  0.00  0.00    +0.000 C 
ATOM     18  C   UNL     1       6.488   4.433  16.578  0.00  0.00    +0.000 C 
ATOM     19  F   UNL     1       4.836   4.128  14.963  0.00  0.00    +0.000 F 
ATOM     20  F   UNL     1       4.773   5.944  16.136  0.00  0.00    +0.000 F 
ENDBRANCH  14  17
ENDBRANCH   5   7
BRANCH   1  21
ATOM     21  C   UNL     1       0.505   9.699  20.665  0.00  0.00    +0.000 C 
ATOM     22  C   UNL     1       0.162   9.280  21.895  0.00  0.00    +0.000 C 
ATOM     23  F   UNL     1      -0.617  10.011  22.707  0.00  0.00    +0.000 F 
BRANCH  21  24
ATOM     24  C   UNL     1       0.011  11.042  20.148  0.00  0.00    +0.000 C 
BRANCH  24  30
ATOM     25  C   UNL     1       2.235  12.671  18.569  0.00  0.00    +0.000 C 
ATOM     26  N   UNL     1       1.719  12.935  19.883  0.00  0.00    +0.000 N 
ATOM     27  C   UNL     1       2.201  13.897  20.723  0.00  0.00    +0.000 A 
ATOM     28  N   UNL     1       1.520  13.883  21.841  0.00  0.00    +0.000 NA
ATOM     29  N   UNL     1       0.602  12.866  21.752  0.00  0.00    +0.000 NA
ATOM     30  C   UNL     1       0.725  12.285  20.575  0.00  0.00    +0.000 A 
ENDBRANCH  24  30
ENDBRANCH  21  24
ENDBRANCH   1  21
TORSDOF 5
ENDMDL
MODEL 2
REMARK VINA RESULT:      -8.6      1.459      1.931
REMARK  Name = 
REMARK  7 active torsions:
REMARK  status: ('A' for Active; 'I' for Inactive)
REMARK    1  A    between atoms: C_1  and  N_2
REMARK    2  A    between atoms: C_6  and  C_7
REMARK    3  A    between atoms: C_7  and  C_8
REMARK    4  A    between atoms: C_8  and  C_11
REMARK    5  A    between atoms: C_15  and  N_16
REMARK    6  A    between atoms: C_23  and  C_24
REMARK    7  A    between atoms: C_24  and  C_25
REMARK                            x       y       z     vdW  Elec       q    Type
REMARK                         _______ _______ _______ _____ _____    ______ ____
ROOT
ATOM      1  C   UNL     1       1.249   8.711  19.875  0.00  0.00    +0.000 A 
ATOM      2  C   UNL     1       1.851   9.217  18.703  0.00  0.00    +0.000 A 
ATOM      3  C   UNL     1       2.548   8.395  17.820  0.00  0.00    +0.000 A 
ATOM      4  C   UNL     1       2.773   7.069  18.154  0.00  0.00    +0.000 A 
ATOM      5  C   UNL     1       2.439   6.625  19.445  0.00  0.00    +0.000 A 
ATOM      6  C   UNL     1       1.534   7.374  20.213  0.00  0.00    +0.000 A 
ENDROOT
BRANCH   5   7
ATOM      7  N   UNL     1       3.389   5.778  20.173  0.00  0.00    +0.000 N 
ATOM      8  C   UNL     1       4.550   5.464  19.299  0.00  0.00    +0.000 C 
ATOM      9  C   UNL     1       4.063   4.247  18.571  0.00  0.00    +0.000 A 
ATOM     10  C   UNL     1       3.185   3.584  19.430  0.00  0.00    +0.000 A 
ATOM     11  C   UNL     1       2.376   2.534  19.035  0.00  0.00    +0.000 A 
ATOM     12  C   UNL     1       2.440   2.155  17.696  0.00  0.00    +0.000 A 
ATOM     13  C   UNL     1       3.304   2.826  16.808  0.00  0.00    +0.000 A 
ATOM     14  C   UNL     1       4.138   3.882  17.227  0.00  0.00    +0.000 A 
ATOM     15  C   UNL     1       2.884   4.499  20.564  0.00  0.00    +0.000 C 
ATOM     16  O   UNL     1       2.169   4.228  21.503  0.00  0.00    +0.000 OA
BRANCH  14  17
ATOM     17  C   UNL     1       4.994   4.603  16.216  0.00  0.00    +0.000 C 
ATOM     18  C   UNL     1       6.466   4.453  16.556  0.00  0.00    +0.000 C 
ATOM     19  F   UNL     1       4.813   4.120  14.948  0.00  0.00    +0.000 F 
ATOM     20  F   UNL     1       4.727   5.937  16.118  0.00  0.00    +0.000 F 
ENDBRANCH  14  17
ENDBRANCH   5   7
BRANCH   1  21
ATOM     21  C   UNL     1       0.493   9.610  20.781  0.00  0.00    +0.000 C 
ATOM     22  C   UNL     1      -0.039   9.093  21.902  0.00  0.00    +0.000 C 
ATOM     23  F   UNL     1      -0.836   9.809  22.710  0.00  0.00    +0.000 F 
BRANCH  21  24
ATOM     24  C   UNL     1       0.202  11.051  20.389  0.00  0.00    +0.000 C 
BRANCH  24  30
ATOM     25  C   UNL     1      -1.433  10.278  17.777  0.00  0.00    +0.000 C 
ATOM     26  N   UNL     1      -1.857  11.117  18.863  0.00  0.00    +0.000 N 
ATOM     27  C   UNL     1      -3.027  11.820  18.885  0.00  0.00    +0.000 A 
ATOM     28  N   UNL     1      -3.116  12.485  20.010  0.00  0.00    +0.000 NA
ATOM     29  N   UNL     1      -1.966  12.250  20.722  0.00  0.00    +0.000 NA
ATOM     30  C   UNL     1      -1.199  11.431  20.029  0.00  0.00    +0.000 A 
ENDBRANCH  24  30
ENDBRANCH  21  24
ENDBRANCH   1  21
TORSDOF 5
ENDMDL
MODEL 3
REMARK VINA RESULT:      -8.5      1.701      2.269
REMARK  Name = 
REMARK  7 active torsions:
REMARK  status: ('A' for Active; 'I' for Inactive)
REMARK    1  A    between atoms: C_1  and  N_2
REMARK    2  A    between atoms: C_6  and  C_7
REMARK    3  A    between atoms: C_7  and  C_8
REMARK    4  A    between atoms: C_8  and  C_11
REMARK    5  A    between atoms: C_15  and  N_16
REMARK    6  A    between atoms: C_23  and  C_24
REMARK    7  A    between atoms: C_24  and  C_25
REMARK                            x       y       z     vdW  Elec       q    Type
REMARK                         _______ _______ _______ _____ _____    ______ ____
ROOT
ATOM      1  C   UNL     1       1.283   8.819  19.680  0.00  0.00    +0.000 A 
ATOM      2  C   UNL     1       1.922   9.298  18.516  0.00  0.00    +0.000 A 
ATOM      3  C   UNL     1       2.636   8.452  17.668  0.00  0.00    +0.000 A 
ATOM      4  C   UNL     1       2.840   7.131  18.034  0.00  0.00    +0.000 A 
ATOM      5  C   UNL     1       2.466   6.715  19.322  0.00  0.00    +0.000 A 
ATOM      6  C   UNL     1       1.547   7.486  20.050  0.00  0.00    +0.000 A 
ENDROOT
BRANCH   5   7
ATOM      7  N   UNL     1       3.388   5.873  20.092  0.00  0.00    +0.000 N 
ATOM      8  C   UNL     1       4.566   5.528  19.255  0.00  0.00    +0.000 C 
ATOM      9  C   UNL     1       4.083   4.300  18.542  0.00  0.00    +0.000 A 
ATOM     10  C   UNL     1       3.177   3.667  19.392  0.00  0.00    +0.000 A 
ATOM     11  C   UNL     1       2.366   2.617  19.000  0.00  0.00    +0.000 A 
ATOM     12  C   UNL     1       2.459   2.207  17.672  0.00  0.00    +0.000 A 
ATOM     13  C   UNL     1       3.352   2.849  16.792  0.00  0.00    +0.000 A 
ATOM     14  C   UNL     1       4.187   3.905  17.208  0.00  0.00    +0.000 A 
ATOM     15  C   UNL     1       2.859   4.610  20.498  0.00  0.00    +0.000 C 
ATOM     16  O   UNL     1       2.118   4.367  21.425  0.00  0.00    +0.000 OA
BRANCH  14  17
ATOM     17  C   UNL     1       5.077   4.594  16.203  0.00  0.00    +0.000 C 
ATOM     18  C   UNL     1       6.539   4.409  16.567  0.00  0.00    +0.000 C 
ATOM     19  F   UNL     1       4.902   4.103  14.938  0.00  0.00    +0.000 F 
ATOM     20  F   UNL     1       4.846   5.934  16.088  0.00  0.00    +0.000 F 
ENDBRANCH  14  17
ENDBRANCH   5   7
BRANCH   1  21
ATOM     21  C   UNL     1       0.511   9.740  20.548  0.00  0.00    +0.000 C 
ATOM     22  C   UNL     1       0.077   9.291  21.738  0.00  0.00    +0.000 C 
ATOM     23  F   UNL     1      -0.729  10.020  22.525  0.00  0.00    +0.000 F 
BRANCH  21  24
ATOM     24  C   UNL     1       0.095  11.117  20.051  0.00  0.00    +0.000 C 
BRANCH  24  30
ATOM     25  C   UNL     1      -2.422  12.963  20.642  0.00  0.00    +0.000 C 
ATOM     26  N   UNL     1      -2.255  12.022  19.571  0.00  0.00    +0.000 N 
ATOM     27  C   UNL     1      -3.231  11.690  18.675  0.00  0.00    +0.000 A 
ATOM     28  N   UNL     1      -2.764  10.807  17.827  0.00  0.00    +0.000 NA
ATOM     29  N   UNL     1      -1.473  10.521  18.197  0.00  0.00    +0.000 NA
ATOM     30  C   UNL     1      -1.165  11.246  19.255  0.00  0.00    +0.000 A 
ENDBRANCH  24  30
ENDBRANCH  21  24
ENDBRANCH   1  21
TORSDOF 5
ENDMDL
MODEL 4
REMARK VINA RESULT:      -8.5      1.036      1.322
REMARK  Name = 
REMARK  7 active torsions:
REMARK  status: ('A' for Active; 'I' for Inactive)
REMARK    1  A    between atoms: C_1  and  N_2
REMARK    2  A    between atoms: C_6  and  C_7
REMARK    3  A    between atoms: C_7  and  C_8
REMARK    4  A    between atoms: C_8  and  C_11
REMARK    5  A    between atoms: C_15  and  N_16
REMARK    6  A    between atoms: C_23  and  C_24
REMARK    7  A    between atoms: C_24  and  C_25
REMARK                            x       y       z     vdW  Elec       q    Type
REMARK                         _______ _______ _______ _____ _____    ______ ____
ROOT
ATOM      1  C   UNL     1       1.278   8.647  19.906  0.00  0.00    +0.000 A 
ATOM      2  C   UNL     1       1.865   9.166  18.732  0.00  0.00    +0.000 A 
ATOM      3  C   UNL     1       2.558   8.355  17.835  0.00  0.00    +0.000 A 
ATOM      4  C   UNL     1       2.795   7.028  18.157  0.00  0.00    +0.000 A 
ATOM      5  C   UNL     1       2.478   6.572  19.447  0.00  0.00    +0.000 A 
ATOM      6  C   UNL     1       1.576   7.309  20.230  0.00  0.00    +0.000 A 
ENDROOT
BRANCH   5   7
ATOM      7  N   UNL     1       3.440   5.724  20.158  0.00  0.00    +0.000 N 
ATOM      8  C   UNL     1       4.598   5.433  19.272  0.00  0.00    +0.000 C 
ATOM      9  C   UNL     1       4.117   4.219  18.533  0.00  0.00    +0.000 A 
ATOM     10  C   UNL     1       3.251   3.539  19.389  0.00  0.00    +0.000 A 
ATOM     11  C   UNL     1       2.449   2.486  18.987  0.00  0.00    +0.000 A 
ATOM     12  C   UNL     1       2.508   2.123  17.644  0.00  0.00    +0.000 A 
ATOM     13  C   UNL     1       3.359   2.813  16.758  0.00  0.00    +0.000 A 
ATOM     14  C   UNL     1       4.186   3.871  17.185  0.00  0.00    +0.000 A 
ATOM     15  C   UNL     1       2.950   4.437  20.537  0.00  0.00    +0.000 C 
ATOM     16  O   UNL     1       2.244   4.147  21.477  0.00  0.00    +0.000 OA
BRANCH  14  17
ATOM     17  C   UNL     1       5.029   4.613  16.176  0.00  0.00    +0.000 C 
ATOM     18  C   UNL     1       6.506   4.436  16.479  0.00  0.00    +0.000 C 
ATOM     19  F   UNL     1       4.814   4.169  14.899  0.00  0.00    +0.000 F 
ATOM     20  F   UNL     1       4.775   5.952  16.123  0.00  0.00    +0.000 F 
ENDBRANCH  14  17
ENDBRANCH   5   7
BRANCH   1  21
ATOM     21  C   UNL     1       0.526   9.532  20.828  0.00  0.00    +0.000 C 
ATOM     22  C   UNL     1       0.813   9.488  22.140  0.00  0.00    +0.000 C 
ATOM     23  F   UNL     1       0.097  10.165  23.051  0.00  0.00    +0.000 F 
BRANCH  21  24
ATOM     24  C   UNL     1      -0.640  10.371  20.326  0.00  0.00    +0.000 C 
BRANCH  24  30
ATOM     25  C   UNL     1      -1.920  11.771  17.778  0.00  0.00    +0.000 C 
ATOM     26  N   UNL     1      -0.904  12.292  18.649  0.00  0.00    +0.000 N 
ATOM     27  C   UNL     1      -0.236  13.465  18.443  0.00  0.00    +0.000 A 
ATOM     28  N   UNL     1       0.623  13.655  19.412  0.00  0.00    +0.000 NA
ATOM     29  N   UNL     1       0.550  12.569  20.249  0.00  0.00    +0.000 NA
ATOM     30  C   UNL     1      -0.365  11.739  19.787  0.00  0.00    +0.000 A 
ENDBRANCH  24  30
ENDBRANCH  21  24
ENDBRANCH   1  21
TORSDOF 5
ENDMDL
MODEL 5
REMARK VINA RESULT:      -8.5      0.755      1.078
REMARK  Name = 
REMARK  7 active torsions:
REMARK  status: ('A' for Active; 'I' for Inactive)
REMARK    1  A    between atoms: C_1  and  N_2
REMARK    2  A    between atoms: C_6  and  C_7
REMARK    3  A    between atoms: C_7  and  C_8
REMARK    4  A    between atoms: C_8  and  C_11
REMARK    5  A    between atoms: C_15  and  N_16
REMARK    6  A    between atoms: C_23  and  C_24
REMARK    7  A    between atoms: C_24  and  C_25
REMARK                            x       y       z     vdW  Elec       q    Type
REMARK                         _______ _______ _______ _____ _____    ______ ____
ROOT
ATOM      1  C   UNL     1       1.183   8.679  19.874  0.00  0.00    +0.000 A 
ATOM      2  C   UNL     1       1.796   9.241  18.733  0.00  0.00    +0.000 A 
ATOM      3  C   UNL     1       2.544   8.470  17.845  0.00  0.00    +0.000 A 
ATOM      4  C   UNL     1       2.809   7.144  18.148  0.00  0.00    +0.000 A 
ATOM      5  C   UNL     1       2.459   6.650  19.415  0.00  0.00    +0.000 A 
ATOM      6  C   UNL     1       1.508   7.344  20.181  0.00  0.00    +0.000 A 
ENDROOT
BRANCH   5   7
ATOM      7  N   UNL     1       3.420   5.816  20.143  0.00  0.00    +0.000 N 
ATOM      8  C   UNL     1       4.575   5.500  19.262  0.00  0.00    +0.000 C 
ATOM      9  C   UNL     1       4.087   4.272  18.552  0.00  0.00    +0.000 A 
ATOM     10  C   UNL     1       3.222   3.614  19.425  0.00  0.00    +0.000 A 
ATOM     11  C   UNL     1       2.415   2.555  19.049  0.00  0.00    +0.000 A 
ATOM     12  C   UNL     1       2.468   2.162  17.714  0.00  0.00    +0.000 A 
ATOM     13  C   UNL     1       3.320   2.829  16.811  0.00  0.00    +0.000 A 
ATOM     14  C   UNL     1       4.152   3.893  17.211  0.00  0.00    +0.000 A 
ATOM     15  C   UNL     1       2.926   4.539  20.553  0.00  0.00    +0.000 C 
ATOM     16  O   UNL     1       2.222   4.274  21.501  0.00  0.00    +0.000 OA
BRANCH  14  17
ATOM     17  C   UNL     1       4.994   4.608  16.184  0.00  0.00    +0.000 C 
ATOM     18  C   UNL     1       6.472   4.442  16.493  0.00  0.00    +0.000 C 
ATOM     19  F   UNL     1       4.782   4.131  14.919  0.00  0.00    +0.000 F 
ATOM     20  F   UNL     1       4.739   5.946  16.095  0.00  0.00    +0.000 F 
ENDBRANCH  14  17
ENDBRANCH   5   7
BRANCH   1  21
ATOM     21  C   UNL     1       0.373   9.523  20.786  0.00  0.00    +0.000 C 
ATOM     22  C   UNL     1       0.049   9.035  21.996  0.00  0.00    +0.000 C 
ATOM     23  F   UNL     1      -0.781   9.683  22.828  0.00  0.00    +0.000 F 
BRANCH  21  24
ATOM     24  C   UNL     1      -0.200  10.852  20.318  0.00  0.00    +0.000 C 
BRANCH  24  30
ATOM     25  C   UNL     1      -1.767  13.525  21.019  0.00  0.00    +0.000 C 
ATOM     26  N   UNL     1      -0.358  13.274  21.144  0.00  0.00    +0.000 N 
ATOM     27  C   UNL     1       0.566  14.214  21.496  0.00  0.00    +0.000 A 
ATOM     28  N   UNL     1       1.757  13.670  21.520  0.00  0.00    +0.000 NA
ATOM     29  N   UNL     1       1.619  12.359  21.137  0.00  0.00    +0.000 NA
ATOM     30  C   UNL     1       0.345  12.117  20.900  0.00  0.00    +0.000 A 
ENDBRANCH  24  30
ENDBRANCH  21  24
ENDBRANCH   1  21
TORSDOF 5
ENDMDL
MODEL 6
REMARK VINA RESULT:      -8.4      1.122      1.353
REMARK  Name = 
REMARK  7 active torsions:
REMARK  status: ('A' for Active; 'I' for Inactive)
REMARK    1  A    between atoms: C_1  and  N_2
REMARK    2  A    between atoms: C_6  and  C_7
REMARK    3  A    between atoms: C_7  and  C_8
REMARK    4  A    between atoms: C_8  and  C_11
REMARK    5  A    between atoms: C_15  and  N_16
REMARK    6  A    between atoms: C_23  and  C_24
REMARK    7  A    between atoms: C_24  and  C_25
REMARK                            x       y       z     vdW  Elec       q    Type
REMARK                         _______ _______ _______ _____ _____    ______ ____
ROOT
ATOM      1  C   UNL     1       1.298   8.558  20.105  0.00  0.00    +0.000 A 
ATOM      2  C   UNL     1       1.859   9.068  18.914  0.00  0.00    +0.000 A 
ATOM      3  C   UNL     1       2.501   8.244  17.992  0.00  0.00    +0.000 A 
ATOM      4  C   UNL     1       2.715   6.909  18.300  0.00  0.00    +0.000 A 
ATOM      5  C   UNL     1       2.428   6.455  19.598  0.00  0.00    +0.000 A 
ATOM      6  C   UNL     1       1.572   7.211  20.414  0.00  0.00    +0.000 A 
ENDROOT
BRANCH   5   7
ATOM      7  N   UNL     1       3.391   5.581  20.274  0.00  0.00    +0.000 N 
ATOM      8  C   UNL     1       4.541   5.312  19.371  0.00  0.00    +0.000 C 
ATOM      9  C   UNL     1       4.049   4.126  18.596  0.00  0.00    +0.000 A 
ATOM     10  C   UNL     1       3.186   3.422  19.436  0.00  0.00    +0.000 A 
ATOM     11  C   UNL     1       2.376   2.387  19.006  0.00  0.00    +0.000 A 
ATOM     12  C   UNL     1       2.422   2.068  17.651  0.00  0.00    +0.000 A 
ATOM     13  C   UNL     1       3.270   2.783  16.782  0.00  0.00    +0.000 A 
ATOM     14  C   UNL     1       4.106   3.822  17.236  0.00  0.00    +0.000 A 
ATOM     15  C   UNL     1       2.898   4.284  20.614  0.00  0.00    +0.000 C 
ATOM     16  O   UNL     1       2.198   3.967  21.550  0.00  0.00    +0.000 OA
BRANCH  14  17
ATOM     17  C   UNL     1       4.945   4.592  16.246  0.00  0.00    +0.000 C 
ATOM     18  C   UNL     1       6.422   4.426  16.552  0.00  0.00    +0.000 C 
ATOM     19  F   UNL     1       4.741   4.172  14.960  0.00  0.00    +0.000 F 
ATOM     20  F   UNL     1       4.677   5.930  16.218  0.00  0.00    +0.000 F 
ENDBRANCH  14  17
ENDBRANCH   5   7
BRANCH   1  21
ATOM     21  C   UNL     1       0.600   9.458  21.055  0.00  0.00    +0.000 C 
ATOM     22  C   UNL     1      -0.229   8.916  21.963  0.00  0.00    +0.000 C 
ATOM     23  F   UNL     1      -0.989   9.668  22.774  0.00  0.00    +0.000 F 
BRANCH  21  24
ATOM     24  C   UNL     1       0.705  10.970  20.919  0.00  0.00    +0.000 C 
BRANCH  24  30
ATOM     25  C   UNL     1       1.778  12.949  18.677  0.00  0.00    +0.000 C 
ATOM     26  N   UNL     1       0.421  12.544  18.915  0.00  0.00    +0.000 N 
ATOM     27  C   UNL     1      -0.663  13.049  18.257  0.00  0.00    +0.000 A 
ATOM     28  N   UNL     1      -1.753  12.475  18.703  0.00  0.00    +0.000 NA
ATOM     29  N   UNL     1      -1.384  11.608  19.701  0.00  0.00    +0.000 NA
ATOM     30  C   UNL     1      -0.073  11.653  19.839  0.00  0.00    +0.000 A 
ENDBRANCH  24  30
ENDBRANCH  21  24
ENDBRANCH   1  21
TORSDOF 5
ENDMDL
MODEL 7
REMARK VINA RESULT:      -8.3      2.845      8.009
REMARK  Name = 
REMARK  7 active torsions:
REMARK  status: ('A' for Active; 'I' for Inactive)
REMARK    1  A    between atoms: C_1  and  N_2
REMARK    2  A    between atoms: C_6  and  C_7
REMARK    3  A    between atoms: C_7  and  C_8
REMARK    4  A    between atoms: C_8  and  C_11
REMARK    5  A    between atoms: C_15  and  N_16
REMARK    6  A    between atoms: C_23  and  C_24
REMARK    7  A    between atoms: C_24  and  C_25
REMARK                            x       y       z     vdW  Elec       q    Type
REMARK                         _______ _______ _______ _____ _____    ______ ____
ROOT
ATOM      1  C   UNL     1       2.373   7.461  18.655  0.00  0.00    +0.000 A 
ATOM      2  C   UNL     1       2.294   8.432  17.633  0.00  0.00    +0.000 A 
ATOM      3  C   UNL     1       1.945   9.755  17.900  0.00  0.00    +0.000 A 
ATOM      4  C   UNL     1       1.538  10.110  19.177  0.00  0.00    +0.000 A 
ATOM      5  C   UNL     1       1.328   9.100  20.131  0.00  0.00    +0.000 A 
ATOM      6  C   UNL     1       1.909   7.838  19.930  0.00  0.00    +0.000 A 
ENDROOT
BRANCH   5   7
ATOM      7  N   UNL     1       0.128   9.155  20.972  0.00  0.00    +0.000 N 
ATOM      8  C   UNL     1      -1.082   8.983  20.126  0.00  0.00    +0.000 C 
ATOM      9  C   UNL     1      -1.354  10.393  19.694  0.00  0.00    +0.000 A 
ATOM     10  C   UNL     1      -0.895  11.227  20.713  0.00  0.00    +0.000 A 
ATOM     11  C   UNL     1      -0.783  12.599  20.587  0.00  0.00    +0.000 A 
ATOM     12  C   UNL     1      -1.127  13.152  19.355  0.00  0.00    +0.000 A 
ATOM     13  C   UNL     1      -1.572  12.324  18.305  0.00  0.00    +0.000 A 
ATOM     14  C   UNL     1      -1.701  10.928  18.453  0.00  0.00    +0.000 A 
ATOM     15  C   UNL     1      -0.083  10.397  21.645  0.00  0.00    +0.000 C 
ATOM     16  O   UNL     1       0.447  10.806  22.655  0.00  0.00    +0.000 OA
BRANCH  14  17
ATOM     17  C   UNL     1      -2.121  10.088  17.273  0.00  0.00    +0.000 C 
ATOM     18  C   UNL     1      -2.560  10.970  16.117  0.00  0.00    +0.000 C 
ATOM     19  F   UNL     1      -1.106   9.290  16.820  0.00  0.00    +0.000 F 
ATOM     20  F   UNL     1      -3.143   9.226  17.545  0.00  0.00    +0.000 F 
ENDBRANCH  14  17
ENDBRANCH   5   7
BRANCH   1  21
ATOM     21  C   UNL     1       2.771   6.068  18.340  0.00  0.00    +0.000 C 
ATOM     22  C   UNL     1       3.879   5.865  17.608  0.00  0.00    +0.000 C 
ATOM     23  F   UNL     1       4.239   4.646  17.179  0.00  0.00    +0.000 F 
BRANCH  21  24
ATOM     24  C   UNL     1       1.875   4.896  18.714  0.00  0.00    +0.000 C 
BRANCH  24  30
ATOM     25  C   UNL     1       3.180   2.004  18.871  0.00  0.00    +0.000 C 
ATOM     26  N   UNL     1       2.727   2.823  19.960  0.00  0.00    +0.000 N 
ATOM     27  C   UNL     1       2.689   2.423  21.264  0.00  0.00    +0.000 A 
ATOM     28  N   UNL     1       2.226   3.397  22.007  0.00  0.00    +0.000 NA
ATOM     29  N   UNL     1       1.914   4.441  21.172  0.00  0.00    +0.000 NA
ATOM     30  C   UNL     1       2.206   4.096  19.934  0.00  0.00    +0.000 A 
ENDBRANCH  24  30
ENDBRANCH  21  24
ENDBRANCH   1  21
TORSDOF 5
ENDMDL
MODEL 8
REMARK VINA RESULT:      -8.2      3.352      4.518
REMARK  Name = 
REMARK  7 active torsions:
REMARK  status: ('A' for Active; 'I' for Inactive)
REMARK    1  A    between atoms: C_1  and  N_2
REMARK    2  A    between atoms: C_6  and  C_7
REMARK    3  A    between atoms: C_7  and  C_8
REMARK    4  A    between atoms: C_8  and  C_11
REMARK    5  A    between atoms: C_15  and  N_16
REMARK    6  A    between atoms: C_23  and  C_24
REMARK    7  A    between atoms: C_24  and  C_25
REMARK                            x       y       z     vdW  Elec       q    Type
REMARK                         _______ _______ _______ _____ _____    ______ ____
ROOT
ATOM      1  C   UNL     1       1.241   9.163  19.400  0.00  0.00    +0.000 A 
ATOM      2  C   UNL     1       0.995   8.437  20.585  0.00  0.00    +0.000 A 
ATOM      3  C   UNL     1       1.693   7.269  20.890  0.00  0.00    +0.000 A 
ATOM      4  C   UNL     1       2.561   6.728  19.955  0.00  0.00    +0.000 A 
ATOM      5  C   UNL     1       2.596   7.273  18.661  0.00  0.00    +0.000 A 
ATOM      6  C   UNL     1       2.091   8.566  18.450  0.00  0.00    +0.000 A 
ENDROOT
BRANCH   5   7
ATOM      7  N   UNL     1       2.612   6.368  17.509  0.00  0.00    +0.000 N 
ATOM      8  C   UNL     1       1.724   5.205  17.775  0.00  0.00    +0.000 C 
ATOM      9  C   UNL     1       2.654   4.270  18.488  0.00  0.00    +0.000 A 
ATOM     10  C   UNL     1       3.936   4.522  18.002  0.00  0.00    +0.000 A 
ATOM     11  C   UNL     1       5.085   4.002  18.570  0.00  0.00    +0.000 A 
ATOM     12  C   UNL     1       4.928   3.209  19.704  0.00  0.00    +0.000 A 
ATOM     13  C   UNL     1       3.642   2.961  20.224  0.00  0.00    +0.000 A 
ATOM     14  C   UNL     1       2.477   3.481  19.625  0.00  0.00    +0.000 A 
ATOM     15  C   UNL     1       3.882   5.783  17.214  0.00  0.00    +0.000 C 
ATOM     16  O   UNL     1       4.822   6.279  16.633  0.00  0.00    +0.000 OA
BRANCH  14  17
ATOM     17  C   UNL     1       1.134   3.232  20.266  0.00  0.00    +0.000 C 
ATOM     18  C   UNL     1       1.301   2.554  21.614  0.00  0.00    +0.000 C 
ATOM     19  F   UNL     1       0.438   4.393  20.471  0.00  0.00    +0.000 F 
ATOM     20  F   UNL     1       0.299   2.458  19.514  0.00  0.00    +0.000 F 
ENDBRANCH  14  17
ENDBRANCH   5   7
BRANCH   1  21
ATOM     21  C   UNL     1       0.498  10.415  19.117  0.00  0.00    +0.000 C 
ATOM     22  C   UNL     1       1.195  11.519  18.799  0.00  0.00    +0.000 C 
ATOM     23  F   UNL     1       0.607  12.716  18.649  0.00  0.00    +0.000 F 
BRANCH  21  24
ATOM     24  C   UNL     1      -1.009  10.491  19.315  0.00  0.00    +0.000 C 
BRANCH  24  30
ATOM     25  C   UNL     1      -3.756  12.044  18.947  0.00  0.00    +0.000 C 
ATOM     26  N   UNL     1      -3.104  11.177  18.006  0.00  0.00    +0.000 N 
ATOM     27  C   UNL     1      -3.639  10.792  16.811  0.00  0.00    +0.000 A 
ATOM     28  N   UNL     1      -2.798  10.003  16.189  0.00  0.00    +0.000 NA
ATOM     29  N   UNL     1      -1.710   9.832  17.008  0.00  0.00    +0.000 NA
ATOM     30  C   UNL     1      -1.894  10.532  18.111  0.00  0.00    +0.000 A 
ENDBRANCH  24  30
ENDBRANCH  21  24
ENDBRANCH   1  21
TORSDOF 5
ENDMDL
MODEL 9
REMARK VINA RESULT:      -8.2      2.765      7.703
REMARK  Name = 
REMARK  7 active torsions:
REMARK  status: ('A' for Active; 'I' for Inactive)
REMARK    1  A    between atoms: C_1  and  N_2
REMARK    2  A    between atoms: C_6  and  C_7
REMARK    3  A    between atoms: C_7  and  C_8
REMARK    4  A    between atoms: C_8  and  C_11
REMARK    5  A    between atoms: C_15  and  N_16
REMARK    6  A    between atoms: C_23  and  C_24
REMARK    7  A    between atoms: C_24  and  C_25
REMARK                            x       y       z     vdW  Elec       q    Type
REMARK                         _______ _______ _______ _____ _____    ______ ____
ROOT
ATOM      1  C   UNL     1       2.371   5.919  18.892  0.00  0.00    +0.000 A 
ATOM      2  C   UNL     1       2.184   6.719  17.744  0.00  0.00    +0.000 A 
ATOM      3  C   UNL     1       2.040   8.103  17.827  0.00  0.00    +0.000 A 
ATOM      4  C   UNL     1       1.947   8.707  19.071  0.00  0.00    +0.000 A 
ATOM      5  C   UNL     1       1.834   7.899  20.214  0.00  0.00    +0.000 A 
ATOM      6  C   UNL     1       2.224   6.552  20.141  0.00  0.00    +0.000 A 
ENDROOT
BRANCH   5   7
ATOM      7  N   UNL     1       0.848   8.252  21.240  0.00  0.00    +0.000 N 
ATOM      8  C   UNL     1      -0.455   8.560  20.595  0.00  0.00    +0.000 C 
ATOM      9  C   UNL     1      -0.301  10.018  20.279  0.00  0.00    +0.000 A 
ATOM     10  C   UNL     1       0.544  10.557  21.250  0.00  0.00    +0.000 A 
ATOM     11  C   UNL     1       1.086  11.827  21.172  0.00  0.00    +0.000 A 
ATOM     12  C   UNL     1       0.778  12.578  20.041  0.00  0.00    +0.000 A 
ATOM     13  C   UNL     1      -0.055  12.043  19.038  0.00  0.00    +0.000 A 
ATOM     14  C   UNL     1      -0.617  10.755  19.138  0.00  0.00    +0.000 A 
ATOM     15  C   UNL     1       1.154   9.424  21.998  0.00  0.00    +0.000 C 
ATOM     16  O   UNL     1       1.923   9.541  22.926  0.00  0.00    +0.000 OA
BRANCH  14  17
ATOM     17  C   UNL     1      -1.450  10.214  18.003  0.00  0.00    +0.000 C 
ATOM     18  C   UNL     1      -2.051  11.348  17.191  0.00  0.00    +0.000 C 
ATOM     19  F   UNL     1      -0.715   9.440  17.147  0.00  0.00    +0.000 F 
ATOM     20  F   UNL     1      -2.474   9.407  18.405  0.00  0.00    +0.000 F 
ENDBRANCH  14  17
ENDBRANCH   5   7
BRANCH   1  21
ATOM     21  C   UNL     1       2.545   4.452  18.767  0.00  0.00    +0.000 C 
ATOM     22  C   UNL     1       1.497   3.711  18.369  0.00  0.00    +0.000 C 
ATOM     23  F   UNL     1       1.537   2.370  18.349  0.00  0.00    +0.000 F 
BRANCH  21  24
ATOM     24  C   UNL     1       3.835   3.778  19.210  0.00  0.00    +0.000 C 
BRANCH  24  30
ATOM     25  C   UNL     1       5.229   3.952  16.361  0.00  0.00    +0.000 C 
ATOM     26  N   UNL     1       5.736   4.428  17.617  0.00  0.00    +0.000 N 
ATOM     27  C   UNL     1       6.984   4.950  17.799  0.00  0.00    +0.000 A 
ATOM     28  N   UNL     1       7.138   5.289  19.055  0.00  0.00    +0.000 NA
ATOM     29  N   UNL     1       5.987   4.945  19.720  0.00  0.00    +0.000 NA
ATOM     30  C   UNL     1       5.141   4.416  18.857  0.00  0.00    +0.000 A 
ENDBRANCH  24  30
ENDBRANCH  21  24
ENDBRANCH   1  21
TORSDOF 5
ENDMDL
