MODEL 1
REMARK VINA RESULT:      -8.8      0.000      0.000
REMARK  Name = 
REMARK  6 active torsions:
REMARK  status: ('A' for Active; 'I' for Inactive)
REMARK    1  A    between atoms: C_1  and  C_2
REMARK    2  A    between atoms: C_4  and  N_5
REMARK    3  A    between atoms: C_6  and  C_8
REMARK    4  A    between atoms: C_13  and  C_14
REMARK    5  A    between atoms: C_17  and  C_18
REMARK    6  A    between atoms: N_25  and  C_26
REMARK                            x       y       z     vdW  Elec       q    Type
REMARK                         _______ _______ _______ _____ _____    ______ ____
ROOT
ATOM      1  C   UNL     1      -0.450  10.532  20.670  0.00  0.00    +0.000 A 
ATOM      2  C   UNL     1      -1.047  10.995  21.856  0.00  0.00    +0.000 A 
ATOM      3  C   UNL     1      -0.647  10.475  23.086  0.00  0.00    +0.000 A 
ATOM      4  C   UNL     1       0.320   9.475  23.136  0.00  0.00    +0.000 A 
ATOM      5  C   UNL     1       0.936   9.036  21.962  0.00  0.00    +0.000 A 
ATOM      6  C   UNL     1       0.591   9.582  20.716  0.00  0.00    +0.000 A 
ENDROOT
BRANCH   6   7
ATOM      7  C   UNL     1       1.354   9.159  19.541  0.00  0.00    +0.000 A 
ATOM      8  N   UNL     1       1.671   9.849  18.464  0.00  0.00    +0.000 NA
ATOM      9  C   UNL     1       2.316   8.935  17.667  0.00  0.00    +0.000 A 
ATOM     10  C   UNL     1       2.344   7.700  18.278  0.00  0.00    +0.000 A 
ATOM     11  O   UNL     1       1.694   7.832  19.479  0.00  0.00    +0.000 OA
BRANCH  10  12
ATOM     12  C   UNL     1       2.871   6.387  17.942  0.00  0.00    +0.000 A 
ATOM     13  C   UNL     1       2.097   5.230  18.111  0.00  0.00    +0.000 A 
ATOM     14  C   UNL     1       2.625   3.966  17.827  0.00  0.00    +0.000 A 
ATOM     15  C   UNL     1       3.932   3.845  17.361  0.00  0.00    +0.000 A 
ATOM     16  C   UNL     1       4.711   4.985  17.178  0.00  0.00    +0.000 A 
ATOM     17  C   UNL     1       4.184   6.248  17.469  0.00  0.00    +0.000 A 
ENDBRANCH  10  12
ENDBRANCH   6   7
BRANCH   1  19
ATOM     18  N   UNL     1      -1.974   9.978  18.773  0.00  0.00    +0.000 N 
ATOM     19  C   UNL     1      -1.058  10.911  19.378  0.00  0.00    +0.000 C 
ATOM     20  O   UNL     1      -0.732  11.941  18.810  0.00  0.00    +0.000 OA
ATOM     21  H   UNL     1      -2.182   9.114  19.251  0.00  0.00    +0.000 HD
BRANCH  18  25
ATOM     22  C   UNL     1      -3.268  10.156  13.942  0.00  0.00    +0.000 C 
ATOM     23  C   UNL     1      -3.208  10.330  15.414  0.00  0.00    +0.000 A 
ATOM     24  C   UNL     1      -2.277   9.763  16.308  0.00  0.00    +0.000 A 
ATOM     25  C   UNL     1      -2.615  10.233  17.558  0.00  0.00    +0.000 A 
ATOM     26  N   UNL     1      -3.720  11.026  17.347  0.00  0.00    +0.000 N 
ATOM     27  C   UNL     1      -4.513  11.740  18.317  0.00  0.00    +0.000 C 
ATOM     28  N   UNL     1      -4.091  11.103  16.054  0.00  0.00    +0.000 NA
ENDBRANCH  18  25
ENDBRANCH   1  19
TORSDOF 4
ENDMDL
MODEL 2
REMARK VINA RESULT:      -8.5      3.727      8.273
REMARK  Name = 
REMARK  6 active torsions:
REMARK  status: ('A' for Active; 'I' for Inactive)
REMARK    1  A    between atoms: C_1  and  C_2
REMARK    2  A    between atoms: C_4  and  N_5
REMARK    3  A    between atoms: C_6  and  C_8
REMARK    4  A    between atoms: C_13  and  C_14
REMARK    5  A    between atoms: C_17  and  C_18
REMARK    6  A    between atoms: N_25  and  C_26
REMARK                            x       y       z     vdW  Elec       q    Type
REMARK                         _______ _______ _______ _____ _____    ______ ____
ROOT
ATOM      1  C   UNL     1       3.001   3.794  19.063  0.00  0.00    +0.000 A 
ATOM      2  C   UNL     1       2.952   2.525  19.669  0.00  0.00    +0.000 A 
ATOM      3  C   UNL     1       2.537   2.403  20.995  0.00  0.00    +0.000 A 
ATOM      4  C   UNL     1       2.204   3.539  21.726  0.00  0.00    +0.000 A 
ATOM      5  C   UNL     1       2.223   4.796  21.116  0.00  0.00    +0.000 A 
ATOM      6  C   UNL     1       2.583   4.940  19.768  0.00  0.00    +0.000 A 
ENDROOT
BRANCH   6   7
ATOM      7  C   UNL     1       2.471   6.268  19.161  0.00  0.00    +0.000 A 
ATOM      8  N   UNL     1       3.082   6.749  18.097  0.00  0.00    +0.000 NA
ATOM      9  C   UNL     1       2.662   8.056  18.041  0.00  0.00    +0.000 A 
ATOM     10  C   UNL     1       1.827   8.338  19.100  0.00  0.00    +0.000 A 
ATOM     11  O   UNL     1       1.726   7.192  19.847  0.00  0.00    +0.000 OA
BRANCH  10  12
ATOM     12  C   UNL     1       1.094   9.506  19.560  0.00  0.00    +0.000 A 
ATOM     13  C   UNL     1       1.060  10.686  18.803  0.00  0.00    +0.000 A 
ATOM     14  C   UNL     1       0.390  11.821  19.272  0.00  0.00    +0.000 A 
ATOM     15  C   UNL     1      -0.266  11.785  20.501  0.00  0.00    +0.000 A 
ATOM     16  C   UNL     1      -0.252  10.617  21.260  0.00  0.00    +0.000 A 
ATOM     17  C   UNL     1       0.425   9.486  20.793  0.00  0.00    +0.000 A 
ENDBRANCH  10  12
ENDBRANCH   6   7
BRANCH   1  19
ATOM     18  N   UNL     1       5.011   4.461  17.742  0.00  0.00    +0.000 N 
ATOM     19  C   UNL     1       3.673   3.926  17.754  0.00  0.00    +0.000 C 
ATOM     20  O   UNL     1       3.084   3.664  16.717  0.00  0.00    +0.000 OA
ATOM     21  H   UNL     1       5.447   4.710  18.617  0.00  0.00    +0.000 HD
BRANCH  18  25
ATOM     22  C   UNL     1       6.881   4.031  13.120  0.00  0.00    +0.000 C 
ATOM     23  C   UNL     1       6.598   4.447  14.515  0.00  0.00    +0.000 A 
ATOM     24  C   UNL     1       5.601   3.944  15.375  0.00  0.00    +0.000 A 
ATOM     25  C   UNL     1       5.746   4.623  16.566  0.00  0.00    +0.000 A 
ATOM     26  N   UNL     1       6.793   5.491  16.348  0.00  0.00    +0.000 N 
ATOM     27  C   UNL     1       7.349   6.472  17.246  0.00  0.00    +0.000 C 
ATOM     28  N   UNL     1       7.325   5.395  15.114  0.00  0.00    +0.000 NA
ENDBRANCH  18  25
ENDBRANCH   1  19
TORSDOF 4
ENDMDL
MODEL 3
REMARK VINA RESULT:      -8.3      3.796      8.182
REMARK  Name = 
REMARK  6 active torsions:
REMARK  status: ('A' for Active; 'I' for Inactive)
REMARK    1  A    between atoms: C_1  and  C_2
REMARK    2  A    between atoms: C_4  and  N_5
REMARK    3  A    between atoms: C_6  and  C_8
REMARK    4  A    between atoms: C_13  and  C_14
REMARK    5  A    between atoms: C_17  and  C_18
REMARK    6  A    between atoms: N_25  and  C_26
REMARK                            x       y       z     vdW  Elec       q    Type
REMARK                         _______ _______ _______ _____ _____    ______ ____
ROOT
ATOM      1  C   UNL     1       3.754   3.925  19.512  0.00  0.00    +0.000 A 
ATOM      2  C   UNL     1       3.748   2.669  20.145  0.00  0.00    +0.000 A 
ATOM      3  C   UNL     1       2.894   2.436  21.222  0.00  0.00    +0.000 A 
ATOM      4  C   UNL     1       2.072   3.458  21.690  0.00  0.00    +0.000 A 
ATOM      5  C   UNL     1       2.055   4.696  21.043  0.00  0.00    +0.000 A 
ATOM      6  C   UNL     1       2.864   4.938  19.922  0.00  0.00    +0.000 A 
ENDROOT
BRANCH   6   7
ATOM      7  C   UNL     1       2.714   6.216  19.225  0.00  0.00    +0.000 A 
ATOM      8  N   UNL     1       3.310   6.638  18.128  0.00  0.00    +0.000 NA
ATOM      9  C   UNL     1       2.852   7.925  17.981  0.00  0.00    +0.000 A 
ATOM     10  C   UNL     1       2.009   8.256  19.019  0.00  0.00    +0.000 A 
ATOM     11  O   UNL     1       1.941   7.163  19.844  0.00  0.00    +0.000 OA
BRANCH  10  12
ATOM     12  C   UNL     1       1.240   9.431  19.397  0.00  0.00    +0.000 A 
ATOM     13  C   UNL     1       0.481   9.453  20.577  0.00  0.00    +0.000 A 
ATOM     14  C   UNL     1      -0.291  10.569  20.912  0.00  0.00    +0.000 A 
ATOM     15  C   UNL     1      -0.305  11.684  20.077  0.00  0.00    +0.000 A 
ATOM     16  C   UNL     1       0.451  11.683  18.908  0.00  0.00    +0.000 A 
ATOM     17  C   UNL     1       1.218  10.563  18.569  0.00  0.00    +0.000 A 
ENDBRANCH  10  12
ENDBRANCH   6   7
BRANCH   1  19
ATOM     18  N   UNL     1       4.466   4.359  17.159  0.00  0.00    +0.000 N 
ATOM     19  C   UNL     1       4.831   4.224  18.546  0.00  0.00    +0.000 C 
ATOM     20  O   UNL     1       5.998   4.275  18.904  0.00  0.00    +0.000 OA
ATOM     21  H   UNL     1       3.497   4.262  16.895  0.00  0.00    +0.000 HD
BRANCH  18  25
ATOM     22  C   UNL     1       7.285   4.305  13.024  0.00  0.00    +0.000 C 
ATOM     23  C   UNL     1       6.668   4.643  14.330  0.00  0.00    +0.000 A 
ATOM     24  C   UNL     1       5.594   3.988  14.967  0.00  0.00    +0.000 A 
ATOM     25  C   UNL     1       5.398   4.649  16.160  0.00  0.00    +0.000 A 
ATOM     26  N   UNL     1       6.338   5.655  16.161  0.00  0.00    +0.000 N 
ATOM     27  C   UNL     1       6.558   6.678  17.152  0.00  0.00    +0.000 C 
ATOM     28  N   UNL     1       7.120   5.664  15.063  0.00  0.00    +0.000 NA
ENDBRANCH  18  25
ENDBRANCH   1  19
TORSDOF 4
ENDMDL
MODEL 4
REMARK VINA RESULT:      -8.3      3.851      8.364
REMARK  Name = 
REMARK  6 active torsions:
REMARK  status: ('A' for Active; 'I' for Inactive)
REMARK    1  A    between atoms: C_1  and  C_2
REMARK    2  A    between atoms: C_4  and  N_5
REMARK    3  A    between atoms: C_6  and  C_8
REMARK    4  A    between atoms: C_13  and  C_14
REMARK    5  A    between atoms: C_17  and  C_18
REMARK    6  A    between atoms: N_25  and  C_26
REMARK                            x       y       z     vdW  Elec       q    Type
REMARK                         _______ _______ _______ _____ _____    ______ ____
ROOT
ATOM      1  C   UNL     1       3.254   4.112  19.342  0.00  0.00    +0.000 A 
ATOM      2  C   UNL     1       3.274   2.706  19.374  0.00  0.00    +0.000 A 
ATOM      3  C   UNL     1       2.153   2.004  19.817  0.00  0.00    +0.000 A 
ATOM      4  C   UNL     1       1.029   2.697  20.256  0.00  0.00    +0.000 A 
ATOM      5  C   UNL     1       0.997   4.092  20.196  0.00  0.00    +0.000 A 
ATOM      6  C   UNL     1       2.090   4.820  19.704  0.00  0.00    +0.000 A 
ENDROOT
BRANCH   6   7
ATOM      7  C   UNL     1       1.947   6.270  19.562  0.00  0.00    +0.000 A 
ATOM      8  N   UNL     1       2.452   7.068  18.642  0.00  0.00    +0.000 NA
ATOM      9  C   UNL     1       2.061   8.321  19.047  0.00  0.00    +0.000 A 
ATOM     10  C   UNL     1       1.352   8.247  20.226  0.00  0.00    +0.000 A 
ATOM     11  O   UNL     1       1.303   6.923  20.581  0.00  0.00    +0.000 OA
BRANCH  10  12
ATOM     12  C   UNL     1       0.701   9.202  21.108  0.00  0.00    +0.000 A 
ATOM     13  C   UNL     1       0.231   8.819  22.373  0.00  0.00    +0.000 A 
ATOM     14  C   UNL     1      -0.434   9.731  23.198  0.00  0.00    +0.000 A 
ATOM     15  C   UNL     1      -0.628  11.043  22.772  0.00  0.00    +0.000 A 
ATOM     16  C   UNL     1      -0.159  11.443  21.523  0.00  0.00    +0.000 A 
ATOM     17  C   UNL     1       0.500  10.528  20.696  0.00  0.00    +0.000 A 
ENDBRANCH  10  12
ENDBRANCH   6   7
BRANCH   1  19
ATOM     18  N   UNL     1       4.711   5.459  17.828  0.00  0.00    +0.000 N 
ATOM     19  C   UNL     1       4.524   4.831  19.111  0.00  0.00    +0.000 C 
ATOM     20  O   UNL     1       5.411   4.822  19.950  0.00  0.00    +0.000 OA
ATOM     21  H   UNL     1       3.973   5.403  17.142  0.00  0.00    +0.000 HD
BRANCH  18  25
ATOM     22  C   UNL     1       8.311   8.916  17.472  0.00  0.00    +0.000 C 
ATOM     23  C   UNL     1       7.479   7.698  17.322  0.00  0.00    +0.000 A 
ATOM     24  C   UNL     1       6.271   7.397  17.985  0.00  0.00    +0.000 A 
ATOM     25  C   UNL     1       5.866   6.172  17.500  0.00  0.00    +0.000 A 
ATOM     26  N   UNL     1       6.846   5.808  16.604  0.00  0.00    +0.000 N 
ATOM     27  C   UNL     1       6.953   4.596  15.831  0.00  0.00    +0.000 C 
ATOM     28  N   UNL     1       7.828   6.723  16.478  0.00  0.00    +0.000 NA
ENDBRANCH  18  25
ENDBRANCH   1  19
TORSDOF 4
ENDMDL
MODEL 5
REMARK VINA RESULT:      -8.2      3.519      6.209
REMARK  Name = 
REMARK  6 active torsions:
REMARK  status: ('A' for Active; 'I' for Inactive)
REMARK    1  A    between atoms: C_1  and  C_2
REMARK    2  A    between atoms: C_4  and  N_5
REMARK    3  A    between atoms: C_6  and  C_8
REMARK    4  A    between atoms: C_13  and  C_14
REMARK    5  A    between atoms: C_17  and  C_18
REMARK    6  A    between atoms: N_25  and  C_26
REMARK                            x       y       z     vdW  Elec       q    Type
REMARK                         _______ _______ _______ _____ _____    ______ ____
ROOT
ATOM      1  C   UNL     1       2.676   4.410  20.145  0.00  0.00    +0.000 A 
ATOM      2  C   UNL     1       1.776   3.860  21.075  0.00  0.00    +0.000 A 
ATOM      3  C   UNL     1       2.053   2.629  21.668  0.00  0.00    +0.000 A 
ATOM      4  C   UNL     1       3.204   1.932  21.314  0.00  0.00    +0.000 A 
ATOM      5  C   UNL     1       4.114   2.491  20.414  0.00  0.00    +0.000 A 
ATOM      6  C   UNL     1       3.886   3.753  19.845  0.00  0.00    +0.000 A 
ENDROOT
BRANCH   6   7
ATOM      7  C   UNL     1       4.933   4.329  18.999  0.00  0.00    +0.000 A 
ATOM      8  N   UNL     1       5.875   5.195  19.317  0.00  0.00    +0.000 NA
ATOM      9  C   UNL     1       6.514   5.435  18.125  0.00  0.00    +0.000 A 
ATOM     10  C   UNL     1       5.916   4.725  17.107  0.00  0.00    +0.000 A 
ATOM     11  O   UNL     1       4.872   4.031  17.662  0.00  0.00    +0.000 OA
BRANCH  10  12
ATOM     12  C   UNL     1       6.139   4.572  15.678  0.00  0.00    +0.000 A 
ATOM     13  C   UNL     1       5.230   3.868  14.874  0.00  0.00    +0.000 A 
ATOM     14  C   UNL     1       5.472   3.687  13.509  0.00  0.00    +0.000 A 
ATOM     15  C   UNL     1       6.622   4.218  12.928  0.00  0.00    +0.000 A 
ATOM     16  C   UNL     1       7.529   4.928  13.710  0.00  0.00    +0.000 A 
ATOM     17  C   UNL     1       7.290   5.103  15.077  0.00  0.00    +0.000 A 
ENDBRANCH  10  12
ENDBRANCH   6   7
BRANCH   1  19
ATOM     18  N   UNL     1       2.430   6.886  19.935  0.00  0.00    +0.000 N 
ATOM     19  C   UNL     1       2.246   5.581  19.352  0.00  0.00    +0.000 C 
ATOM     20  O   UNL     1       1.683   5.438  18.278  0.00  0.00    +0.000 OA
ATOM     21  H   UNL     1       2.856   6.960  20.846  0.00  0.00    +0.000 HD
BRANCH  18  25
ATOM     22  C   UNL     1       0.258  11.181  18.568  0.00  0.00    +0.000 C 
ATOM     23  C   UNL     1       1.114   9.973  18.643  0.00  0.00    +0.000 A 
ATOM     24  C   UNL     1       1.127   8.993  19.657  0.00  0.00    +0.000 A 
ATOM     25  C   UNL     1       2.069   8.062  19.275  0.00  0.00    +0.000 A 
ATOM     26  N   UNL     1       2.570   8.540  18.084  0.00  0.00    +0.000 N 
ATOM     27  C   UNL     1       3.613   7.982  17.260  0.00  0.00    +0.000 C 
ATOM     28  N   UNL     1       1.999   9.693  17.683  0.00  0.00    +0.000 NA
ENDBRANCH  18  25
ENDBRANCH   1  19
TORSDOF 4
ENDMDL
MODEL 6
REMARK VINA RESULT:      -8.2      1.018      1.396
REMARK  Name = 
REMARK  6 active torsions:
REMARK  status: ('A' for Active; 'I' for Inactive)
REMARK    1  A    between atoms: C_1  and  C_2
REMARK    2  A    between atoms: C_4  and  N_5
REMARK    3  A    between atoms: C_6  and  C_8
REMARK    4  A    between atoms: C_13  and  C_14
REMARK    5  A    between atoms: C_17  and  C_18
REMARK    6  A    between atoms: N_25  and  C_26
REMARK                            x       y       z     vdW  Elec       q    Type
REMARK                         _______ _______ _______ _____ _____    ______ ____
ROOT
ATOM      1  C   UNL     1      -1.145  11.402  20.318  0.00  0.00    +0.000 A 
ATOM      2  C   UNL     1      -1.900  12.032  21.323  0.00  0.00    +0.000 A 
ATOM      3  C   UNL     1      -1.641  11.757  22.665  0.00  0.00    +0.000 A 
ATOM      4  C   UNL     1      -0.656  10.834  23.006  0.00  0.00    +0.000 A 
ATOM      5  C   UNL     1       0.115  10.230  22.011  0.00  0.00    +0.000 A 
ATOM      6  C   UNL     1      -0.089  10.531  20.655  0.00  0.00    +0.000 A 
ENDROOT
BRANCH   6   7
ATOM      7  C   UNL     1       0.828   9.951  19.673  0.00  0.00    +0.000 A 
ATOM      8  N   UNL     1       1.250  10.456  18.531  0.00  0.00    +0.000 NA
ATOM      9  C   UNL     1       2.021   9.454  17.995  0.00  0.00    +0.000 A 
ATOM     10  C   UNL     1       2.017   8.350  18.820  0.00  0.00    +0.000 A 
ATOM     11  O   UNL     1       1.220   8.656  19.893  0.00  0.00    +0.000 OA
BRANCH  10  12
ATOM     12  C   UNL     1       2.628   7.031  18.792  0.00  0.00    +0.000 A 
ATOM     13  C   UNL     1       3.477   6.647  17.744  0.00  0.00    +0.000 A 
ATOM     14  C   UNL     1       4.026   5.362  17.699  0.00  0.00    +0.000 A 
ATOM     15  C   UNL     1       3.740   4.447  18.710  0.00  0.00    +0.000 A 
ATOM     16  C   UNL     1       2.908   4.815  19.764  0.00  0.00    +0.000 A 
ATOM     17  C   UNL     1       2.353   6.099  19.803  0.00  0.00    +0.000 A 
ENDBRANCH  10  12
ENDBRANCH   6   7
BRANCH   1  19
ATOM     18  N   UNL     1      -2.365  10.425  18.371  0.00  0.00    +0.000 N 
ATOM     19  C   UNL     1      -1.599  11.517  18.917  0.00  0.00    +0.000 C 
ATOM     20  O   UNL     1      -1.267  12.468  18.226  0.00  0.00    +0.000 OA
ATOM     21  H   UNL     1      -2.579   9.634  18.960  0.00  0.00    +0.000 HD
BRANCH  18  25
ATOM     22  C   UNL     1      -2.989   9.762  13.451  0.00  0.00    +0.000 C 
ATOM     23  C   UNL     1      -3.151  10.150  14.873  0.00  0.00    +0.000 A 
ATOM     24  C   UNL     1      -2.302   9.828  15.952  0.00  0.00    +0.000 A 
ATOM     25  C   UNL     1      -2.853  10.428  17.063  0.00  0.00    +0.000 A 
ATOM     26  N   UNL     1      -3.991  11.048  16.597  0.00  0.00    +0.000 N 
ATOM     27  C   UNL     1      -4.976  11.795  17.339  0.00  0.00    +0.000 C 
ATOM     28  N   UNL     1      -4.184  10.896  15.272  0.00  0.00    +0.000 NA
ENDBRANCH  18  25
ENDBRANCH   1  19
TORSDOF 4
ENDMDL
MODEL 7
REMARK VINA RESULT:      -8.1      6.425      9.236
REMARK  Name = 
REMARK  6 active torsions:
REMARK  status: ('A' for Active; 'I' for Inactive)
REMARK    1  A    between atoms: C_1  and  C_2
REMARK    2  A    between atoms: C_4  and  N_5
REMARK    3  A    between atoms: C_6  and  C_8
REMARK    4  A    between atoms: C_13  and  C_14
REMARK    5  A    between atoms: C_17  and  C_18
REMARK    6  A    between atoms: N_25  and  C_26
REMARK                            x       y       z     vdW  Elec       q    Type
REMARK                         _______ _______ _______ _____ _____    ______ ____
ROOT
ATOM      1  C   UNL     1       5.640   4.567  15.799  0.00  0.00    +0.000 A 
ATOM      2  C   UNL     1       5.258   3.830  14.664  0.00  0.00    +0.000 A 
ATOM      3  C   UNL     1       6.024   3.896  13.500  0.00  0.00    +0.000 A 
ATOM      4  C   UNL     1       7.147   4.716  13.455  0.00  0.00    +0.000 A 
ATOM      5  C   UNL     1       7.545   5.425  14.591  0.00  0.00    +0.000 A 
ATOM      6  C   UNL     1       6.823   5.333  15.790  0.00  0.00    +0.000 A 
ENDROOT
BRANCH   6   7
ATOM      7  C   UNL     1       7.358   6.010  16.973  0.00  0.00    +0.000 A 
ATOM      8  N   UNL     1       7.553   5.533  18.186  0.00  0.00    +0.000 NA
ATOM      9  C   UNL     1       7.995   6.621  18.898  0.00  0.00    +0.000 A 
ATOM     10  C   UNL     1       8.024   7.741  18.096  0.00  0.00    +0.000 A 
ATOM     11  O   UNL     1       7.582   7.358  16.856  0.00  0.00    +0.000 OA
BRANCH  10  12
ATOM     12  C   UNL     1       8.391   9.137  18.275  0.00  0.00    +0.000 A 
ATOM     13  C   UNL     1       7.901  10.132  17.416  0.00  0.00    +0.000 A 
ATOM     14  C   UNL     1       8.292  11.466  17.566  0.00  0.00    +0.000 A 
ATOM     15  C   UNL     1       9.172  11.824  18.585  0.00  0.00    +0.000 A 
ATOM     16  C   UNL     1       9.660  10.850  19.453  0.00  0.00    +0.000 A 
ATOM     17  C   UNL     1       9.273   9.515  19.298  0.00  0.00    +0.000 A 
ENDBRANCH  10  12
ENDBRANCH   6   7
BRANCH   1  19
ATOM     18  N   UNL     1       4.198   3.452  17.505  0.00  0.00    +0.000 N 
ATOM     19  C   UNL     1       4.688   4.676  16.923  0.00  0.00    +0.000 C 
ATOM     20  O   UNL     1       4.273   5.765  17.290  0.00  0.00    +0.000 OA
ATOM     21  H   UNL     1       4.528   2.571  17.142  0.00  0.00    +0.000 HD
BRANCH  18  25
ATOM     22  C   UNL     1       2.049   2.904  21.990  0.00  0.00    +0.000 C 
ATOM     23  C   UNL     1       2.322   3.193  20.562  0.00  0.00    +0.000 A 
ATOM     24  C   UNL     1       3.553   3.078  19.884  0.00  0.00    +0.000 A 
ATOM     25  C   UNL     1       3.302   3.433  18.576  0.00  0.00    +0.000 A 
ATOM     26  N   UNL     1       1.963   3.753  18.551  0.00  0.00    +0.000 N 
ATOM     27  C   UNL     1       1.174   4.231  17.444  0.00  0.00    +0.000 C 
ATOM     28  N   UNL     1       1.351   3.608  19.743  0.00  0.00    +0.000 NA
ENDBRANCH  18  25
ENDBRANCH   1  19
TORSDOF 4
ENDMDL
MODEL 8
REMARK VINA RESULT:      -8.1      3.847      8.406
REMARK  Name = 
REMARK  6 active torsions:
REMARK  status: ('A' for Active; 'I' for Inactive)
REMARK    1  A    between atoms: C_1  and  C_2
REMARK    2  A    between atoms: C_4  and  N_5
REMARK    3  A    between atoms: C_6  and  C_8
REMARK    4  A    between atoms: C_13  and  C_14
REMARK    5  A    between atoms: C_17  and  C_18
REMARK    6  A    between atoms: N_25  and  C_26
REMARK                            x       y       z     vdW  Elec       q    Type
REMARK                         _______ _______ _______ _____ _____    ______ ____
ROOT
ATOM      1  C   UNL     1       3.118   3.785  19.333  0.00  0.00    +0.000 A 
ATOM      2  C   UNL     1       3.222   2.426  19.679  0.00  0.00    +0.000 A 
ATOM      3  C   UNL     1       2.799   1.993  20.934  0.00  0.00    +0.000 A 
ATOM      4  C   UNL     1       2.303   2.911  21.855  0.00  0.00    +0.000 A 
ATOM      5  C   UNL     1       2.170   4.256  21.502  0.00  0.00    +0.000 A 
ATOM      6  C   UNL     1       2.538   4.709  20.226  0.00  0.00    +0.000 A 
ENDROOT
BRANCH   6   7
ATOM      7  C   UNL     1       2.266   6.106  19.884  0.00  0.00    +0.000 A 
ATOM      8  N   UNL     1       2.700   6.809  18.856  0.00  0.00    +0.000 NA
ATOM      9  C   UNL     1       2.198   8.067  19.085  0.00  0.00    +0.000 A 
ATOM     10  C   UNL     1       1.495   8.096  20.270  0.00  0.00    +0.000 A 
ATOM     11  O   UNL     1       1.563   6.836  20.807  0.00  0.00    +0.000 OA
BRANCH  10  12
ATOM     12  C   UNL     1       0.759   9.104  21.015  0.00  0.00    +0.000 A 
ATOM     13  C   UNL     1       0.427   8.910  22.364  0.00  0.00    +0.000 A 
ATOM     14  C   UNL     1      -0.320   9.864  23.064  0.00  0.00    +0.000 A 
ATOM     15  C   UNL     1      -0.735  11.029  22.424  0.00  0.00    +0.000 A 
ATOM     16  C   UNL     1      -0.405  11.243  21.088  0.00  0.00    +0.000 A 
ATOM     17  C   UNL     1       0.336  10.285  20.388  0.00  0.00    +0.000 A 
ENDBRANCH  10  12
ENDBRANCH   6   7
BRANCH   1  19
ATOM     18  N   UNL     1       5.231   4.149  18.055  0.00  0.00    +0.000 N 
ATOM     19  C   UNL     1       3.795   4.257  18.107  0.00  0.00    +0.000 C 
ATOM     20  O   UNL     1       3.165   4.790  17.208  0.00  0.00    +0.000 OA
ATOM     21  H   UNL     1       5.721   3.746  18.840  0.00  0.00    +0.000 HD
BRANCH  18  25
ATOM     22  C   UNL     1       7.234   4.613  13.493  0.00  0.00    +0.000 C 
ATOM     23  C   UNL     1       6.887   4.777  14.925  0.00  0.00    +0.000 A 
ATOM     24  C   UNL     1       5.915   4.065  15.660  0.00  0.00    +0.000 A 
ATOM     25  C   UNL     1       5.977   4.555  16.946  0.00  0.00    +0.000 A 
ATOM     26  N   UNL     1       6.952   5.526  16.905  0.00  0.00    +0.000 N 
ATOM     27  C   UNL     1       7.403   6.392  17.966  0.00  0.00    +0.000 C 
ATOM     28  N   UNL     1       7.518   5.671  15.691  0.00  0.00    +0.000 NA
ENDBRANCH  18  25
ENDBRANCH   1  19
TORSDOF 4
ENDMDL
MODEL 9
REMARK VINA RESULT:      -8.0      3.534      8.361
REMARK  Name = 
REMARK  6 active torsions:
REMARK  status: ('A' for Active; 'I' for Inactive)
REMARK    1  A    between atoms: C_1  and  C_2
REMARK    2  A    between atoms: C_4  and  N_5
REMARK    3  A    between atoms: C_6  and  C_8
REMARK    4  A    between atoms: C_13  and  C_14
REMARK    5  A    between atoms: C_17  and  C_18
REMARK    6  A    between atoms: N_25  and  C_26
REMARK                            x       y       z     vdW  Elec       q    Type
REMARK                         _______ _______ _______ _____ _____    ______ ____
ROOT
ATOM      1  C   UNL     1       2.660   3.748  18.931  0.00  0.00    +0.000 A 
ATOM      2  C   UNL     1       2.435   2.475  19.486  0.00  0.00    +0.000 A 
ATOM      3  C   UNL     1       1.869   2.359  20.755  0.00  0.00    +0.000 A 
ATOM      4  C   UNL     1       1.558   3.503  21.483  0.00  0.00    +0.000 A 
ATOM      5  C   UNL     1       1.752   4.767  20.922  0.00  0.00    +0.000 A 
ATOM      6  C   UNL     1       2.269   4.910  19.625  0.00  0.00    +0.000 A 
ENDROOT
BRANCH   6   7
ATOM      7  C   UNL     1       2.340   6.257  19.055  0.00  0.00    +0.000 A 
ATOM      8  N   UNL     1       3.189   6.740  18.170  0.00  0.00    +0.000 NA
ATOM      9  C   UNL     1       2.836   8.063  18.067  0.00  0.00    +0.000 A 
ATOM     10  C   UNL     1       1.796   8.352  18.923  0.00  0.00    +0.000 A 
ATOM     11  O   UNL     1       1.492   7.192  19.588  0.00  0.00    +0.000 OA
BRANCH  10  12
ATOM     12  C   UNL     1       1.017   9.536  19.248  0.00  0.00    +0.000 A 
ATOM     13  C   UNL     1       1.108  10.139  20.511  0.00  0.00    +0.000 A 
ATOM     14  C   UNL     1       0.323  11.251  20.833  0.00  0.00    +0.000 A 
ATOM     15  C   UNL     1      -0.555  11.781  19.890  0.00  0.00    +0.000 A 
ATOM     16  C   UNL     1      -0.649  11.201  18.627  0.00  0.00    +0.000 A 
ATOM     17  C   UNL     1       0.131  10.084  18.309  0.00  0.00    +0.000 A 
ENDBRANCH  10  12
ENDBRANCH   6   7
BRANCH   1  19
ATOM     18  N   UNL     1       4.857   4.248  17.857  0.00  0.00    +0.000 N 
ATOM     19  C   UNL     1       3.480   3.850  17.707  0.00  0.00    +0.000 C 
ATOM     20  O   UNL     1       2.985   3.679  16.603  0.00  0.00    +0.000 OA
ATOM     21  H   UNL     1       5.217   4.427  18.782  0.00  0.00    +0.000 HD
BRANCH  18  25
ATOM     22  C   UNL     1       6.872   4.420  13.280  0.00  0.00    +0.000 C 
ATOM     23  C   UNL     1       6.649   4.446  14.746  0.00  0.00    +0.000 A 
ATOM     24  C   UNL     1       5.426   4.295  15.430  0.00  0.00    +0.000 A 
ATOM     25  C   UNL     1       5.728   4.369  16.772  0.00  0.00    +0.000 A 
ATOM     26  N   UNL     1       7.089   4.575  16.813  0.00  0.00    +0.000 N 
ATOM     27  C   UNL     1       7.935   4.767  17.965  0.00  0.00    +0.000 C 
ATOM     28  N   UNL     1       7.665   4.618  15.595  0.00  0.00    +0.000 NA
ENDBRANCH  18  25
ENDBRANCH   1  19
TORSDOF 4
ENDMDL
