MODEL 1
REMARK VINA RESULT:      -8.5      0.000      0.000
REMARK  Name = 
REMARK  5 active torsions:
REMARK  status: ('A' for Active; 'I' for Inactive)
REMARK    1  A    between atoms: C_1  and  C_2
REMARK    2  A    between atoms: C_10  and  C_11
REMARK    3  A    between atoms: N_13  and  C_14
REMARK    4  A    between atoms: C_14  and  C_15
REMARK    5  A    between atoms: C_15  and  N_16
REMARK                            x       y       z     vdW  Elec       q    Type
REMARK                         _______ _______ _______ _____ _____    ______ ____
ROOT
ATOM      1  C   UNL     1       7.328   5.438  17.479  0.00  0.00    +0.000 C 
ATOM      2  O   UNL     1       7.711   4.801  18.443  0.00  0.00    +0.000 OA
ATOM      3  N   UNL     1       7.526   6.802  17.355  0.00  0.00    +0.000 N 
ATOM      4  H   UNL     1       7.176   7.255  16.515  0.00  0.00    +0.000 HD
ENDROOT
BRANCH   1  14
ATOM      5  C   UNL     1       4.701   3.700  17.704  0.00  0.00    +0.000 C 
ATOM      6  C   UNL     1       5.475   3.987  16.462  0.00  0.00    +0.000 A 
ATOM      7  N   UNL     1       5.072   3.496  15.284  0.00  0.00    +0.000 NA
ATOM      8  N   UNL     1       5.969   3.975  14.388  0.00  0.00    +0.000 N 
ATOM      9  C   UNL     1       5.965   3.774  13.011  0.00  0.00    +0.000 A 
ATOM     10  C   UNL     1       6.921   4.300  12.234  0.00  0.00    +0.000 A 
ATOM     11  C   UNL     1       7.937   5.080  12.991  0.00  0.00    +0.000 A 
ATOM     12  N   UNL     1       7.979   5.306  14.274  0.00  0.00    +0.000 NA
ATOM     13  C   UNL     1       6.969   4.742  15.008  0.00  0.00    +0.000 A 
ATOM     14  C   UNL     1       6.661   4.778  16.356  0.00  0.00    +0.000 A 
ENDBRANCH   1  14
BRANCH   3  15
ATOM     15  C   UNL     1       8.120   7.572  18.439  0.00  0.00    +0.000 C 
BRANCH  15  16
ATOM     16  C   UNL     1       8.436   9.048  18.053  0.00  0.00    +0.000 C 
BRANCH  16  17
ATOM     17  N   UNL     1       8.838   9.830  19.217  0.00  0.00    +0.000 N 
ATOM     18  C   UNL     1       9.732  10.913  19.105  0.00  0.00    +0.000 A 
ATOM     19  C   UNL     1      10.325  11.285  20.306  0.00  0.00    +0.000 A 
ATOM     20  C   UNL     1      11.287  12.270  20.318  0.00  0.00    +0.000 A 
ATOM     21  C   UNL     1      11.518  13.009  19.174  0.00  0.00    +0.000 A 
ATOM     22  C   UNL     1      12.299  14.145  19.327  0.00  0.00    +0.000 A 
ATOM     23  C   UNL     1      12.255  15.097  18.332  0.00  0.00    +0.000 A 
ATOM     24  C   UNL     1      11.945  14.730  17.043  0.00  0.00    +0.000 A 
ATOM     25  C   UNL     1      11.162  13.573  16.888  0.00  0.00    +0.000 A 
ATOM     26  C   UNL     1      10.855  12.690  17.970  0.00  0.00    +0.000 A 
ATOM     27  N   UNL     1       9.988  11.606  17.949  0.00  0.00    +0.000 NA
ATOM     28  H   UNL     1       8.957   9.296  20.072  0.00  0.00    +0.000 HD
ENDBRANCH  16  17
ENDBRANCH  15  16
ENDBRANCH   3  15
TORSDOF 4
ENDMDL
MODEL 2
REMARK VINA RESULT:      -8.5      5.655      8.035
REMARK  Name = 
REMARK  5 active torsions:
REMARK  status: ('A' for Active; 'I' for Inactive)
REMARK    1  A    between atoms: C_1  and  C_2
REMARK    2  A    between atoms: C_10  and  C_11
REMARK    3  A    between atoms: N_13  and  C_14
REMARK    4  A    between atoms: C_14  and  C_15
REMARK    5  A    between atoms: C_15  and  N_16
REMARK                            x       y       z     vdW  Elec       q    Type
REMARK                         _______ _______ _______ _____ _____    ______ ____
ROOT
ATOM      1  C   UNL     1       4.572   4.337  16.921  0.00  0.00    +0.000 C 
ATOM      2  O   UNL     1       4.436   3.182  17.281  0.00  0.00    +0.000 OA
ATOM      3  N   UNL     1       3.758   5.363  17.368  0.00  0.00    +0.000 N 
ATOM      4  H   UNL     1       3.943   6.299  17.019  0.00  0.00    +0.000 HD
ENDROOT
BRANCH   1  14
ATOM      5  C   UNL     1       7.031   6.157  17.703  0.00  0.00    +0.000 C 
ATOM      6  C   UNL     1       6.761   5.550  16.368  0.00  0.00    +0.000 A 
ATOM      7  N   UNL     1       7.608   5.748  15.350  0.00  0.00    +0.000 NA
ATOM      8  N   UNL     1       7.084   5.036  14.323  0.00  0.00    +0.000 N 
ATOM      9  C   UNL     1       7.616   4.891  13.046  0.00  0.00    +0.000 A 
ATOM     10  C   UNL     1       6.989   4.162  12.115  0.00  0.00    +0.000 A 
ATOM     11  C   UNL     1       5.715   3.560  12.593  0.00  0.00    +0.000 A 
ATOM     12  N   UNL     1       5.181   3.656  13.778  0.00  0.00    +0.000 NA
ATOM     13  C   UNL     1       5.876   4.414  14.682  0.00  0.00    +0.000 A 
ATOM     14  C   UNL     1       5.653   4.720  16.012  0.00  0.00    +0.000 A 
ENDBRANCH   1  14
BRANCH   3  15
ATOM     15  C   UNL     1       2.611   5.087  18.222  0.00  0.00    +0.000 C 
BRANCH  15  16
ATOM     16  C   UNL     1       2.482   6.069  19.426  0.00  0.00    +0.000 C 
BRANCH  16  17
ATOM     17  N   UNL     1       2.394   7.454  18.978  0.00  0.00    +0.000 N 
ATOM     18  C   UNL     1       1.542   8.380  19.609  0.00  0.00    +0.000 A 
ATOM     19  C   UNL     1       1.261   9.506  18.842  0.00  0.00    +0.000 A 
ATOM     20  C   UNL     1       0.369  10.445  19.307  0.00  0.00    +0.000 A 
ATOM     21  C   UNL     1      -0.096  10.359  20.605  0.00  0.00    +0.000 A 
ATOM     22  C   UNL     1      -0.775  11.468  21.087  0.00  0.00    +0.000 A 
ATOM     23  C   UNL     1      -0.929  11.587  22.451  0.00  0.00    +0.000 A 
ATOM     24  C   UNL     1      -0.944  10.462  23.243  0.00  0.00    +0.000 A 
ATOM     25  C   UNL     1      -0.264   9.336  22.749  0.00  0.00    +0.000 A 
ATOM     26  C   UNL     1       0.254   9.260  21.418  0.00  0.00    +0.000 A 
ATOM     27  N   UNL     1       1.049   8.255  20.883  0.00  0.00    +0.000 NA
ATOM     28  H   UNL     1       2.459   7.585  17.973  0.00  0.00    +0.000 HD
ENDBRANCH  16  17
ENDBRANCH  15  16
ENDBRANCH   3  15
TORSDOF 4
ENDMDL
MODEL 3
REMARK VINA RESULT:      -8.4      4.749      7.689
REMARK  Name = 
REMARK  5 active torsions:
REMARK  status: ('A' for Active; 'I' for Inactive)
REMARK    1  A    between atoms: C_1  and  C_2
REMARK    2  A    between atoms: C_10  and  C_11
REMARK    3  A    between atoms: N_13  and  C_14
REMARK    4  A    between atoms: C_14  and  C_15
REMARK    5  A    between atoms: C_15  and  N_16
REMARK                            x       y       z     vdW  Elec       q    Type
REMARK                         _______ _______ _______ _____ _____    ______ ____
ROOT
ATOM      1  C   UNL     1       5.778   4.342  18.574  0.00  0.00    +0.000 C 
ATOM      2  O   UNL     1       5.875   4.906  19.648  0.00  0.00    +0.000 OA
ATOM      3  N   UNL     1       5.051   3.176  18.401  0.00  0.00    +0.000 N 
ATOM      4  H   UNL     1       5.021   2.773  17.469  0.00  0.00    +0.000 HD
ENDROOT
BRANCH   1  14
ATOM      5  C   UNL     1       7.764   6.796  18.537  0.00  0.00    +0.000 C 
ATOM      6  C   UNL     1       7.295   6.013  17.358  0.00  0.00    +0.000 A 
ATOM      7  N   UNL     1       7.722   6.320  16.127  0.00  0.00    +0.000 NA
ATOM      8  N   UNL     1       7.137   5.400  15.322  0.00  0.00    +0.000 N 
ATOM      9  C   UNL     1       7.294   5.271  13.945  0.00  0.00    +0.000 A 
ATOM     10  C   UNL     1       6.648   4.319  13.262  0.00  0.00    +0.000 A 
ATOM     11  C   UNL     1       5.782   3.462  14.116  0.00  0.00    +0.000 A 
ATOM     12  N   UNL     1       5.609   3.534  15.406  0.00  0.00    +0.000 NA
ATOM     13  C   UNL     1       6.303   4.529  16.042  0.00  0.00    +0.000 A 
ATOM     14  C   UNL     1       6.401   4.897  17.372  0.00  0.00    +0.000 A 
ENDBRANCH   1  14
BRANCH   3  15
ATOM     15  C   UNL     1       4.444   2.500  19.539  0.00  0.00    +0.000 C 
BRANCH  15  16
ATOM     16  C   UNL     1       2.959   2.093  19.301  0.00  0.00    +0.000 C 
BRANCH  16  17
ATOM     17  N   UNL     1       2.044   2.947  20.051  0.00  0.00    +0.000 N 
ATOM     18  C   UNL     1       2.050   4.347  19.897  0.00  0.00    +0.000 A 
ATOM     19  C   UNL     1       1.438   5.034  20.941  0.00  0.00    +0.000 A 
ATOM     20  C   UNL     1       1.457   6.410  20.957  0.00  0.00    +0.000 A 
ATOM     21  C   UNL     1       1.913   7.098  19.849  0.00  0.00    +0.000 A 
ATOM     22  C   UNL     1       1.660   8.461  19.828  0.00  0.00    +0.000 A 
ATOM     23  C   UNL     1       1.754   9.117  18.620  0.00  0.00    +0.000 A 
ATOM     24  C   UNL     1       2.579   8.627  17.635  0.00  0.00    +0.000 A 
ATOM     25  C   UNL     1       2.842   7.247  17.662  0.00  0.00    +0.000 A 
ATOM     26  C   UNL     1       2.458   6.402  18.750  0.00  0.00    +0.000 A 
ATOM     27  N   UNL     1       2.553   5.018  18.812  0.00  0.00    +0.000 NA
ATOM     28  H   UNL     1       1.860   2.646  21.002  0.00  0.00    +0.000 HD
ENDBRANCH  16  17
ENDBRANCH  15  16
ENDBRANCH   3  15
TORSDOF 4
ENDMDL
MODEL 4
REMARK VINA RESULT:      -8.3      5.457      7.494
REMARK  Name = 
REMARK  5 active torsions:
REMARK  status: ('A' for Active; 'I' for Inactive)
REMARK    1  A    between atoms: C_1  and  C_2
REMARK    2  A    between atoms: C_10  and  C_11
REMARK    3  A    between atoms: N_13  and  C_14
REMARK    4  A    between atoms: C_14  and  C_15
REMARK    5  A    between atoms: C_15  and  N_16
REMARK                            x       y       z     vdW  Elec       q    Type
REMARK                         _______ _______ _______ _____ _____    ______ ____
ROOT
ATOM      1  C   UNL     1       4.789   4.019  16.954  0.00  0.00    +0.000 C 
ATOM      2  O   UNL     1       3.665   3.759  16.566  0.00  0.00    +0.000 OA
ATOM      3  N   UNL     1       5.195   3.822  18.262  0.00  0.00    +0.000 N 
ATOM      4  H   UNL     1       6.153   4.064  18.501  0.00  0.00    +0.000 HD
ENDROOT
BRANCH   1  14
ATOM      5  C   UNL     1       7.071   6.061  17.724  0.00  0.00    +0.000 C 
ATOM      6  C   UNL     1       6.834   5.455  16.382  0.00  0.00    +0.000 A 
ATOM      7  N   UNL     1       7.635   5.755  15.353  0.00  0.00    +0.000 NA
ATOM      8  N   UNL     1       7.161   5.013  14.322  0.00  0.00    +0.000 N 
ATOM      9  C   UNL     1       7.678   4.946  13.031  0.00  0.00    +0.000 A 
ATOM     10  C   UNL     1       7.106   4.175  12.098  0.00  0.00    +0.000 A 
ATOM     11  C   UNL     1       5.909   3.441  12.589  0.00  0.00    +0.000 A 
ATOM     12  N   UNL     1       5.393   3.461  13.786  0.00  0.00    +0.000 NA
ATOM     13  C   UNL     1       6.030   4.268  14.691  0.00  0.00    +0.000 A 
ATOM     14  C   UNL     1       5.807   4.526  16.032  0.00  0.00    +0.000 A 
ENDBRANCH   1  14
BRANCH   3  15
ATOM     15  C   UNL     1       4.249   3.384  19.280  0.00  0.00    +0.000 C 
BRANCH  15  16
ATOM     16  C   UNL     1       3.327   4.527  19.804  0.00  0.00    +0.000 C 
BRANCH  16  17
ATOM     17  N   UNL     1       3.457   5.732  18.992  0.00  0.00    +0.000 N 
ATOM     18  C   UNL     1       2.663   6.870  19.231  0.00  0.00    +0.000 A 
ATOM     19  C   UNL     1       2.604   7.755  18.159  0.00  0.00    +0.000 A 
ATOM     20  C   UNL     1       1.789   8.862  18.231  0.00  0.00    +0.000 A 
ATOM     21  C   UNL     1       1.185   9.186  19.431  0.00  0.00    +0.000 A 
ATOM     22  C   UNL     1       0.600  10.442  19.501  0.00  0.00    +0.000 A 
ATOM     23  C   UNL     1       0.320  10.954  20.749  0.00  0.00    +0.000 A 
ATOM     24  C   UNL     1       0.086  10.103  21.805  0.00  0.00    +0.000 A 
ATOM     25  C   UNL     1       0.670   8.828  21.727  0.00  0.00    +0.000 A 
ATOM     26  C   UNL     1       1.311   8.334  20.548  0.00  0.00    +0.000 A 
ATOM     27  N   UNL     1       2.028   7.153  20.414  0.00  0.00    +0.000 NA
ATOM     28  H   UNL     1       3.641   5.568  18.007  0.00  0.00    +0.000 HD
ENDBRANCH  16  17
ENDBRANCH  15  16
ENDBRANCH   3  15
TORSDOF 4
ENDMDL
MODEL 5
REMARK VINA RESULT:      -8.3      2.799      3.563
REMARK  Name = 
REMARK  5 active torsions:
REMARK  status: ('A' for Active; 'I' for Inactive)
REMARK    1  A    between atoms: C_1  and  C_2
REMARK    2  A    between atoms: C_10  and  C_11
REMARK    3  A    between atoms: N_13  and  C_14
REMARK    4  A    between atoms: C_14  and  C_15
REMARK    5  A    between atoms: C_15  and  N_16
REMARK                            x       y       z     vdW  Elec       q    Type
REMARK                         _______ _______ _______ _____ _____    ______ ____
ROOT
ATOM      1  C   UNL     1       6.310   5.735  18.895  0.00  0.00    +0.000 C 
ATOM      2  O   UNL     1       6.943   5.324  19.849  0.00  0.00    +0.000 OA
ATOM      3  N   UNL     1       6.823   6.653  17.994  0.00  0.00    +0.000 N 
ATOM      4  H   UNL     1       6.227   6.941  17.223  0.00  0.00    +0.000 HD
ENDROOT
BRANCH   1  14
ATOM      5  C   UNL     1       4.052   7.378  17.420  0.00  0.00    +0.000 C 
ATOM      6  C   UNL     1       3.940   5.990  17.953  0.00  0.00    +0.000 A 
ATOM      7  N   UNL     1       2.797   5.305  17.822  0.00  0.00    +0.000 NA
ATOM      8  N   UNL     1       3.057   4.094  18.373  0.00  0.00    +0.000 N 
ATOM      9  C   UNL     1       2.193   3.007  18.454  0.00  0.00    +0.000 A 
ATOM     10  C   UNL     1       2.574   1.863  19.035  0.00  0.00    +0.000 A 
ATOM     11  C   UNL     1       3.965   1.901  19.561  0.00  0.00    +0.000 A 
ATOM     12  N   UNL     1       4.816   2.886  19.501  0.00  0.00    +0.000 NA
ATOM     13  C   UNL     1       4.362   4.025  18.890  0.00  0.00    +0.000 A 
ATOM     14  C   UNL     1       4.961   5.241  18.614  0.00  0.00    +0.000 A 
ENDBRANCH   1  14
BRANCH   3  15
ATOM     15  C   UNL     1       8.128   7.262  18.211  0.00  0.00    +0.000 C 
BRANCH  15  16
ATOM     16  C   UNL     1       8.171   8.781  17.866  0.00  0.00    +0.000 C 
BRANCH  16  17
ATOM     17  N   UNL     1       8.487   9.587  19.041  0.00  0.00    +0.000 N 
ATOM     18  C   UNL     1       9.459  10.604  18.996  0.00  0.00    +0.000 A 
ATOM     19  C   UNL     1       9.932  10.991  20.245  0.00  0.00    +0.000 A 
ATOM     20  C   UNL     1      10.950  11.913  20.336  0.00  0.00    +0.000 A 
ATOM     21  C   UNL     1      11.362  12.585  19.201  0.00  0.00    +0.000 A 
ATOM     22  C   UNL     1      12.195  13.675  19.405  0.00  0.00    +0.000 A 
ATOM     23  C   UNL     1      12.332  14.583  18.377  0.00  0.00    +0.000 A 
ATOM     24  C   UNL     1      12.150  14.180  17.075  0.00  0.00    +0.000 A 
ATOM     25  C   UNL     1      11.314  13.069  16.871  0.00  0.00    +0.000 A 
ATOM     26  C   UNL     1      10.824  12.256  17.939  0.00  0.00    +0.000 A 
ATOM     27  N   UNL     1       9.894  11.228  17.854  0.00  0.00    +0.000 NA
ATOM     28  H   UNL     1       8.469   9.084  19.922  0.00  0.00    +0.000 HD
ENDBRANCH  16  17
ENDBRANCH  15  16
ENDBRANCH   3  15
TORSDOF 4
ENDMDL
MODEL 6
REMARK VINA RESULT:      -8.3      5.812      8.114
REMARK  Name = 
REMARK  5 active torsions:
REMARK  status: ('A' for Active; 'I' for Inactive)
REMARK    1  A    between atoms: C_1  and  C_2
REMARK    2  A    between atoms: C_10  and  C_11
REMARK    3  A    between atoms: N_13  and  C_14
REMARK    4  A    between atoms: C_14  and  C_15
REMARK    5  A    between atoms: C_15  and  N_16
REMARK                            x       y       z     vdW  Elec       q    Type
REMARK                         _______ _______ _______ _____ _____    ______ ____
ROOT
ATOM      1  C   UNL     1       4.952   4.029  19.115  0.00  0.00    +0.000 C 
ATOM      2  O   UNL     1       5.125   2.938  19.625  0.00  0.00    +0.000 OA
ATOM      3  N   UNL     1       3.920   4.875  19.485  0.00  0.00    +0.000 N 
ATOM      4  H   UNL     1       3.851   5.770  19.009  0.00  0.00    +0.000 HD
ENDROOT
BRANCH   1  14
ATOM      5  C   UNL     1       7.587   5.667  19.700  0.00  0.00    +0.000 C 
ATOM      6  C   UNL     1       7.056   5.283  18.360  0.00  0.00    +0.000 A 
ATOM      7  N   UNL     1       7.714   5.628  17.246  0.00  0.00    +0.000 NA
ATOM      8  N   UNL     1       6.982   5.096  16.237  0.00  0.00    +0.000 N 
ATOM      9  C   UNL     1       7.270   5.148  14.876  0.00  0.00    +0.000 A 
ATOM     10  C   UNL     1       6.455   4.585  13.976  0.00  0.00    +0.000 A 
ATOM     11  C   UNL     1       5.263   3.933  14.583  0.00  0.00    +0.000 A 
ATOM     12  N   UNL     1       4.955   3.847  15.846  0.00  0.00    +0.000 NA
ATOM     13  C   UNL     1       5.834   4.442  16.712  0.00  0.00    +0.000 A 
ATOM     14  C   UNL     1       5.867   4.536  18.092  0.00  0.00    +0.000 A 
ENDBRANCH   1  14
BRANCH   3  15
ATOM     15  C   UNL     1       2.912   4.447  20.445  0.00  0.00    +0.000 C 
BRANCH  15  16
ATOM     16  C   UNL     1       1.863   5.551  20.778  0.00  0.00    +0.000 C 
BRANCH  16  17
ATOM     17  N   UNL     1       2.179   6.807  20.108  0.00  0.00    +0.000 N 
ATOM     18  C   UNL     1       1.467   7.990  20.386  0.00  0.00    +0.000 A 
ATOM     19  C   UNL     1       1.594   8.971  19.409  0.00  0.00    +0.000 A 
ATOM     20  C   UNL     1       0.876  10.141  19.517  0.00  0.00    +0.000 A 
ATOM     21  C   UNL     1       0.185  10.410  20.682  0.00  0.00    +0.000 A 
ATOM     22  C   UNL     1      -0.292  11.705  20.825  0.00  0.00    +0.000 A 
ATOM     23  C   UNL     1      -0.650  12.124  22.087  0.00  0.00    +0.000 A 
ATOM     24  C   UNL     1      -1.064  11.207  23.025  0.00  0.00    +0.000 A 
ATOM     25  C   UNL     1      -0.588   9.893  22.874  0.00  0.00    +0.000 A 
ATOM     26  C   UNL     1       0.122   9.451  21.715  0.00  0.00    +0.000 A 
ATOM     27  N   UNL     1       0.744   8.223  21.528  0.00  0.00    +0.000 NA
ATOM     28  H   UNL     1       2.446   6.717  19.133  0.00  0.00    +0.000 HD
ENDBRANCH  16  17
ENDBRANCH  15  16
ENDBRANCH   3  15
TORSDOF 4
ENDMDL
MODEL 7
REMARK VINA RESULT:      -8.2      7.434      9.561
REMARK  Name = 
REMARK  5 active torsions:
REMARK  status: ('A' for Active; 'I' for Inactive)
REMARK    1  A    between atoms: C_1  and  C_2
REMARK    2  A    between atoms: C_10  and  C_11
REMARK    3  A    between atoms: N_13  and  C_14
REMARK    4  A    between atoms: C_14  and  C_15
REMARK    5  A    between atoms: C_15  and  N_16
REMARK                            x       y       z     vdW  Elec       q    Type
REMARK                         _______ _______ _______ _____ _____    ______ ____
ROOT
ATOM      1  C   UNL     1       3.697   6.414  17.925  0.00  0.00    +0.000 C 
ATOM      2  O   UNL     1       4.451   6.667  17.004  0.00  0.00    +0.000 OA
ATOM      3  N   UNL     1       2.624   7.221  18.259  0.00  0.00    +0.000 N 
ATOM      4  H   UNL     1       2.043   6.934  19.041  0.00  0.00    +0.000 HD
ENDROOT
BRANCH   1  14
ATOM      5  C   UNL     1       6.370   4.747  18.152  0.00  0.00    +0.000 C 
ATOM      6  C   UNL     1       5.069   4.440  18.814  0.00  0.00    +0.000 A 
ATOM      7  N   UNL     1       4.949   3.367  19.606  0.00  0.00    +0.000 NA
ATOM      8  N   UNL     1       3.672   3.415  20.058  0.00  0.00    +0.000 N 
ATOM      9  C   UNL     1       3.065   2.533  20.946  0.00  0.00    +0.000 A 
ATOM     10  C   UNL     1       1.785   2.689  21.307  0.00  0.00    +0.000 A 
ATOM     11  C   UNL     1       1.128   3.862  20.669  0.00  0.00    +0.000 A 
ATOM     12  N   UNL     1       1.655   4.721  19.843  0.00  0.00    +0.000 NA
ATOM     13  C   UNL     1       2.968   4.504  19.519  0.00  0.00    +0.000 A 
ATOM     14  C   UNL     1       3.860   5.195  18.719  0.00  0.00    +0.000 A 
ENDBRANCH   1  14
BRANCH   3  15
ATOM     15  C   UNL     1       2.405   8.491  17.580  0.00  0.00    +0.000 C 
BRANCH  15  16
ATOM     16  C   UNL     1       1.820   9.599  18.507  0.00  0.00    +0.000 C 
BRANCH  16  17
ATOM     17  N   UNL     1       1.248   9.031  19.723  0.00  0.00    +0.000 N 
ATOM     18  C   UNL     1       0.426   9.793  20.575  0.00  0.00    +0.000 A 
ATOM     19  C   UNL     1       0.301   9.269  21.858  0.00  0.00    +0.000 A 
ATOM     20  C   UNL     1      -0.402   9.965  22.815  0.00  0.00    +0.000 A 
ATOM     21  C   UNL     1      -1.133  11.079  22.448  0.00  0.00    +0.000 A 
ATOM     22  C   UNL     1      -2.017  11.570  23.397  0.00  0.00    +0.000 A 
ATOM     23  C   UNL     1      -3.013  12.421  22.970  0.00  0.00    +0.000 A 
ATOM     24  C   UNL     1      -2.826  13.189  21.844  0.00  0.00    +0.000 A 
ATOM     25  C   UNL     1      -1.922  12.695  20.889  0.00  0.00    +0.000 A 
ATOM     26  C   UNL     1      -1.076  11.567  21.126  0.00  0.00    +0.000 A 
ATOM     27  N   UNL     1      -0.255  10.926  20.208  0.00  0.00    +0.000 NA
ATOM     28  H   UNL     1       1.851   8.382  20.217  0.00  0.00    +0.000 HD
ENDBRANCH  16  17
ENDBRANCH  15  16
ENDBRANCH   3  15
TORSDOF 4
ENDMDL
MODEL 8
REMARK VINA RESULT:      -8.2      5.786      7.474
REMARK  Name = 
REMARK  5 active torsions:
REMARK  status: ('A' for Active; 'I' for Inactive)
REMARK    1  A    between atoms: C_1  and  C_2
REMARK    2  A    between atoms: C_10  and  C_11
REMARK    3  A    between atoms: N_13  and  C_14
REMARK    4  A    between atoms: C_14  and  C_15
REMARK    5  A    between atoms: C_15  and  N_16
REMARK                            x       y       z     vdW  Elec       q    Type
REMARK                         _______ _______ _______ _____ _____    ______ ____
ROOT
ATOM      1  C   UNL     1       4.543   3.672  16.541  0.00  0.00    +0.000 C 
ATOM      2  O   UNL     1       3.399   3.751  16.134  0.00  0.00    +0.000 OA
ATOM      3  N   UNL     1       4.893   2.925  17.652  0.00  0.00    +0.000 N 
ATOM      4  H   UNL     1       5.873   2.912  17.923  0.00  0.00    +0.000 HD
ENDROOT
BRANCH   1  14
ATOM      5  C   UNL     1       6.565   5.699  17.873  0.00  0.00    +0.000 C 
ATOM      6  C   UNL     1       6.550   5.264  16.447  0.00  0.00    +0.000 A 
ATOM      7  N   UNL     1       7.460   5.734  15.585  0.00  0.00    +0.000 NA
ATOM      8  N   UNL     1       7.177   5.113  14.414  0.00  0.00    +0.000 N 
ATOM      9  C   UNL     1       7.865   5.241  13.211  0.00  0.00    +0.000 A 
ATOM     10  C   UNL     1       7.474   4.574  12.118  0.00  0.00    +0.000 A 
ATOM     11  C   UNL     1       6.271   3.727  12.340  0.00  0.00    +0.000 A 
ATOM     12  N   UNL     1       5.600   3.565  13.445  0.00  0.00    +0.000 NA
ATOM     13  C   UNL     1       6.057   4.274  14.525  0.00  0.00    +0.000 A 
ATOM     14  C   UNL     1       5.640   4.342  15.842  0.00  0.00    +0.000 A 
ENDBRANCH   1  14
BRANCH   3  15
ATOM     15  C   UNL     1       3.876   2.270  18.463  0.00  0.00    +0.000 C 
BRANCH  15  16
ATOM     16  C   UNL     1       3.990   2.591  19.984  0.00  0.00    +0.000 C 
BRANCH  16  17
ATOM     17  N   UNL     1       2.821   3.318  20.466  0.00  0.00    +0.000 N 
ATOM     18  C   UNL     1       2.609   4.671  20.141  0.00  0.00    +0.000 A 
ATOM     19  C   UNL     1       1.709   5.321  20.980  0.00  0.00    +0.000 A 
ATOM     20  C   UNL     1       1.482   6.670  20.825  0.00  0.00    +0.000 A 
ATOM     21  C   UNL     1       2.001   7.326  19.726  0.00  0.00    +0.000 A 
ATOM     22  C   UNL     1       1.520   8.606  19.494  0.00  0.00    +0.000 A 
ATOM     23  C   UNL     1       1.712   9.150  18.243  0.00  0.00    +0.000 A 
ATOM     24  C   UNL     1       2.773   8.740  17.470  0.00  0.00    +0.000 A 
ATOM     25  C   UNL     1       3.266   7.447  17.712  0.00  0.00    +0.000 A 
ATOM     26  C   UNL     1       2.848   6.649  18.823  0.00  0.00    +0.000 A 
ATOM     27  N   UNL     1       3.171   5.322  19.072  0.00  0.00    +0.000 NA
ATOM     28  H   UNL     1       2.526   3.077  21.407  0.00  0.00    +0.000 HD
ENDBRANCH  16  17
ENDBRANCH  15  16
ENDBRANCH   3  15
TORSDOF 4
ENDMDL
MODEL 9
REMARK VINA RESULT:      -8.2      8.265     11.863
REMARK  Name = 
REMARK  5 active torsions:
REMARK  status: ('A' for Active; 'I' for Inactive)
REMARK    1  A    between atoms: C_1  and  C_2
REMARK    2  A    between atoms: C_10  and  C_11
REMARK    3  A    between atoms: N_13  and  C_14
REMARK    4  A    between atoms: C_14  and  C_15
REMARK    5  A    between atoms: C_15  and  N_16
REMARK                            x       y       z     vdW  Elec       q    Type
REMARK                         _______ _______ _______ _____ _____    ______ ____
ROOT
ATOM      1  C   UNL     1      -0.099  10.832  19.352  0.00  0.00    +0.000 C 
ATOM      2  O   UNL     1       0.392  10.421  20.387  0.00  0.00    +0.000 OA
ATOM      3  N   UNL     1       0.573  10.808  18.142  0.00  0.00    +0.000 N 
ATOM      4  H   UNL     1       0.087  11.169  17.325  0.00  0.00    +0.000 HD
ENDROOT
BRANCH   1  14
ATOM      5  C   UNL     1      -1.413  12.625  21.594  0.00  0.00    +0.000 C 
ATOM      6  C   UNL     1      -2.064  12.151  20.339  0.00  0.00    +0.000 A 
ATOM      7  N   UNL     1      -3.330  12.485  20.063  0.00  0.00    +0.000 NA
ATOM      8  N   UNL     1      -3.578  11.926  18.854  0.00  0.00    +0.000 N 
ATOM      9  C   UNL     1      -4.753  12.015  18.114  0.00  0.00    +0.000 A 
ATOM     10  C   UNL     1      -4.871  11.404  16.929  0.00  0.00    +0.000 A 
ATOM     11  C   UNL     1      -3.653  10.653  16.526  0.00  0.00    +0.000 A 
ATOM     12  N   UNL     1      -2.527  10.548  17.174  0.00  0.00    +0.000 NA
ATOM     13  C   UNL     1      -2.473  11.200  18.378  0.00  0.00    +0.000 A 
ATOM     14  C   UNL     1      -1.470  11.344  19.319  0.00  0.00    +0.000 A 
ENDBRANCH   1  14
BRANCH   3  15
ATOM     15  C   UNL     1       1.963  10.381  18.069  0.00  0.00    +0.000 C 
BRANCH  15  16
ATOM     16  C   UNL     1       2.131   8.848  17.842  0.00  0.00    +0.000 C 
BRANCH  16  17
ATOM     17  N   UNL     1       2.233   8.129  19.108  0.00  0.00    +0.000 N 
ATOM     18  C   UNL     1       2.137   6.726  19.168  0.00  0.00    +0.000 A 
ATOM     19  C   UNL     1       1.845   6.231  20.435  0.00  0.00    +0.000 A 
ATOM     20  C   UNL     1       1.635   4.882  20.611  0.00  0.00    +0.000 A 
ATOM     21  C   UNL     1       1.900   4.011  19.572  0.00  0.00    +0.000 A 
ATOM     22  C   UNL     1       1.921   2.662  19.895  0.00  0.00    +0.000 A 
ATOM     23  C   UNL     1       2.530   1.797  19.013  0.00  0.00    +0.000 A 
ATOM     24  C   UNL     1       2.597   2.112  17.676  0.00  0.00    +0.000 A 
ATOM     25  C   UNL     1       2.566   3.479  17.349  0.00  0.00    +0.000 A 
ATOM     26  C   UNL     1       2.280   4.502  18.305  0.00  0.00    +0.000 A 
ATOM     27  N   UNL     1       2.356   5.875  18.114  0.00  0.00    +0.000 NA
ATOM     28  H   UNL     1       1.808   8.597  19.902  0.00  0.00    +0.000 HD
ENDBRANCH  16  17
ENDBRANCH  15  16
ENDBRANCH   3  15
TORSDOF 4
ENDMDL
