MODEL 1
REMARK VINA RESULT:      -9.2      0.000      0.000
REMARK  Name = 
REMARK  4 active torsions:
REMARK  status: ('A' for Active; 'I' for Inactive)
REMARK    1  A    between atoms: C_2  and  C_3
REMARK    2  A    between atoms: C_6  and  N_7
REMARK    3  A    between atoms: C_8  and  C_10
REMARK    4  A    between atoms: C_10  and  C_11
REMARK                            x       y       z     vdW  Elec       q    Type
REMARK                         _______ _______ _______ _____ _____    ______ ____
ROOT
ATOM      1  N   UNL     1       3.156   6.048  18.653  0.00  0.00    +0.000 N 
ATOM      2  C   UNL     1       2.620   4.894  18.103  0.00  0.00    +0.000 C 
ATOM      3  O   UNL     1       1.481   4.812  17.632  0.00  0.00    +0.000 OA
ATOM      4  H   UNL     1       4.090   5.980  19.038  0.00  0.00    +0.000 HD
ENDROOT
BRANCH   1   8
ATOM      5  C   UNL     1       1.101   9.706  19.213  0.00  0.00    +0.000 A 
ATOM      6  C   UNL     1       1.695   9.442  17.978  0.00  0.00    +0.000 A 
ATOM      7  C   UNL     1       2.399   8.243  17.781  0.00  0.00    +0.000 A 
ATOM      8  C   UNL     1       2.506   7.296  18.801  0.00  0.00    +0.000 A 
ATOM      9  C   UNL     1       1.914   7.573  20.036  0.00  0.00    +0.000 A 
ATOM     10  C   UNL     1       1.193   8.757  20.234  0.00  0.00    +0.000 A 
BRANCH   5  12
ATOM     11  O   UNL     1       0.694  11.809  20.137  0.00  0.00    +0.000 OA
ATOM     12  C   UNL     1       0.287  10.939  19.371  0.00  0.00    +0.000 C 
ATOM     13  N   UNL     1      -0.883  11.067  18.636  0.00  0.00    +0.000 N 
ATOM     14  C   UNL     1      -1.640  12.305  18.667  0.00  0.00    +0.000 C 
ATOM     15  C   UNL     1      -3.090  11.854  18.676  0.00  0.00    +0.000 C 
ATOM     16  C   UNL     1      -3.059  10.588  17.831  0.00  0.00    +0.000 C 
ATOM     17  C   UNL     1      -1.711   9.962  18.167  0.00  0.00    +0.000 C 
ENDBRANCH   5  12
ENDBRANCH   1   8
BRANCH   2  18
ATOM     18  C   UNL     1       3.579   3.643  18.112  0.00  0.00    +0.000 C 
ATOM     19  C   UNL     1       2.975   2.218  17.808  0.00  0.00    +0.000 C 
ATOM     20  C   UNL     1       3.803   1.666  18.983  0.00  0.00    +0.000 C 
ATOM     21  C   UNL     1       3.790   3.077  19.577  0.00  0.00    +0.000 C 
BRANCH  18  22
ATOM     22  C   UNL     1       4.909   4.054  17.286  0.00  0.00    +0.000 A 
ATOM     23  C   UNL     1       6.115   4.390  17.939  0.00  0.00    +0.000 A 
ATOM     24  C   UNL     1       7.286   4.703  17.240  0.00  0.00    +0.000 A 
ATOM     25  C   UNL     1       7.282   4.709  15.850  0.00  0.00    +0.000 A 
ATOM     26  C   UNL     1       6.104   4.420  15.180  0.00  0.00    +0.000 A 
ATOM     27  F   UNL     1       6.083   4.440  13.841  0.00  0.00    +0.000 F 
ATOM     28  C   UNL     1       4.938   4.104  15.877  0.00  0.00    +0.000 A 
ENDBRANCH  18  22
ENDBRANCH   2  18
TORSDOF 4
ENDMDL
MODEL 2
REMARK VINA RESULT:      -9.1      0.974      1.339
REMARK  Name = 
REMARK  4 active torsions:
REMARK  status: ('A' for Active; 'I' for Inactive)
REMARK    1  A    between atoms: C_2  and  C_3
REMARK    2  A    between atoms: C_6  and  N_7
REMARK    3  A    between atoms: C_8  and  C_10
REMARK    4  A    between atoms: C_10  and  C_11
REMARK                            x       y       z     vdW  Elec       q    Type
REMARK                         _______ _______ _______ _____ _____    ______ ____
ROOT
ATOM      1  N   UNL     1       3.070   5.989  18.621  0.00  0.00    +0.000 N 
ATOM      2  C   UNL     1       2.492   4.863  18.056  0.00  0.00    +0.000 C 
ATOM      3  O   UNL     1       1.347   4.829  17.592  0.00  0.00    +0.000 OA
ATOM      4  H   UNL     1       4.005   5.881  18.998  0.00  0.00    +0.000 HD
ENDROOT
BRANCH   1   8
ATOM      5  C   UNL     1       1.149   9.705  19.262  0.00  0.00    +0.000 A 
ATOM      6  C   UNL     1       1.709   9.436  18.012  0.00  0.00    +0.000 A 
ATOM      7  C   UNL     1       2.370   8.217  17.788  0.00  0.00    +0.000 A 
ATOM      8  C   UNL     1       2.466   7.255  18.795  0.00  0.00    +0.000 A 
ATOM      9  C   UNL     1       1.907   7.537  20.046  0.00  0.00    +0.000 A 
ATOM     10  C   UNL     1       1.230   8.742  20.270  0.00  0.00    +0.000 A 
BRANCH   5  12
ATOM     11  O   UNL     1       0.830  11.810  20.215  0.00  0.00    +0.000 OA
ATOM     12  C   UNL     1       0.379  10.962  19.449  0.00  0.00    +0.000 C 
ATOM     13  N   UNL     1      -0.801  11.135  18.740  0.00  0.00    +0.000 N 
ATOM     14  C   UNL     1      -1.517  12.397  18.800  0.00  0.00    +0.000 C 
ATOM     15  C   UNL     1      -2.980  11.994  18.835  0.00  0.00    +0.000 C 
ATOM     16  C   UNL     1      -3.008  10.737  17.977  0.00  0.00    +0.000 C 
ATOM     17  C   UNL     1      -1.674  10.063  18.278  0.00  0.00    +0.000 C 
ENDBRANCH   5  12
ENDBRANCH   1   8
BRANCH   2  18
ATOM     18  C   UNL     1       3.406   3.580  18.036  0.00  0.00    +0.000 C 
ATOM     19  C   UNL     1       2.785   2.208  17.567  0.00  0.00    +0.000 C 
ATOM     20  C   UNL     1       3.497   1.532  18.754  0.00  0.00    +0.000 C 
ATOM     21  C   UNL     1       3.480   2.890  19.461  0.00  0.00    +0.000 C 
BRANCH  18  22
ATOM     22  C   UNL     1       4.812   4.005  17.354  0.00  0.00    +0.000 A 
ATOM     23  C   UNL     1       4.963   4.088  15.952  0.00  0.00    +0.000 A 
ATOM     24  C   UNL     1       6.156   4.498  15.348  0.00  0.00    +0.000 A 
ATOM     25  C   UNL     1       7.255   4.824  16.136  0.00  0.00    +0.000 A 
ATOM     26  C   UNL     1       7.149   4.717  17.513  0.00  0.00    +0.000 A 
ATOM     27  F   UNL     1       8.206   5.012  18.282  0.00  0.00    +0.000 F 
ATOM     28  C   UNL     1       5.959   4.312  18.115  0.00  0.00    +0.000 A 
ENDBRANCH  18  22
ENDBRANCH   2  18
TORSDOF 4
ENDMDL
MODEL 3
REMARK VINA RESULT:      -9.0      1.139      1.744
REMARK  Name = 
REMARK  4 active torsions:
REMARK  status: ('A' for Active; 'I' for Inactive)
REMARK    1  A    between atoms: C_2  and  C_3
REMARK    2  A    between atoms: C_6  and  N_7
REMARK    3  A    between atoms: C_8  and  C_10
REMARK    4  A    between atoms: C_10  and  C_11
REMARK                            x       y       z     vdW  Elec       q    Type
REMARK                         _______ _______ _______ _____ _____    ______ ____
ROOT
ATOM      1  N   UNL     1       2.987   5.790  18.939  0.00  0.00    +0.000 N 
ATOM      2  C   UNL     1       2.459   4.738  18.207  0.00  0.00    +0.000 C 
ATOM      3  O   UNL     1       1.328   4.736  17.710  0.00  0.00    +0.000 OA
ATOM      4  H   UNL     1       3.915   5.659  19.325  0.00  0.00    +0.000 HD
ENDROOT
BRANCH   1   8
ATOM      5  C   UNL     1       1.153   9.503  19.818  0.00  0.00    +0.000 A 
ATOM      6  C   UNL     1       1.176   8.507  20.796  0.00  0.00    +0.000 A 
ATOM      7  C   UNL     1       1.760   7.261  20.514  0.00  0.00    +0.000 A 
ATOM      8  C   UNL     1       2.337   7.002  19.270  0.00  0.00    +0.000 A 
ATOM      9  C   UNL     1       2.303   8.003  18.294  0.00  0.00    +0.000 A 
ATOM     10  C   UNL     1       1.739   9.255  18.575  0.00  0.00    +0.000 A 
BRANCH   5  12
ATOM     11  O   UNL     1       1.154  11.471  21.069  0.00  0.00    +0.000 OA
ATOM     12  C   UNL     1       0.609  10.840  20.167  0.00  0.00    +0.000 C 
ATOM     13  N   UNL     1      -0.474  11.330  19.451  0.00  0.00    +0.000 N 
ATOM     14  C   UNL     1      -0.956  12.680  19.677  0.00  0.00    +0.000 C 
ATOM     15  C   UNL     1      -2.467  12.555  19.596  0.00  0.00    +0.000 C 
ATOM     16  C   UNL     1      -2.664  11.462  18.555  0.00  0.00    +0.000 C 
ATOM     17  C   UNL     1      -1.493  10.516  18.799  0.00  0.00    +0.000 C 
ENDBRANCH   5  12
ENDBRANCH   1   8
BRANCH   2  18
ATOM     18  C   UNL     1       3.416   3.498  18.036  0.00  0.00    +0.000 C 
ATOM     19  C   UNL     1       2.823   2.152  17.466  0.00  0.00    +0.000 C 
ATOM     20  C   UNL     1       3.604   1.398  18.559  0.00  0.00    +0.000 C 
ATOM     21  C   UNL     1       3.570   2.686  19.387  0.00  0.00    +0.000 C 
BRANCH  18  22
ATOM     22  C   UNL     1       4.777   4.036  17.344  0.00  0.00    +0.000 A 
ATOM     23  C   UNL     1       4.875   4.233  15.949  0.00  0.00    +0.000 A 
ATOM     24  C   UNL     1       6.028   4.740  15.340  0.00  0.00    +0.000 A 
ATOM     25  C   UNL     1       7.139   5.052  16.115  0.00  0.00    +0.000 A 
ATOM     26  C   UNL     1       7.088   4.834  17.482  0.00  0.00    +0.000 A 
ATOM     27  F   UNL     1       8.158   5.114  18.237  0.00  0.00    +0.000 F 
ATOM     28  C   UNL     1       5.937   4.332  18.089  0.00  0.00    +0.000 A 
ENDBRANCH  18  22
ENDBRANCH   2  18
TORSDOF 4
ENDMDL
MODEL 4
REMARK VINA RESULT:      -9.0      0.666      1.156
REMARK  Name = 
REMARK  4 active torsions:
REMARK  status: ('A' for Active; 'I' for Inactive)
REMARK    1  A    between atoms: C_2  and  C_3
REMARK    2  A    between atoms: C_6  and  N_7
REMARK    3  A    between atoms: C_8  and  C_10
REMARK    4  A    between atoms: C_10  and  C_11
REMARK                            x       y       z     vdW  Elec       q    Type
REMARK                         _______ _______ _______ _____ _____    ______ ____
ROOT
ATOM      1  N   UNL     1       3.002   5.744  19.074  0.00  0.00    +0.000 N 
ATOM      2  C   UNL     1       2.538   4.736  18.244  0.00  0.00    +0.000 C 
ATOM      3  O   UNL     1       1.461   4.772  17.642  0.00  0.00    +0.000 OA
ATOM      4  H   UNL     1       3.887   5.582  19.540  0.00  0.00    +0.000 HD
ENDROOT
BRANCH   1   8
ATOM      5  C   UNL     1       1.114   9.432  19.943  0.00  0.00    +0.000 A 
ATOM      6  C   UNL     1       1.123   8.428  20.912  0.00  0.00    +0.000 A 
ATOM      7  C   UNL     1       1.725   7.190  20.633  0.00  0.00    +0.000 A 
ATOM      8  C   UNL     1       2.333   6.948  19.401  0.00  0.00    +0.000 A 
ATOM      9  C   UNL     1       2.314   7.957  18.434  0.00  0.00    +0.000 A 
ATOM     10  C   UNL     1       1.732   9.201  18.712  0.00  0.00    +0.000 A 
BRANCH   5  12
ATOM     11  O   UNL     1       1.044  11.373  21.235  0.00  0.00    +0.000 OA
ATOM     12  C   UNL     1       0.550  10.762  20.290  0.00  0.00    +0.000 C 
ATOM     13  N   UNL     1      -0.492  11.267  19.527  0.00  0.00    +0.000 N 
ATOM     14  C   UNL     1      -0.988  12.612  19.756  0.00  0.00    +0.000 C 
ATOM     15  C   UNL     1      -2.492  12.488  19.589  0.00  0.00    +0.000 C 
ATOM     16  C   UNL     1      -2.630  11.418  18.516  0.00  0.00    +0.000 C 
ATOM     17  C   UNL     1      -1.473  10.467  18.802  0.00  0.00    +0.000 C 
ENDBRANCH   5  12
ENDBRANCH   1   8
BRANCH   2  18
ATOM     18  C   UNL     1       3.496   3.492  18.105  0.00  0.00    +0.000 C 
ATOM     19  C   UNL     1       2.890   2.111  17.645  0.00  0.00    +0.000 C 
ATOM     20  C   UNL     1       3.725   1.429  18.745  0.00  0.00    +0.000 C 
ATOM     21  C   UNL     1       3.717   2.764  19.495  0.00  0.00    +0.000 C 
BRANCH  18  22
ATOM     22  C   UNL     1       4.821   3.995  17.322  0.00  0.00    +0.000 A 
ATOM     23  C   UNL     1       6.007   4.334  18.010  0.00  0.00    +0.000 A 
ATOM     24  C   UNL     1       7.175   4.726  17.346  0.00  0.00    +0.000 A 
ATOM     25  C   UNL     1       7.187   4.810  15.959  0.00  0.00    +0.000 A 
ATOM     26  C   UNL     1       6.028   4.521  15.257  0.00  0.00    +0.000 A 
ATOM     27  F   UNL     1       6.022   4.616  13.921  0.00  0.00    +0.000 F 
ATOM     28  C   UNL     1       4.865   4.126  15.919  0.00  0.00    +0.000 A 
ENDBRANCH  18  22
ENDBRANCH   2  18
TORSDOF 4
ENDMDL
MODEL 5
REMARK VINA RESULT:      -8.8      1.272      1.874
REMARK  Name = 
REMARK  4 active torsions:
REMARK  status: ('A' for Active; 'I' for Inactive)
REMARK    1  A    between atoms: C_2  and  C_3
REMARK    2  A    between atoms: C_6  and  N_7
REMARK    3  A    between atoms: C_8  and  C_10
REMARK    4  A    between atoms: C_10  and  C_11
REMARK                            x       y       z     vdW  Elec       q    Type
REMARK                         _______ _______ _______ _____ _____    ______ ____
ROOT
ATOM      1  N   UNL     1       3.096   6.100  18.698  0.00  0.00    +0.000 N 
ATOM      2  C   UNL     1       2.605   4.924  18.153  0.00  0.00    +0.000 C 
ATOM      3  O   UNL     1       1.479   4.805  17.659  0.00  0.00    +0.000 OA
ATOM      4  H   UNL     1       4.024   6.063  19.104  0.00  0.00    +0.000 HD
ENDROOT
BRANCH   1   8
ATOM      5  C   UNL     1       0.943   9.712  19.182  0.00  0.00    +0.000 A 
ATOM      6  C   UNL     1       1.443   9.381  17.921  0.00  0.00    +0.000 A 
ATOM      7  C   UNL     1       2.178   8.198  17.746  0.00  0.00    +0.000 A 
ATOM      8  C   UNL     1       2.409   7.331  18.815  0.00  0.00    +0.000 A 
ATOM      9  C   UNL     1       1.911   7.674  20.076  0.00  0.00    +0.000 A 
ATOM     10  C   UNL     1       1.160   8.842  20.253  0.00  0.00    +0.000 A 
BRANCH   5  12
ATOM     11  O   UNL     1      -1.126  10.777  19.339  0.00  0.00    +0.000 OA
ATOM     12  C   UNL     1       0.094  10.923  19.324  0.00  0.00    +0.000 C 
ATOM     13  N   UNL     1       0.709  12.160  19.454  0.00  0.00    +0.000 N 
ATOM     14  C   UNL     1      -0.080  13.349  19.719  0.00  0.00    +0.000 C 
ATOM     15  C   UNL     1       0.582  14.429  18.881  0.00  0.00    +0.000 C 
ATOM     16  C   UNL     1       2.052  14.036  18.917  0.00  0.00    +0.000 C 
ATOM     17  C   UNL     1       2.019  12.512  18.921  0.00  0.00    +0.000 C 
ENDBRANCH   5  12
ENDBRANCH   1   8
BRANCH   2  18
ATOM     18  C   UNL     1       3.597   3.700  18.198  0.00  0.00    +0.000 C 
ATOM     19  C   UNL     1       3.026   2.248  17.975  0.00  0.00    +0.000 C 
ATOM     20  C   UNL     1       3.894   1.774  19.156  0.00  0.00    +0.000 C 
ATOM     21  C   UNL     1       3.855   3.211  19.683  0.00  0.00    +0.000 C 
BRANCH  18  22
ATOM     22  C   UNL     1       4.897   4.107  17.323  0.00  0.00    +0.000 A 
ATOM     23  C   UNL     1       6.124   4.453  17.932  0.00  0.00    +0.000 A 
ATOM     24  C   UNL     1       7.269   4.762  17.190  0.00  0.00    +0.000 A 
ATOM     25  C   UNL     1       7.218   4.753  15.801  0.00  0.00    +0.000 A 
ATOM     26  C   UNL     1       6.019   4.454  15.174  0.00  0.00    +0.000 A 
ATOM     27  F   UNL     1       5.952   4.459  13.837  0.00  0.00    +0.000 F 
ATOM     28  C   UNL     1       4.878   4.142  15.913  0.00  0.00    +0.000 A 
ENDBRANCH  18  22
ENDBRANCH   2  18
TORSDOF 4
ENDMDL
MODEL 6
REMARK VINA RESULT:      -8.8      1.630      2.316
REMARK  Name = 
REMARK  4 active torsions:
REMARK  status: ('A' for Active; 'I' for Inactive)
REMARK    1  A    between atoms: C_2  and  C_3
REMARK    2  A    between atoms: C_6  and  N_7
REMARK    3  A    between atoms: C_8  and  C_10
REMARK    4  A    between atoms: C_10  and  C_11
REMARK                            x       y       z     vdW  Elec       q    Type
REMARK                         _______ _______ _______ _____ _____    ______ ____
ROOT
ATOM      1  N   UNL     1       2.985   6.021  18.655  0.00  0.00    +0.000 N 
ATOM      2  C   UNL     1       2.444   4.879  18.085  0.00  0.00    +0.000 C 
ATOM      3  O   UNL     1       1.310   4.815  17.600  0.00  0.00    +0.000 OA
ATOM      4  H   UNL     1       3.914   5.938  19.051  0.00  0.00    +0.000 HD
ENDROOT
BRANCH   1   8
ATOM      5  C   UNL     1       0.981   9.701  19.256  0.00  0.00    +0.000 A 
ATOM      6  C   UNL     1       1.410   9.362  17.972  0.00  0.00    +0.000 A 
ATOM      7  C   UNL     1       2.096   8.155  17.758  0.00  0.00    +0.000 A 
ATOM      8  C   UNL     1       2.347   7.274  18.810  0.00  0.00    +0.000 A 
ATOM      9  C   UNL     1       1.919   7.625  20.094  0.00  0.00    +0.000 A 
ATOM     10  C   UNL     1       1.217   8.818  20.312  0.00  0.00    +0.000 A 
BRANCH   5  12
ATOM     11  O   UNL     1      -1.034  10.829  19.583  0.00  0.00    +0.000 OA
ATOM     12  C   UNL     1       0.182  10.939  19.444  0.00  0.00    +0.000 C 
ATOM     13  N   UNL     1       0.838  12.161  19.474  0.00  0.00    +0.000 N 
ATOM     14  C   UNL     1       0.109  13.379  19.778  0.00  0.00    +0.000 C 
ATOM     15  C   UNL     1       0.711  14.416  18.846  0.00  0.00    +0.000 C 
ATOM     16  C   UNL     1       2.167  13.983  18.749  0.00  0.00    +0.000 C 
ATOM     17  C   UNL     1       2.097  12.461  18.804  0.00  0.00    +0.000 C 
ENDBRANCH   5  12
ENDBRANCH   1   8
BRANCH   2  18
ATOM     18  C   UNL     1       3.389   3.618  18.090  0.00  0.00    +0.000 C 
ATOM     19  C   UNL     1       2.799   2.222  17.655  0.00  0.00    +0.000 C 
ATOM     20  C   UNL     1       3.531   1.590  18.854  0.00  0.00    +0.000 C 
ATOM     21  C   UNL     1       3.485   2.963  19.530  0.00  0.00    +0.000 C 
BRANCH  18  22
ATOM     22  C   UNL     1       4.781   4.062  17.393  0.00  0.00    +0.000 A 
ATOM     23  C   UNL     1       4.905   4.181  15.991  0.00  0.00    +0.000 A 
ATOM     24  C   UNL     1       6.087   4.608  15.374  0.00  0.00    +0.000 A 
ATOM     25  C   UNL     1       7.200   4.912  16.149  0.00  0.00    +0.000 A 
ATOM     26  C   UNL     1       7.122   4.768  17.524  0.00  0.00    +0.000 A 
ATOM     27  F   UNL     1       8.194   5.042  18.280  0.00  0.00    +0.000 F 
ATOM     28  C   UNL     1       5.943   4.347  18.139  0.00  0.00    +0.000 A 
ENDBRANCH  18  22
ENDBRANCH   2  18
TORSDOF 4
ENDMDL
MODEL 7
REMARK VINA RESULT:      -8.6      1.911      3.258
REMARK  Name = 
REMARK  4 active torsions:
REMARK  status: ('A' for Active; 'I' for Inactive)
REMARK    1  A    between atoms: C_2  and  C_3
REMARK    2  A    between atoms: C_6  and  N_7
REMARK    3  A    between atoms: C_8  and  C_10
REMARK    4  A    between atoms: C_10  and  C_11
REMARK                            x       y       z     vdW  Elec       q    Type
REMARK                         _______ _______ _______ _____ _____    ______ ____
ROOT
ATOM      1  N   UNL     1       3.352   6.387  17.915  0.00  0.00    +0.000 N 
ATOM      2  C   UNL     1       4.664   6.363  17.470  0.00  0.00    +0.000 C 
ATOM      3  O   UNL     1       5.408   7.349  17.449  0.00  0.00    +0.000 OA
ATOM      4  H   UNL     1       2.832   5.519  17.851  0.00  0.00    +0.000 HD
ENDROOT
BRANCH   1   8
ATOM      5  C   UNL     1       1.113   9.650  19.417  0.00  0.00    +0.000 A 
ATOM      6  C   UNL     1       1.596   9.701  18.108  0.00  0.00    +0.000 A 
ATOM      7  C   UNL     1       2.359   8.637  17.601  0.00  0.00    +0.000 A 
ATOM      8  C   UNL     1       2.635   7.513  18.381  0.00  0.00    +0.000 A 
ATOM      9  C   UNL     1       2.153   7.474  19.693  0.00  0.00    +0.000 A 
ATOM     10  C   UNL     1       1.375   8.523  20.199  0.00  0.00    +0.000 A 
BRANCH   5  12
ATOM     11  O   UNL     1       0.491  11.256  20.991  0.00  0.00    +0.000 OA
ATOM     12  C   UNL     1       0.235  10.745  19.903  0.00  0.00    +0.000 C 
ATOM     13  N   UNL     1      -0.822  11.160  19.104  0.00  0.00    +0.000 N 
ATOM     14  C   UNL     1      -1.626  12.306  19.486  0.00  0.00    +0.000 C 
ATOM     15  C   UNL     1      -3.042  11.910  19.109  0.00  0.00    +0.000 C 
ATOM     16  C   UNL     1      -2.838  11.055  17.865  0.00  0.00    +0.000 C 
ATOM     17  C   UNL     1      -1.527  10.327  18.138  0.00  0.00    +0.000 C 
ENDBRANCH   5  12
ENDBRANCH   1   8
BRANCH   2  18
ATOM     18  C   UNL     1       5.176   4.958  16.973  0.00  0.00    +0.000 C 
ATOM     19  C   UNL     1       6.729   4.708  16.866  0.00  0.00    +0.000 C 
ATOM     20  C   UNL     1       6.482   4.036  15.502  0.00  0.00    +0.000 C 
ATOM     21  C   UNL     1       5.203   4.871  15.391  0.00  0.00    +0.000 C 
BRANCH  18  22
ATOM     22  C   UNL     1       4.316   3.832  17.755  0.00  0.00    +0.000 A 
ATOM     23  C   UNL     1       3.181   3.225  17.172  0.00  0.00    +0.000 A 
ATOM     24  C   UNL     1       2.454   2.218  17.816  0.00  0.00    +0.000 A 
ATOM     25  C   UNL     1       2.831   1.794  19.085  0.00  0.00    +0.000 A 
ATOM     26  C   UNL     1       3.917   2.397  19.699  0.00  0.00    +0.000 A 
ATOM     27  F   UNL     1       4.280   2.010  20.929  0.00  0.00    +0.000 F 
ATOM     28  C   UNL     1       4.645   3.398  19.056  0.00  0.00    +0.000 A 
ENDBRANCH  18  22
ENDBRANCH   2  18
TORSDOF 4
ENDMDL
MODEL 8
REMARK VINA RESULT:      -8.6      1.380      1.707
REMARK  Name = 
REMARK  4 active torsions:
REMARK  status: ('A' for Active; 'I' for Inactive)
REMARK    1  A    between atoms: C_2  and  C_3
REMARK    2  A    between atoms: C_6  and  N_7
REMARK    3  A    between atoms: C_8  and  C_10
REMARK    4  A    between atoms: C_10  and  C_11
REMARK                            x       y       z     vdW  Elec       q    Type
REMARK                         _______ _______ _______ _____ _____    ______ ____
ROOT
ATOM      1  N   UNL     1       3.103   5.991  18.772  0.00  0.00    +0.000 N 
ATOM      2  C   UNL     1       2.592   4.860  18.155  0.00  0.00    +0.000 C 
ATOM      3  O   UNL     1       1.466   4.793  17.651  0.00  0.00    +0.000 OA
ATOM      4  H   UNL     1       4.028   5.911  19.178  0.00  0.00    +0.000 HD
ENDROOT
BRANCH   1   8
ATOM      5  C   UNL     1       1.018   9.609  19.466  0.00  0.00    +0.000 A 
ATOM      6  C   UNL     1       1.517   9.346  18.189  0.00  0.00    +0.000 A 
ATOM      7  C   UNL     1       2.230   8.161  17.946  0.00  0.00    +0.000 A 
ATOM      8  C   UNL     1       2.440   7.226  18.961  0.00  0.00    +0.000 A 
ATOM      9  C   UNL     1       1.942   7.502  20.238  0.00  0.00    +0.000 A 
ATOM     10  C   UNL     1       1.213   8.672  20.483  0.00  0.00    +0.000 A 
BRANCH   5  12
ATOM     11  O   UNL     1       0.238  11.714  18.830  0.00  0.00    +0.000 OA
ATOM     12  C   UNL     1       0.192  10.825  19.678  0.00  0.00    +0.000 C 
ATOM     13  N   UNL     1      -0.610  10.901  20.808  0.00  0.00    +0.000 N 
ATOM     14  C   UNL     1      -1.523  12.015  20.989  0.00  0.00    +0.000 C 
ATOM     15  C   UNL     1      -1.440  12.327  22.472  0.00  0.00    +0.000 C 
ATOM     16  C   UNL     1      -1.215  10.958  23.097  0.00  0.00    +0.000 C 
ATOM     17  C   UNL     1      -0.347  10.232  22.076  0.00  0.00    +0.000 C 
ENDBRANCH   5  12
ENDBRANCH   1   8
BRANCH   2  18
ATOM     18  C   UNL     1       3.560   3.617  18.131  0.00  0.00    +0.000 C 
ATOM     19  C   UNL     1       2.964   2.194  17.807  0.00  0.00    +0.000 C 
ATOM     20  C   UNL     1       3.810   1.627  18.963  0.00  0.00    +0.000 C 
ATOM     21  C   UNL     1       3.793   3.027  19.582  0.00  0.00    +0.000 C 
BRANCH  18  22
ATOM     22  C   UNL     1       4.877   4.054  17.296  0.00  0.00    +0.000 A 
ATOM     23  C   UNL     1       6.094   4.370  17.940  0.00  0.00    +0.000 A 
ATOM     24  C   UNL     1       7.253   4.704  17.233  0.00  0.00    +0.000 A 
ATOM     25  C   UNL     1       7.227   4.752  15.844  0.00  0.00    +0.000 A 
ATOM     26  C   UNL     1       6.039   4.485  15.184  0.00  0.00    +0.000 A 
ATOM     27  F   UNL     1       5.996   4.545  13.847  0.00  0.00    +0.000 F 
ATOM     28  C   UNL     1       4.884   4.147  15.889  0.00  0.00    +0.000 A 
ENDBRANCH  18  22
ENDBRANCH   2  18
TORSDOF 4
ENDMDL
MODEL 9
REMARK VINA RESULT:      -8.5      0.981      1.024
REMARK  Name = 
REMARK  4 active torsions:
REMARK  status: ('A' for Active; 'I' for Inactive)
REMARK    1  A    between atoms: C_2  and  C_3
REMARK    2  A    between atoms: C_6  and  N_7
REMARK    3  A    between atoms: C_8  and  C_10
REMARK    4  A    between atoms: C_10  and  C_11
REMARK                            x       y       z     vdW  Elec       q    Type
REMARK                         _______ _______ _______ _____ _____    ______ ____
ROOT
ATOM      1  N   UNL     1       2.664   6.044  18.218  0.00  0.00    +0.000 N 
ATOM      2  C   UNL     1       3.446   5.139  18.920  0.00  0.00    +0.000 C 
ATOM      3  O   UNL     1       3.856   5.321  20.071  0.00  0.00    +0.000 OA
ATOM      4  H   UNL     1       2.419   5.795  17.267  0.00  0.00    +0.000 HD
ENDROOT
BRANCH   1   8
ATOM      5  C   UNL     1       1.266   9.768  19.666  0.00  0.00    +0.000 A 
ATOM      6  C   UNL     1       1.700   9.672  18.342  0.00  0.00    +0.000 A 
ATOM      7  C   UNL     1       2.187   8.450  17.852  0.00  0.00    +0.000 A 
ATOM      8  C   UNL     1       2.234   7.316  18.664  0.00  0.00    +0.000 A 
ATOM      9  C   UNL     1       1.804   7.423  19.990  0.00  0.00    +0.000 A 
ATOM     10  C   UNL     1       1.298   8.634  20.480  0.00  0.00    +0.000 A 
BRANCH   5  12
ATOM     11  O   UNL     1       1.231  11.641  21.055  0.00  0.00    +0.000 OA
ATOM     12  C   UNL     1       0.673  11.046  20.137  0.00  0.00    +0.000 C 
ATOM     13  N   UNL     1      -0.470  11.523  19.512  0.00  0.00    +0.000 N 
ATOM     14  C   UNL     1      -1.009  12.826  19.859  0.00  0.00    +0.000 C 
ATOM     15  C   UNL     1      -2.514  12.623  19.842  0.00  0.00    +0.000 C 
ATOM     16  C   UNL     1      -2.708  11.595  18.736  0.00  0.00    +0.000 C 
ATOM     17  C   UNL     1      -1.478  10.702  18.853  0.00  0.00    +0.000 C 
ENDBRANCH   5  12
ENDBRANCH   1   8
BRANCH   2  18
ATOM     18  C   UNL     1       3.797   3.815  18.141  0.00  0.00    +0.000 C 
ATOM     19  C   UNL     1       2.622   2.942  17.555  0.00  0.00    +0.000 C 
ATOM     20  C   UNL     1       3.346   1.691  18.088  0.00  0.00    +0.000 C 
ATOM     21  C   UNL     1       4.015   2.595  19.127  0.00  0.00    +0.000 C 
BRANCH  18  22
ATOM     22  C   UNL     1       5.010   4.164  17.127  0.00  0.00    +0.000 A 
ATOM     23  C   UNL     1       6.273   4.589  17.598  0.00  0.00    +0.000 A 
ATOM     24  C   UNL     1       7.346   4.851  16.739  0.00  0.00    +0.000 A 
ATOM     25  C   UNL     1       7.182   4.712  15.365  0.00  0.00    +0.000 A 
ATOM     26  C   UNL     1       5.945   4.333  14.870  0.00  0.00    +0.000 A 
ATOM     27  F   UNL     1       5.770   4.213  13.548  0.00  0.00    +0.000 F 
ATOM     28  C   UNL     1       4.876   4.068  15.727  0.00  0.00    +0.000 A 
ENDBRANCH  18  22
ENDBRANCH   2  18
TORSDOF 4
ENDMDL
