MODEL 1
REMARK VINA RESULT:      -8.6      0.000      0.000
REMARK  Name = 
REMARK  4 active torsions:
REMARK  status: ('A' for Active; 'I' for Inactive)
REMARK    1  A    between atoms: C_2  and  C_3
REMARK    2  A    between atoms: C_3  and  N_4
REMARK    3  A    between atoms: C_5  and  C_7
REMARK    4  A    between atoms: N_15  and  C_16
REMARK                            x       y       z     vdW  Elec       q    Type
REMARK                         _______ _______ _______ _____ _____    ______ ____
ROOT
ATOM      1  O   UNL     1       1.683   4.709  17.775  0.00  0.00    +0.000 OA
ATOM      2  C   UNL     1       2.848   4.979  18.068  0.00  0.00    +0.000 C 
ATOM      3  N   UNL     1       3.317   6.222  18.474  0.00  0.00    +0.000 N 
ATOM      4  H   UNL     1       4.317   6.381  18.363  0.00  0.00    +0.000 HD
ENDROOT
BRANCH   3   5
ATOM      5  C   UNL     1       2.507   7.339  18.792  0.00  0.00    +0.000 A 
ATOM      6  C   UNL     1       2.186   8.324  17.859  0.00  0.00    +0.000 A 
ATOM      7  C   UNL     1       1.447   9.453  18.236  0.00  0.00    +0.000 A 
ATOM      8  C   UNL     1       0.994   9.632  19.529  0.00  0.00    +0.000 A 
ATOM      9  N   UNL     1       0.326  10.758  19.839  0.00  0.00    +0.000 NA
ATOM     10  C   UNL     1      -0.101  10.913  21.110  0.00  0.00    +0.000 A 
ATOM     11  C   UNL     1       0.091   9.972  22.102  0.00  0.00    +0.000 A 
ATOM     12  C   UNL     1       0.776   8.805  21.775  0.00  0.00    +0.000 A 
ATOM     13  C   UNL     1       1.259   8.615  20.470  0.00  0.00    +0.000 A 
ATOM     14  C   UNL     1       2.001   7.468  20.091  0.00  0.00    +0.000 A 
ENDBRANCH   3   5
BRANCH   2  15
ATOM     15  C   UNL     1       3.938   3.919  17.898  0.00  0.00    +0.000 C 
BRANCH  15  16
ATOM     16  N   UNL     1       4.465   3.892  16.544  0.00  0.00    +0.000 N 
ATOM     17  C   UNL     1       5.499   4.720  16.182  0.00  0.00    +0.000 C 
ATOM     18  O   UNL     1       5.986   5.541  16.957  0.00  0.00    +0.000 OA
ATOM     19  H   UNL     1       4.063   3.224  15.898  0.00  0.00    +0.000 HD
BRANCH  17  20
ATOM     20  C   UNL     1       6.040   4.583  14.803  0.00  0.00    +0.000 A 
ATOM     21  C   UNL     1       7.182   5.268  14.379  0.00  0.00    +0.000 A 
ATOM     22  C   UNL     1       7.667   5.057  13.090  0.00  0.00    +0.000 A 
ATOM     23  F   UNL     1       8.773   5.701  12.694  0.00  0.00    +0.000 F 
ATOM     24  C   UNL     1       7.034   4.189  12.210  0.00  0.00    +0.000 A 
ATOM     25  C   UNL     1       5.901   3.514  12.640  0.00  0.00    +0.000 A 
ATOM     26  F   UNL     1       5.283   2.669  11.806  0.00  0.00    +0.000 F 
ATOM     27  C   UNL     1       5.398   3.699  13.924  0.00  0.00    +0.000 A 
ENDBRANCH  17  20
ENDBRANCH  15  16
ENDBRANCH   2  15
TORSDOF 4
ENDMDL
MODEL 2
REMARK VINA RESULT:      -8.3      1.924      2.914
REMARK  Name = 
REMARK  4 active torsions:
REMARK  status: ('A' for Active; 'I' for Inactive)
REMARK    1  A    between atoms: C_2  and  C_3
REMARK    2  A    between atoms: C_3  and  N_4
REMARK    3  A    between atoms: C_5  and  C_7
REMARK    4  A    between atoms: N_15  and  C_16
REMARK                            x       y       z     vdW  Elec       q    Type
REMARK                         _______ _______ _______ _____ _____    ______ ____
ROOT
ATOM      1  O   UNL     1       0.822   4.998  20.538  0.00  0.00    +0.000 OA
ATOM      2  C   UNL     1       1.997   5.336  20.397  0.00  0.00    +0.000 C 
ATOM      3  N   UNL     1       2.452   6.634  20.209  0.00  0.00    +0.000 N 
ATOM      4  H   UNL     1       3.374   6.728  19.785  0.00  0.00    +0.000 HD
ENDROOT
BRANCH   3   5
ATOM      5  C   UNL     1       1.664   7.804  20.329  0.00  0.00    +0.000 A 
ATOM      6  C   UNL     1       1.514   8.720  19.288  0.00  0.00    +0.000 A 
ATOM      7  C   UNL     1       0.789   9.903  19.474  0.00  0.00    +0.000 A 
ATOM      8  C   UNL     1       0.182  10.207  20.678  0.00  0.00    +0.000 A 
ATOM      9  N   UNL     1      -0.464  11.380  20.808  0.00  0.00    +0.000 NA
ATOM     10  C   UNL     1      -1.044  11.656  21.995  0.00  0.00    +0.000 A 
ATOM     11  C   UNL     1      -1.028  10.795  23.074  0.00  0.00    +0.000 A 
ATOM     12  C   UNL     1      -0.364   9.579  22.933  0.00  0.00    +0.000 A 
ATOM     13  C   UNL     1       0.273   9.262  21.722  0.00  0.00    +0.000 A 
ATOM     14  C   UNL     1       1.001   8.060  21.535  0.00  0.00    +0.000 A 
ENDBRANCH   3   5
BRANCH   2  15
ATOM     15  C   UNL     1       3.088   4.267  20.314  0.00  0.00    +0.000 C 
BRANCH  15  16
ATOM     16  N   UNL     1       4.096   4.592  19.319  0.00  0.00    +0.000 N 
ATOM     17  C   UNL     1       4.260   3.799  18.210  0.00  0.00    +0.000 C 
ATOM     18  O   UNL     1       3.610   2.771  18.034  0.00  0.00    +0.000 OA
ATOM     19  H   UNL     1       4.641   5.433  19.462  0.00  0.00    +0.000 HD
BRANCH  17  20
ATOM     20  C   UNL     1       5.257   4.235  17.194  0.00  0.00    +0.000 A 
ATOM     21  C   UNL     1       5.355   3.628  15.939  0.00  0.00    +0.000 A 
ATOM     22  C   UNL     1       6.275   4.117  15.013  0.00  0.00    +0.000 A 
ATOM     23  F   UNL     1       6.353   3.544  13.805  0.00  0.00    +0.000 F 
ATOM     24  C   UNL     1       7.107   5.187  15.313  0.00  0.00    +0.000 A 
ATOM     25  C   UNL     1       7.001   5.783  16.562  0.00  0.00    +0.000 A 
ATOM     26  F   UNL     1       7.791   6.821  16.864  0.00  0.00    +0.000 F 
ATOM     27  C   UNL     1       6.087   5.322  17.504  0.00  0.00    +0.000 A 
ENDBRANCH  17  20
ENDBRANCH  15  16
ENDBRANCH   2  15
TORSDOF 4
ENDMDL
MODEL 3
REMARK VINA RESULT:      -8.0      6.588      7.706
REMARK  Name = 
REMARK  4 active torsions:
REMARK  status: ('A' for Active; 'I' for Inactive)
REMARK    1  A    between atoms: C_2  and  C_3
REMARK    2  A    between atoms: C_3  and  N_4
REMARK    3  A    between atoms: C_5  and  C_7
REMARK    4  A    between atoms: N_15  and  C_16
REMARK                            x       y       z     vdW  Elec       q    Type
REMARK                         _______ _______ _______ _____ _____    ______ ____
ROOT
ATOM      1  O   UNL     1       7.427   8.913  17.315  0.00  0.00    +0.000 OA
ATOM      2  C   UNL     1       8.095   8.328  18.168  0.00  0.00    +0.000 C 
ATOM      3  N   UNL     1       9.068   8.902  18.975  0.00  0.00    +0.000 N 
ATOM      4  H   UNL     1       9.749   8.262  19.380  0.00  0.00    +0.000 HD
ENDROOT
BRANCH   3   5
ATOM      5  C   UNL     1       9.329  10.289  19.081  0.00  0.00    +0.000 A 
ATOM      6  C   UNL     1       9.688  11.073  17.985  0.00  0.00    +0.000 A 
ATOM      7  C   UNL     1      10.013  12.426  18.147  0.00  0.00    +0.000 A 
ATOM      8  C   UNL     1       9.980  13.042  19.383  0.00  0.00    +0.000 A 
ATOM      9  N   UNL     1      10.346  14.333  19.481  0.00  0.00    +0.000 NA
ATOM     10  C   UNL     1      10.309  14.912  20.700  0.00  0.00    +0.000 A 
ATOM     11  C   UNL     1       9.899  14.260  21.845  0.00  0.00    +0.000 A 
ATOM     12  C   UNL     1       9.515  12.926  21.738  0.00  0.00    +0.000 A 
ATOM     13  C   UNL     1       9.560  12.279  20.492  0.00  0.00    +0.000 A 
ATOM     14  C   UNL     1       9.223  10.911  20.331  0.00  0.00    +0.000 A 
ENDBRANCH   3   5
BRANCH   2  15
ATOM     15  C   UNL     1       7.955   6.813  18.332  0.00  0.00    +0.000 C 
BRANCH  15  16
ATOM     16  N   UNL     1       6.586   6.367  18.133  0.00  0.00    +0.000 N 
ATOM     17  C   UNL     1       6.024   5.445  18.982  0.00  0.00    +0.000 C 
ATOM     18  O   UNL     1       6.654   4.928  19.902  0.00  0.00    +0.000 OA
ATOM     19  H   UNL     1       6.064   6.782  17.372  0.00  0.00    +0.000 HD
BRANCH  17  20
ATOM     20  C   UNL     1       4.595   5.093  18.765  0.00  0.00    +0.000 A 
ATOM     21  C   UNL     1       4.175   4.319  17.680  0.00  0.00    +0.000 A 
ATOM     22  C   UNL     1       2.828   3.982  17.561  0.00  0.00    +0.000 A 
ATOM     23  F   UNL     1       2.432   3.224  16.530  0.00  0.00    +0.000 F 
ATOM     24  C   UNL     1       1.889   4.407  18.492  0.00  0.00    +0.000 A 
ATOM     25  C   UNL     1       2.316   5.175  19.565  0.00  0.00    +0.000 A 
ATOM     26  F   UNL     1       1.424   5.587  20.475  0.00  0.00    +0.000 F 
ATOM     27  C   UNL     1       3.655   5.521  19.714  0.00  0.00    +0.000 A 
ENDBRANCH  17  20
ENDBRANCH  15  16
ENDBRANCH   2  15
TORSDOF 4
ENDMDL
MODEL 4
REMARK VINA RESULT:      -8.0      5.104      9.156
REMARK  Name = 
REMARK  4 active torsions:
REMARK  status: ('A' for Active; 'I' for Inactive)
REMARK    1  A    between atoms: C_2  and  C_3
REMARK    2  A    between atoms: C_3  and  N_4
REMARK    3  A    between atoms: C_5  and  C_7
REMARK    4  A    between atoms: N_15  and  C_16
REMARK                            x       y       z     vdW  Elec       q    Type
REMARK                         _______ _______ _______ _____ _____    ______ ____
ROOT
ATOM      1  O   UNL     1       1.660   8.389  20.014  0.00  0.00    +0.000 OA
ATOM      2  C   UNL     1       1.926   8.870  18.913  0.00  0.00    +0.000 C 
ATOM      3  N   UNL     1       2.634   8.238  17.899  0.00  0.00    +0.000 N 
ATOM      4  H   UNL     1       3.056   8.848  17.201  0.00  0.00    +0.000 HD
ENDROOT
BRANCH   3   5
ATOM      5  C   UNL     1       3.013   6.875  17.892  0.00  0.00    +0.000 A 
ATOM      6  C   UNL     1       4.295   6.452  17.543  0.00  0.00    +0.000 A 
ATOM      7  C   UNL     1       4.606   5.087  17.474  0.00  0.00    +0.000 A 
ATOM      8  C   UNL     1       3.672   4.110  17.760  0.00  0.00    +0.000 A 
ATOM      9  N   UNL     1       4.019   2.817  17.634  0.00  0.00    +0.000 NA
ATOM     10  C   UNL     1       3.088   1.880  17.914  0.00  0.00    +0.000 A 
ATOM     11  C   UNL     1       1.809   2.176  18.342  0.00  0.00    +0.000 A 
ATOM     12  C   UNL     1       1.457   3.516  18.478  0.00  0.00    +0.000 A 
ATOM     13  C   UNL     1       2.388   4.523  18.174  0.00  0.00    +0.000 A 
ATOM     14  C   UNL     1       2.072   5.902  18.252  0.00  0.00    +0.000 A 
ENDBRANCH   3   5
BRANCH   2  15
ATOM     15  C   UNL     1       1.554  10.323  18.610  0.00  0.00    +0.000 C 
BRANCH  15  16
ATOM     16  N   UNL     1       0.286  10.427  17.908  0.00  0.00    +0.000 N 
ATOM     17  C   UNL     1      -0.883  10.616  18.605  0.00  0.00    +0.000 C 
ATOM     18  O   UNL     1      -0.916  10.658  19.833  0.00  0.00    +0.000 OA
ATOM     19  H   UNL     1       0.306  10.385  16.897  0.00  0.00    +0.000 HD
BRANCH  17  20
ATOM     20  C   UNL     1      -2.132  10.792  17.817  0.00  0.00    +0.000 A 
ATOM     21  C   UNL     1      -2.310  10.202  16.562  0.00  0.00    +0.000 A 
ATOM     22  C   UNL     1      -3.524  10.364  15.896  0.00  0.00    +0.000 A 
ATOM     23  F   UNL     1      -3.697   9.782  14.702  0.00  0.00    +0.000 F 
ATOM     24  C   UNL     1      -4.559  11.108  16.446  0.00  0.00    +0.000 A 
ATOM     25  C   UNL     1      -4.373  11.688  17.693  0.00  0.00    +0.000 A 
ATOM     26  F   UNL     1      -5.364  12.403  18.240  0.00  0.00    +0.000 F 
ATOM     27  C   UNL     1      -3.175  11.538  18.384  0.00  0.00    +0.000 A 
ENDBRANCH  17  20
ENDBRANCH  15  16
ENDBRANCH   2  15
TORSDOF 4
ENDMDL
MODEL 5
REMARK VINA RESULT:      -8.0      6.472      7.846
REMARK  Name = 
REMARK  4 active torsions:
REMARK  status: ('A' for Active; 'I' for Inactive)
REMARK    1  A    between atoms: C_2  and  C_3
REMARK    2  A    between atoms: C_3  and  N_4
REMARK    3  A    between atoms: C_5  and  C_7
REMARK    4  A    between atoms: N_15  and  C_16
REMARK                            x       y       z     vdW  Elec       q    Type
REMARK                         _______ _______ _______ _____ _____    ______ ____
ROOT
ATOM      1  O   UNL     1       7.470   9.060  17.366  0.00  0.00    +0.000 OA
ATOM      2  C   UNL     1       8.120   8.419  18.191  0.00  0.00    +0.000 C 
ATOM      3  N   UNL     1       9.113   8.928  19.018  0.00  0.00    +0.000 N 
ATOM      4  H   UNL     1       9.774   8.250  19.393  0.00  0.00    +0.000 HD
ENDROOT
BRANCH   3   5
ATOM      5  C   UNL     1       9.419  10.300  19.179  0.00  0.00    +0.000 A 
ATOM      6  C   UNL     1       9.213  10.981  20.379  0.00  0.00    +0.000 A 
ATOM      7  C   UNL     1       9.456  12.357  20.473  0.00  0.00    +0.000 A 
ATOM      8  C   UNL     1       9.922  13.092  19.399  0.00  0.00    +0.000 A 
ATOM      9  N   UNL     1      10.095  14.419  19.540  0.00  0.00    +0.000 NA
ATOM     10  C   UNL     1      10.545  15.116  18.476  0.00  0.00    +0.000 A 
ATOM     11  C   UNL     1      10.857  14.541  17.260  0.00  0.00    +0.000 A 
ATOM     12  C   UNL     1      10.682  13.167  17.121  0.00  0.00    +0.000 A 
ATOM     13  C   UNL     1      10.193  12.407  18.197  0.00  0.00    +0.000 A 
ATOM     14  C   UNL     1       9.955  11.013  18.100  0.00  0.00    +0.000 A 
ENDBRANCH   3   5
BRANCH   2  15
ATOM     15  C   UNL     1       7.932   6.904  18.293  0.00  0.00    +0.000 C 
BRANCH  15  16
ATOM     16  N   UNL     1       6.559   6.506  18.031  0.00  0.00    +0.000 N 
ATOM     17  C   UNL     1       6.183   5.189  18.142  0.00  0.00    +0.000 C 
ATOM     18  O   UNL     1       6.983   4.297  18.414  0.00  0.00    +0.000 OA
ATOM     19  H   UNL     1       5.896   7.234  17.798  0.00  0.00    +0.000 HD
BRANCH  17  20
ATOM     20  C   UNL     1       4.745   4.866  17.936  0.00  0.00    +0.000 A 
ATOM     21  C   UNL     1       4.303   3.563  17.688  0.00  0.00    +0.000 A 
ATOM     22  C   UNL     1       2.938   3.318  17.555  0.00  0.00    +0.000 A 
ATOM     23  F   UNL     1       2.517   2.065  17.336  0.00  0.00    +0.000 F 
ATOM     24  C   UNL     1       2.004   4.342  17.650  0.00  0.00    +0.000 A 
ATOM     25  C   UNL     1       2.454   5.631  17.897  0.00  0.00    +0.000 A 
ATOM     26  F   UNL     1       1.565   6.628  17.999  0.00  0.00    +0.000 F 
ATOM     27  C   UNL     1       3.810   5.905  18.042  0.00  0.00    +0.000 A 
ENDBRANCH  17  20
ENDBRANCH  15  16
ENDBRANCH   2  15
TORSDOF 4
ENDMDL
MODEL 6
REMARK VINA RESULT:      -8.0      5.187      9.239
REMARK  Name = 
REMARK  4 active torsions:
REMARK  status: ('A' for Active; 'I' for Inactive)
REMARK    1  A    between atoms: C_2  and  C_3
REMARK    2  A    between atoms: C_3  and  N_4
REMARK    3  A    between atoms: C_5  and  C_7
REMARK    4  A    between atoms: N_15  and  C_16
REMARK                            x       y       z     vdW  Elec       q    Type
REMARK                         _______ _______ _______ _____ _____    ______ ____
ROOT
ATOM      1  O   UNL     1       1.580   8.459  19.905  0.00  0.00    +0.000 OA
ATOM      2  C   UNL     1       1.873   8.859  18.779  0.00  0.00    +0.000 C 
ATOM      3  N   UNL     1       2.620   8.162  17.837  0.00  0.00    +0.000 N 
ATOM      4  H   UNL     1       3.056   8.723  17.107  0.00  0.00    +0.000 HD
ENDROOT
BRANCH   3   5
ATOM      5  C   UNL     1       3.015   6.807  17.945  0.00  0.00    +0.000 A 
ATOM      6  C   UNL     1       4.343   6.399  17.821  0.00  0.00    +0.000 A 
ATOM      7  C   UNL     1       4.680   5.040  17.857  0.00  0.00    +0.000 A 
ATOM      8  C   UNL     1       3.727   4.054  18.031  0.00  0.00    +0.000 A 
ATOM      9  N   UNL     1       4.109   2.765  18.014  0.00  0.00    +0.000 NA
ATOM     10  C   UNL     1       3.159   1.820  18.181  0.00  0.00    +0.000 A 
ATOM     11  C   UNL     1       1.825   2.104  18.390  0.00  0.00    +0.000 A 
ATOM     12  C   UNL     1       1.436   3.441  18.414  0.00  0.00    +0.000 A 
ATOM     13  C   UNL     1       2.388   4.455  18.220  0.00  0.00    +0.000 A 
ATOM     14  C   UNL     1       2.044   5.830  18.191  0.00  0.00    +0.000 A 
ENDBRANCH   3   5
BRANCH   2  15
ATOM     15  C   UNL     1       1.493  10.279  18.356  0.00  0.00    +0.000 C 
BRANCH  15  16
ATOM     16  N   UNL     1       0.146  10.346  17.818  0.00  0.00    +0.000 N 
ATOM     17  C   UNL     1      -0.879  10.868  18.569  0.00  0.00    +0.000 C 
ATOM     18  O   UNL     1      -0.717  11.251  19.726  0.00  0.00    +0.000 OA
ATOM     19  H   UNL     1       0.003  10.024  16.868  0.00  0.00    +0.000 HD
BRANCH  17  20
ATOM     20  C   UNL     1      -2.216  10.978  17.926  0.00  0.00    +0.000 A 
ATOM     21  C   UNL     1      -3.324  11.505  18.596  0.00  0.00    +0.000 A 
ATOM     22  C   UNL     1      -4.537  11.627  17.921  0.00  0.00    +0.000 A 
ATOM     23  F   UNL     1      -5.591  12.150  18.561  0.00  0.00    +0.000 F 
ATOM     24  C   UNL     1      -4.675  11.225  16.599  0.00  0.00    +0.000 A 
ATOM     25  C   UNL     1      -3.570  10.703  15.943  0.00  0.00    +0.000 A 
ATOM     26  F   UNL     1      -3.685  10.318  14.666  0.00  0.00    +0.000 F 
ATOM     27  C   UNL     1      -2.344  10.576  16.588  0.00  0.00    +0.000 A 
ENDBRANCH  17  20
ENDBRANCH  15  16
ENDBRANCH   2  15
TORSDOF 4
ENDMDL
MODEL 7
REMARK VINA RESULT:      -8.0      0.860      2.293
REMARK  Name = 
REMARK  4 active torsions:
REMARK  status: ('A' for Active; 'I' for Inactive)
REMARK    1  A    between atoms: C_2  and  C_3
REMARK    2  A    between atoms: C_3  and  N_4
REMARK    3  A    between atoms: C_5  and  C_7
REMARK    4  A    between atoms: N_15  and  C_16
REMARK                            x       y       z     vdW  Elec       q    Type
REMARK                         _______ _______ _______ _____ _____    ______ ____
ROOT
ATOM      1  O   UNL     1       1.997   4.365  17.608  0.00  0.00    +0.000 OA
ATOM      2  C   UNL     1       3.103   4.468  18.136  0.00  0.00    +0.000 C 
ATOM      3  N   UNL     1       3.543   5.541  18.900  0.00  0.00    +0.000 N 
ATOM      4  H   UNL     1       4.553   5.644  18.988  0.00  0.00    +0.000 HD
ENDROOT
BRANCH   3   5
ATOM      5  C   UNL     1       2.734   6.612  19.349  0.00  0.00    +0.000 A 
ATOM      6  C   UNL     1       2.084   6.599  20.583  0.00  0.00    +0.000 A 
ATOM      7  C   UNL     1       1.231   7.645  20.955  0.00  0.00    +0.000 A 
ATOM      8  C   UNL     1       1.008   8.734  20.133  0.00  0.00    +0.000 A 
ATOM      9  N   UNL     1       0.143   9.686  20.528  0.00  0.00    +0.000 NA
ATOM     10  C   UNL     1      -0.062  10.737  19.706  0.00  0.00    +0.000 A 
ATOM     11  C   UNL     1       0.581  10.898  18.495  0.00  0.00    +0.000 A 
ATOM     12  C   UNL     1       1.480   9.914  18.094  0.00  0.00    +0.000 A 
ATOM     13  C   UNL     1       1.705   8.792  18.908  0.00  0.00    +0.000 A 
ATOM     14  C   UNL     1       2.575   7.738  18.532  0.00  0.00    +0.000 A 
ENDBRANCH   3   5
BRANCH   2  15
ATOM     15  C   UNL     1       4.166   3.396  17.886  0.00  0.00    +0.000 C 
BRANCH  15  16
ATOM     16  N   UNL     1       4.663   3.429  16.521  0.00  0.00    +0.000 N 
ATOM     17  C   UNL     1       5.614   4.348  16.148  0.00  0.00    +0.000 C 
ATOM     18  O   UNL     1       6.046   5.199  16.923  0.00  0.00    +0.000 OA
ATOM     19  H   UNL     1       4.306   2.736  15.875  0.00  0.00    +0.000 HD
BRANCH  17  20
ATOM     20  C   UNL     1       6.134   4.273  14.756  0.00  0.00    +0.000 A 
ATOM     21  C   UNL     1       5.547   3.455  13.785  0.00  0.00    +0.000 A 
ATOM     22  C   UNL     1       6.051   3.468  12.486  0.00  0.00    +0.000 A 
ATOM     23  F   UNL     1       5.474   2.697  11.555  0.00  0.00    +0.000 F 
ATOM     24  C   UNL     1       7.130   4.267  12.134  0.00  0.00    +0.000 A 
ATOM     25  C   UNL     1       7.705   5.076  13.105  0.00  0.00    +0.000 A 
ATOM     26  F   UNL     1       8.742   5.857  12.779  0.00  0.00    +0.000 F 
ATOM     27  C   UNL     1       7.220   5.089  14.408  0.00  0.00    +0.000 A 
ENDBRANCH  17  20
ENDBRANCH  15  16
ENDBRANCH   2  15
TORSDOF 4
ENDMDL
MODEL 8
REMARK VINA RESULT:      -8.0      6.520      7.861
REMARK  Name = 
REMARK  4 active torsions:
REMARK  status: ('A' for Active; 'I' for Inactive)
REMARK    1  A    between atoms: C_2  and  C_3
REMARK    2  A    between atoms: C_3  and  N_4
REMARK    3  A    between atoms: C_5  and  C_7
REMARK    4  A    between atoms: N_15  and  C_16
REMARK                            x       y       z     vdW  Elec       q    Type
REMARK                         _______ _______ _______ _____ _____    ______ ____
ROOT
ATOM      1  O   UNL     1       7.699   8.964  17.357  0.00  0.00    +0.000 OA
ATOM      2  C   UNL     1       8.271   8.410  18.296  0.00  0.00    +0.000 C 
ATOM      3  N   UNL     1       9.167   9.011  19.171  0.00  0.00    +0.000 N 
ATOM      4  H   UNL     1       9.796   8.383  19.668  0.00  0.00    +0.000 HD
ENDROOT
BRANCH   3   5
ATOM      5  C   UNL     1       9.435  10.399  19.243  0.00  0.00    +0.000 A 
ATOM      6  C   UNL     1       9.098  11.174  20.353  0.00  0.00    +0.000 A 
ATOM      7  C   UNL     1       9.310  12.558  20.351  0.00  0.00    +0.000 A 
ATOM      8  C   UNL     1       9.871  13.210  19.269  0.00  0.00    +0.000 A 
ATOM      9  N   UNL     1      10.009  14.547  19.311  0.00  0.00    +0.000 NA
ATOM     10  C   UNL     1      10.555  15.162  18.240  0.00  0.00    +0.000 A 
ATOM     11  C   UNL     1      10.996  14.494  17.116  0.00  0.00    +0.000 A 
ATOM     12  C   UNL     1      10.857  13.109  17.080  0.00  0.00    +0.000 A 
ATOM     13  C   UNL     1      10.273  12.432  18.163  0.00  0.00    +0.000 A 
ATOM     14  C   UNL     1      10.066  11.030  18.164  0.00  0.00    +0.000 A 
ENDBRANCH   3   5
BRANCH   2  15
ATOM     15  C   UNL     1       8.096   6.905  18.509  0.00  0.00    +0.000 C 
BRANCH  15  16
ATOM     16  N   UNL     1       6.759   6.457  18.158  0.00  0.00    +0.000 N 
ATOM     17  C   UNL     1       6.148   5.459  18.878  0.00  0.00    +0.000 C 
ATOM     18  O   UNL     1       6.710   4.876  19.803  0.00  0.00    +0.000 OA
ATOM     19  H   UNL     1       6.293   6.926  17.392  0.00  0.00    +0.000 HD
BRANCH  17  20
ATOM     20  C   UNL     1       4.750   5.104  18.512  0.00  0.00    +0.000 A 
ATOM     21  C   UNL     1       3.753   6.072  18.359  0.00  0.00    +0.000 A 
ATOM     22  C   UNL     1       2.475   5.680  17.966  0.00  0.00    +0.000 A 
ATOM     23  F   UNL     1       1.527   6.612  17.802  0.00  0.00    +0.000 F 
ATOM     24  C   UNL     1       2.164   4.347  17.732  0.00  0.00    +0.000 A 
ATOM     25  C   UNL     1       3.162   3.394  17.887  0.00  0.00    +0.000 A 
ATOM     26  F   UNL     1       2.880   2.105  17.658  0.00  0.00    +0.000 F 
ATOM     27  C   UNL     1       4.449   3.756  18.271  0.00  0.00    +0.000 A 
ENDBRANCH  17  20
ENDBRANCH  15  16
ENDBRANCH   2  15
TORSDOF 4
ENDMDL
MODEL 9
REMARK VINA RESULT:      -8.0      0.855      1.597
REMARK  Name = 
REMARK  4 active torsions:
REMARK  status: ('A' for Active; 'I' for Inactive)
REMARK    1  A    between atoms: C_2  and  C_3
REMARK    2  A    between atoms: C_3  and  N_4
REMARK    3  A    between atoms: C_5  and  C_7
REMARK    4  A    between atoms: N_15  and  C_16
REMARK                            x       y       z     vdW  Elec       q    Type
REMARK                         _______ _______ _______ _____ _____    ______ ____
ROOT
ATOM      1  O   UNL     1       2.025   4.342  17.624  0.00  0.00    +0.000 OA
ATOM      2  C   UNL     1       3.132   4.466  18.146  0.00  0.00    +0.000 C 
ATOM      3  N   UNL     1       3.557   5.549  18.904  0.00  0.00    +0.000 N 
ATOM      4  H   UNL     1       4.565   5.671  18.986  0.00  0.00    +0.000 HD
ENDROOT
BRANCH   3   5
ATOM      5  C   UNL     1       2.732   6.607  19.355  0.00  0.00    +0.000 A 
ATOM      6  C   UNL     1       2.081   6.581  20.588  0.00  0.00    +0.000 A 
ATOM      7  C   UNL     1       1.212   7.614  20.962  0.00  0.00    +0.000 A 
ATOM      8  C   UNL     1       0.973   8.700  20.142  0.00  0.00    +0.000 A 
ATOM      9  N   UNL     1       0.094   9.638  20.538  0.00  0.00    +0.000 NA
ATOM     10  C   UNL     1      -0.126  10.688  19.719  0.00  0.00    +0.000 A 
ATOM     11  C   UNL     1       0.515  10.862  18.508  0.00  0.00    +0.000 A 
ATOM     12  C   UNL     1       1.429   9.892  18.106  0.00  0.00    +0.000 A 
ATOM     13  C   UNL     1       1.670   8.772  18.918  0.00  0.00    +0.000 A 
ATOM     14  C   UNL     1       2.556   7.732  18.540  0.00  0.00    +0.000 A 
ENDBRANCH   3   5
BRANCH   2  15
ATOM     15  C   UNL     1       4.213   3.413  17.892  0.00  0.00    +0.000 C 
BRANCH  15  16
ATOM     16  N   UNL     1       4.721   3.470  16.533  0.00  0.00    +0.000 N 
ATOM     17  C   UNL     1       5.553   4.491  16.143  0.00  0.00    +0.000 C 
ATOM     18  O   UNL     1       5.861   5.412  16.896  0.00  0.00    +0.000 OA
ATOM     19  H   UNL     1       4.465   2.719  15.904  0.00  0.00    +0.000 HD
BRANCH  17  20
ATOM     20  C   UNL     1       6.098   4.443  14.759  0.00  0.00    +0.000 A 
ATOM     21  C   UNL     1       7.215   5.190  14.372  0.00  0.00    +0.000 A 
ATOM     22  C   UNL     1       7.707   5.062  13.075  0.00  0.00    +0.000 A 
ATOM     23  F   UNL     1       8.788   5.766  12.714  0.00  0.00    +0.000 F 
ATOM     24  C   UNL     1       7.106   4.217  12.151  0.00  0.00    +0.000 A 
ATOM     25  C   UNL     1       5.999   3.480  12.545  0.00  0.00    +0.000 A 
ATOM     26  F   UNL     1       5.413   2.655  11.668  0.00  0.00    +0.000 F 
ATOM     27  C   UNL     1       5.490   3.581  13.836  0.00  0.00    +0.000 A 
ENDBRANCH  17  20
ENDBRANCH  15  16
ENDBRANCH   2  15
TORSDOF 4
ENDMDL
