MODEL 1
REMARK VINA RESULT:      -9.1      0.000      0.000
REMARK  Name = 
REMARK  5 active torsions:
REMARK  status: ('A' for Active; 'I' for Inactive)
REMARK    1  A    between atoms: C_1  and  N_2
REMARK    2  A    between atoms: C_6  and  C_7
REMARK    3  A    between atoms: C_11  and  N_12
REMARK    4  A    between atoms: C_17  and  C_18
REMARK    5  A    between atoms: C_21  and  C_22
REMARK                            x       y       z     vdW  Elec       q    Type
REMARK                         _______ _______ _______ _____ _____    ______ ____
ROOT
ATOM      1  N   UNL     1       3.759   5.010  19.237  0.00  0.00    +0.000 N 
ATOM      2  C   UNL     1       5.153   5.498  19.345  0.00  0.00    +0.000 C 
ATOM      3  C   UNL     1       5.700   5.195  17.985  0.00  0.00    +0.000 A 
ATOM      4  C   UNL     1       4.971   4.119  17.473  0.00  0.00    +0.000 A 
ATOM      5  C   UNL     1       5.124   3.648  16.183  0.00  0.00    +0.000 A 
ATOM      6  C   UNL     1       6.043   4.307  15.360  0.00  0.00    +0.000 A 
ATOM      7  C   UNL     1       6.770   5.412  15.865  0.00  0.00    +0.000 A 
ATOM      8  C   UNL     1       6.608   5.879  17.187  0.00  0.00    +0.000 A 
ATOM      9  C   UNL     1       3.800   3.906  18.353  0.00  0.00    +0.000 C 
ATOM     10  O   UNL     1       2.955   3.049  18.166  0.00  0.00    +0.000 OA
ENDROOT
BRANCH   1  15
ATOM     11  C   UNL     1       1.817   8.074  19.786  0.00  0.00    +0.000 A 
ATOM     12  C   UNL     1       2.250   8.793  18.669  0.00  0.00    +0.000 A 
ATOM     13  C   UNL     1       2.823   8.143  17.581  0.00  0.00    +0.000 A 
ATOM     14  C   UNL     1       3.076   6.776  17.646  0.00  0.00    +0.000 A 
ATOM     15  C   UNL     1       2.873   6.097  18.856  0.00  0.00    +0.000 A 
ATOM     16  C   UNL     1       2.130   6.712  19.871  0.00  0.00    +0.000 A 
BRANCH  11  22
ATOM     17  C   UNL     1      -0.636  10.055  19.624  0.00  0.00    +0.000 C 
ATOM     18  N   UNL     1       0.093   9.652  20.794  0.00  0.00    +0.000 N 
ATOM     19  C   UNL     1      -0.105  10.142  22.046  0.00  0.00    +0.000 A 
ATOM     20  N   UNL     1       0.757   9.600  22.874  0.00  0.00    +0.000 NA
ATOM     21  N   UNL     1       1.554   8.760  22.145  0.00  0.00    +0.000 NA
ATOM     22  C   UNL     1       1.160   8.790  20.883  0.00  0.00    +0.000 A 
ENDBRANCH  11  22
ENDBRANCH   1  15
BRANCH   8  23
ATOM     23  C   UNL     1       7.322   7.141  17.619  0.00  0.00    +0.000 C 
ATOM     24  F   UNL     1       8.052   7.003  18.756  0.00  0.00    +0.000 F 
ATOM     25  F   UNL     1       8.201   7.576  16.670  0.00  0.00    +0.000 F 
ATOM     26  F   UNL     1       6.461   8.171  17.837  0.00  0.00    +0.000 F 
ENDBRANCH   8  23
BRANCH   6  27
ATOM     27  C   UNL     1       6.183   3.895  13.918  0.00  0.00    +0.000 C 
ATOM     28  F   UNL     1       5.002   3.911  13.238  0.00  0.00    +0.000 F 
ENDBRANCH   6  27
TORSDOF 4
ENDMDL
MODEL 2
REMARK VINA RESULT:      -7.9      4.226      7.964
REMARK  Name = 
REMARK  5 active torsions:
REMARK  status: ('A' for Active; 'I' for Inactive)
REMARK    1  A    between atoms: C_1  and  N_2
REMARK    2  A    between atoms: C_6  and  C_7
REMARK    3  A    between atoms: C_11  and  N_12
REMARK    4  A    between atoms: C_17  and  C_18
REMARK    5  A    between atoms: C_21  and  C_22
REMARK                            x       y       z     vdW  Elec       q    Type
REMARK                         _______ _______ _______ _____ _____    ______ ____
ROOT
ATOM      1  N   UNL     1       0.732   8.296  21.244  0.00  0.00    +0.000 N 
ATOM      2  C   UNL     1      -0.511   8.641  20.515  0.00  0.00    +0.000 C 
ATOM      3  C   UNL     1      -0.279  10.077  20.158  0.00  0.00    +0.000 A 
ATOM      4  C   UNL     1       0.595  10.607  21.110  0.00  0.00    +0.000 A 
ATOM      5  C   UNL     1       1.125  11.880  21.023  0.00  0.00    +0.000 A 
ATOM      6  C   UNL     1       0.773  12.651  19.911  0.00  0.00    +0.000 A 
ATOM      7  C   UNL     1      -0.096  12.112  18.930  0.00  0.00    +0.000 A 
ATOM      8  C   UNL     1      -0.634  10.812  19.035  0.00  0.00    +0.000 A 
ATOM      9  C   UNL     1       1.139   9.481  21.902  0.00  0.00    +0.000 C 
ATOM     10  O   UNL     1       1.947   9.610  22.804  0.00  0.00    +0.000 OA
ENDROOT
BRANCH   1  15
ATOM     11  C   UNL     1       2.234   5.595  19.266  0.00  0.00    +0.000 A 
ATOM     12  C   UNL     1       2.360   6.277  18.053  0.00  0.00    +0.000 A 
ATOM     13  C   UNL     1       2.339   7.668  18.010  0.00  0.00    +0.000 A 
ATOM     14  C   UNL     1       2.075   8.391  19.169  0.00  0.00    +0.000 A 
ATOM     15  C   UNL     1       1.702   7.708  20.335  0.00  0.00    +0.000 A 
ATOM     16  C   UNL     1       1.906   6.325  20.415  0.00  0.00    +0.000 A 
BRANCH  11  22
ATOM     17  C   UNL     1       4.835   3.808  19.170  0.00  0.00    +0.000 C 
ATOM     18  N   UNL     1       3.468   3.371  19.228  0.00  0.00    +0.000 N 
ATOM     19  C   UNL     1       3.058   2.076  19.161  0.00  0.00    +0.000 A 
ATOM     20  N   UNL     1       1.747   2.026  19.195  0.00  0.00    +0.000 NA
ATOM     21  N   UNL     1       1.288   3.314  19.258  0.00  0.00    +0.000 NA
ATOM     22  C   UNL     1       2.325   4.133  19.274  0.00  0.00    +0.000 A 
ENDBRANCH  11  22
ENDBRANCH   1  15
BRANCH   8  23
ATOM     23  C   UNL     1      -1.451  10.256  17.890  0.00  0.00    +0.000 C 
ATOM     24  F   UNL     1      -2.600   9.643  18.275  0.00  0.00    +0.000 F 
ATOM     25  F   UNL     1      -1.833  11.234  17.018  0.00  0.00    +0.000 F 
ATOM     26  F   UNL     1      -0.757   9.345  17.156  0.00  0.00    +0.000 F 
ENDBRANCH   8  23
BRANCH   6  27
ATOM     27  C   UNL     1       1.394  14.010  19.718  0.00  0.00    +0.000 C 
ATOM     28  F   UNL     1       1.785  14.245  18.434  0.00  0.00    +0.000 F 
ENDBRANCH   6  27
TORSDOF 4
ENDMDL
MODEL 3
REMARK VINA RESULT:      -7.9      0.823      1.001
REMARK  Name = 
REMARK  5 active torsions:
REMARK  status: ('A' for Active; 'I' for Inactive)
REMARK    1  A    between atoms: C_1  and  N_2
REMARK    2  A    between atoms: C_6  and  C_7
REMARK    3  A    between atoms: C_11  and  N_12
REMARK    4  A    between atoms: C_17  and  C_18
REMARK    5  A    between atoms: C_21  and  C_22
REMARK                            x       y       z     vdW  Elec       q    Type
REMARK                         _______ _______ _______ _____ _____    ______ ____
ROOT
ATOM      1  N   UNL     1       2.910   4.602  18.820  0.00  0.00    +0.000 N 
ATOM      2  C   UNL     1       4.292   4.671  19.347  0.00  0.00    +0.000 C 
ATOM      3  C   UNL     1       5.112   4.502  18.106  0.00  0.00    +0.000 A 
ATOM      4  C   UNL     1       4.341   3.777  17.193  0.00  0.00    +0.000 A 
ATOM      5  C   UNL     1       4.736   3.540  15.891  0.00  0.00    +0.000 A 
ATOM      6  C   UNL     1       5.961   4.077  15.479  0.00  0.00    +0.000 A 
ATOM      7  C   UNL     1       6.738   4.831  16.393  0.00  0.00    +0.000 A 
ATOM      8  C   UNL     1       6.324   5.061  17.722  0.00  0.00    +0.000 A 
ATOM      9  C   UNL     1       2.957   3.717  17.716  0.00  0.00    +0.000 C 
ATOM     10  O   UNL     1       2.035   3.168  17.141  0.00  0.00    +0.000 OA
ENDROOT
BRANCH   1  15
ATOM     11  C   UNL     1       1.798   7.988  19.688  0.00  0.00    +0.000 A 
ATOM     12  C   UNL     1       2.558   8.698  18.754  0.00  0.00    +0.000 A 
ATOM     13  C   UNL     1       3.082   8.065  17.632  0.00  0.00    +0.000 A 
ATOM     14  C   UNL     1       2.950   6.686  17.490  0.00  0.00    +0.000 A 
ATOM     15  C   UNL     1       2.407   5.937  18.544  0.00  0.00    +0.000 A 
ATOM     16  C   UNL     1       1.722   6.595  19.572  0.00  0.00    +0.000 A 
BRANCH  11  22
ATOM     17  C   UNL     1      -0.555  10.093  19.649  0.00  0.00    +0.000 C 
ATOM     18  N   UNL     1       0.187   9.624  20.785  0.00  0.00    +0.000 N 
ATOM     19  C   UNL     1       0.049  10.090  22.055  0.00  0.00    +0.000 A 
ATOM     20  N   UNL     1       0.907   9.484  22.843  0.00  0.00    +0.000 NA
ATOM     21  N   UNL     1       1.639   8.624  22.069  0.00  0.00    +0.000 NA
ATOM     22  C   UNL     1       1.210   8.707  20.821  0.00  0.00    +0.000 A 
ENDBRANCH  11  22
ENDBRANCH   1  15
BRANCH   8  23
ATOM     23  C   UNL     1       7.141   5.981  18.602  0.00  0.00    +0.000 C 
ATOM     24  F   UNL     1       8.479   5.752  18.551  0.00  0.00    +0.000 F 
ATOM     25  F   UNL     1       6.980   7.291  18.254  0.00  0.00    +0.000 F 
ATOM     26  F   UNL     1       6.785   5.891  19.912  0.00  0.00    +0.000 F 
ENDBRANCH   8  23
BRANCH   6  27
ATOM     27  C   UNL     1       6.397   3.928  14.045  0.00  0.00    +0.000 C 
ATOM     28  F   UNL     1       5.375   3.607  13.203  0.00  0.00    +0.000 F 
ENDBRANCH   6  27
TORSDOF 4
ENDMDL
MODEL 4
REMARK VINA RESULT:      -7.8      4.412      8.085
REMARK  Name = 
REMARK  5 active torsions:
REMARK  status: ('A' for Active; 'I' for Inactive)
REMARK    1  A    between atoms: C_1  and  N_2
REMARK    2  A    between atoms: C_6  and  C_7
REMARK    3  A    between atoms: C_11  and  N_12
REMARK    4  A    between atoms: C_17  and  C_18
REMARK    5  A    between atoms: C_21  and  C_22
REMARK                            x       y       z     vdW  Elec       q    Type
REMARK                         _______ _______ _______ _____ _____    ______ ____
ROOT
ATOM      1  N   UNL     1       0.738   8.363  21.106  0.00  0.00    +0.000 N 
ATOM      2  C   UNL     1      -0.521   8.645  20.378  0.00  0.00    +0.000 C 
ATOM      3  C   UNL     1      -0.436  10.123  20.162  0.00  0.00    +0.000 A 
ATOM      4  C   UNL     1       0.359  10.649  21.183  0.00  0.00    +0.000 A 
ATOM      5  C   UNL     1       0.753  11.972  21.230  0.00  0.00    +0.000 A 
ATOM      6  C   UNL     1       0.342  12.805  20.184  0.00  0.00    +0.000 A 
ATOM      7  C   UNL     1      -0.447  12.274  19.134  0.00  0.00    +0.000 A 
ATOM      8  C   UNL     1      -0.846  10.921  19.102  0.00  0.00    +0.000 A 
ATOM      9  C   UNL     1       1.005   9.515  21.883  0.00  0.00    +0.000 C 
ATOM     10  O   UNL     1       1.778   9.642  22.815  0.00  0.00    +0.000 OA
ENDROOT
BRANCH   1  15
ATOM     11  C   UNL     1       2.840   5.978  19.274  0.00  0.00    +0.000 A 
ATOM     12  C   UNL     1       2.691   6.516  17.994  0.00  0.00    +0.000 A 
ATOM     13  C   UNL     1       2.264   7.829  17.817  0.00  0.00    +0.000 A 
ATOM     14  C   UNL     1       1.870   8.583  18.919  0.00  0.00    +0.000 A 
ATOM     15  C   UNL     1       1.781   7.967  20.176  0.00  0.00    +0.000 A 
ATOM     16  C   UNL     1       2.383   6.718  20.372  0.00  0.00    +0.000 A 
BRANCH  11  22
ATOM     17  C   UNL     1       1.207   3.333  19.829  0.00  0.00    +0.000 C 
ATOM     18  N   UNL     1       2.626   3.472  19.662  0.00  0.00    +0.000 N 
ATOM     19  C   UNL     1       3.532   2.469  19.807  0.00  0.00    +0.000 A 
ATOM     20  N   UNL     1       4.745   2.940  19.633  0.00  0.00    +0.000 NA
ATOM     21  N   UNL     1       4.633   4.284  19.397  0.00  0.00    +0.000 NA
ATOM     22  C   UNL     1       3.353   4.613  19.417  0.00  0.00    +0.000 A 
ENDBRANCH  11  22
ENDBRANCH   1  15
BRANCH   8  23
ATOM     23  C   UNL     1      -1.579  10.394  17.888  0.00  0.00    +0.000 C 
ATOM     24  F   UNL     1      -2.729   9.733  18.179  0.00  0.00    +0.000 F 
ATOM     25  F   UNL     1      -1.939  11.400  17.038  0.00  0.00    +0.000 F 
ATOM     26  F   UNL     1      -0.816   9.537  17.158  0.00  0.00    +0.000 F 
ENDBRANCH   8  23
BRANCH   6  27
ATOM     27  C   UNL     1       0.819  14.233  20.135  0.00  0.00    +0.000 C 
ATOM     28  F   UNL     1       0.443  14.887  19.000  0.00  0.00    +0.000 F 
ENDBRANCH   6  27
TORSDOF 4
ENDMDL
MODEL 5
REMARK VINA RESULT:      -7.6      4.600      8.195
REMARK  Name = 
REMARK  5 active torsions:
REMARK  status: ('A' for Active; 'I' for Inactive)
REMARK    1  A    between atoms: C_1  and  N_2
REMARK    2  A    between atoms: C_6  and  C_7
REMARK    3  A    between atoms: C_11  and  N_12
REMARK    4  A    between atoms: C_17  and  C_18
REMARK    5  A    between atoms: C_21  and  C_22
REMARK                            x       y       z     vdW  Elec       q    Type
REMARK                         _______ _______ _______ _____ _____    ______ ____
ROOT
ATOM      1  N   UNL     1       0.332   9.020  20.801  0.00  0.00    +0.000 N 
ATOM      2  C   UNL     1      -0.910   9.053  19.995  0.00  0.00    +0.000 C 
ATOM      3  C   UNL     1      -0.960  10.480  19.548  0.00  0.00    +0.000 A 
ATOM      4  C   UNL     1      -0.271  11.238  20.498  0.00  0.00    +0.000 A 
ATOM      5  C   UNL     1      -0.012  12.587  20.346  0.00  0.00    +0.000 A 
ATOM      6  C   UNL     1      -0.450  13.199  19.167  0.00  0.00    +0.000 A 
ATOM      7  C   UNL     1      -1.130  12.432  18.189  0.00  0.00    +0.000 A 
ATOM      8  C   UNL     1      -1.393  11.056  18.361  0.00  0.00    +0.000 A 
ATOM      9  C   UNL     1       0.447  10.301  21.392  0.00  0.00    +0.000 C 
ATOM     10  O   UNL     1       1.156  10.651  22.317  0.00  0.00    +0.000 OA
ENDROOT
BRANCH   1  15
ATOM     11  C   UNL     1       2.581   6.579  19.238  0.00  0.00    +0.000 A 
ATOM     12  C   UNL     1       2.552   7.080  17.934  0.00  0.00    +0.000 A 
ATOM     13  C   UNL     1       2.150   8.388  17.681  0.00  0.00    +0.000 A 
ATOM     14  C   UNL     1       1.660   9.174  18.720  0.00  0.00    +0.000 A 
ATOM     15  C   UNL     1       1.454   8.596  19.981  0.00  0.00    +0.000 A 
ATOM     16  C   UNL     1       2.030   7.352  20.267  0.00  0.00    +0.000 A 
BRANCH  11  22
ATOM     17  C   UNL     1       0.950   4.059  20.216  0.00  0.00    +0.000 C 
ATOM     18  N   UNL     1       2.348   4.132  19.896  0.00  0.00    +0.000 N 
ATOM     19  C   UNL     1       3.240   3.118  20.051  0.00  0.00    +0.000 A 
ATOM     20  N   UNL     1       4.440   3.528  19.711  0.00  0.00    +0.000 NA
ATOM     21  N   UNL     1       4.337   4.845  19.353  0.00  0.00    +0.000 NA
ATOM     22  C   UNL     1       3.073   5.218  19.466  0.00  0.00    +0.000 A 
ENDBRANCH  11  22
ENDBRANCH   1  15
BRANCH   8  23
ATOM     23  C   UNL     1      -2.009  10.273  17.223  0.00  0.00    +0.000 C 
ATOM     24  F   UNL     1      -2.323  11.028  16.138  0.00  0.00    +0.000 F 
ATOM     25  F   UNL     1      -1.168   9.302  16.762  0.00  0.00    +0.000 F 
ATOM     26  F   UNL     1      -3.153   9.639  17.594  0.00  0.00    +0.000 F 
ENDBRANCH   8  23
BRANCH   6  27
ATOM     27  C   UNL     1      -0.113  14.644  18.907  0.00  0.00    +0.000 C 
ATOM     28  F   UNL     1       1.166  14.828  18.471  0.00  0.00    +0.000 F 
ENDBRANCH   6  27
TORSDOF 4
ENDMDL
MODEL 6
REMARK VINA RESULT:      -7.5      4.289      8.246
REMARK  Name = 
REMARK  5 active torsions:
REMARK  status: ('A' for Active; 'I' for Inactive)
REMARK    1  A    between atoms: C_1  and  N_2
REMARK    2  A    between atoms: C_6  and  C_7
REMARK    3  A    between atoms: C_11  and  N_12
REMARK    4  A    between atoms: C_17  and  C_18
REMARK    5  A    between atoms: C_21  and  C_22
REMARK                            x       y       z     vdW  Elec       q    Type
REMARK                         _______ _______ _______ _____ _____    ______ ____
ROOT
ATOM      1  N   UNL     1       0.349   9.077  20.801  0.00  0.00    +0.000 N 
ATOM      2  C   UNL     1      -0.899   9.111  20.003  0.00  0.00    +0.000 C 
ATOM      3  C   UNL     1      -0.925  10.527  19.518  0.00  0.00    +0.000 A 
ATOM      4  C   UNL     1      -0.216  11.297  20.443  0.00  0.00    +0.000 A 
ATOM      5  C   UNL     1       0.067  12.636  20.252  0.00  0.00    +0.000 A 
ATOM      6  C   UNL     1      -0.368  13.225  19.060  0.00  0.00    +0.000 A 
ATOM      7  C   UNL     1      -1.069  12.444  18.108  0.00  0.00    +0.000 A 
ATOM      8  C   UNL     1      -1.356  11.078  18.319  0.00  0.00    +0.000 A 
ATOM      9  C   UNL     1       0.491  10.371  21.356  0.00  0.00    +0.000 C 
ATOM     10  O   UNL     1       1.213  10.733  22.267  0.00  0.00    +0.000 OA
ENDROOT
BRANCH   1  15
ATOM     11  C   UNL     1       2.493   6.551  19.226  0.00  0.00    +0.000 A 
ATOM     12  C   UNL     1       2.499   7.070  17.928  0.00  0.00    +0.000 A 
ATOM     13  C   UNL     1       2.162   8.399  17.689  0.00  0.00    +0.000 A 
ATOM     14  C   UNL     1       1.701   9.194  18.734  0.00  0.00    +0.000 A 
ATOM     15  C   UNL     1       1.457   8.610  19.985  0.00  0.00    +0.000 A 
ATOM     16  C   UNL     1       1.970   7.336  20.260  0.00  0.00    +0.000 A 
BRANCH  11  22
ATOM     17  C   UNL     1       5.426   5.384  19.182  0.00  0.00    +0.000 C 
ATOM     18  N   UNL     1       4.199   4.674  19.415  0.00  0.00    +0.000 N 
ATOM     19  C   UNL     1       4.094   3.327  19.572  0.00  0.00    +0.000 A 
ATOM     20  N   UNL     1       2.832   2.998  19.718  0.00  0.00    +0.000 NA
ATOM     21  N   UNL     1       2.094   4.147  19.628  0.00  0.00    +0.000 NA
ATOM     22  C   UNL     1       2.916   5.165  19.440  0.00  0.00    +0.000 A 
ENDBRANCH  11  22
ENDBRANCH   1  15
BRANCH   8  23
ATOM     23  C   UNL     1      -1.995  10.277  17.207  0.00  0.00    +0.000 C 
ATOM     24  F   UNL     1      -1.217   9.270  16.732  0.00  0.00    +0.000 F 
ATOM     25  F   UNL     1      -3.155   9.683  17.611  0.00  0.00    +0.000 F 
ATOM     26  F   UNL     1      -2.320  11.050  16.136  0.00  0.00    +0.000 F 
ENDBRANCH   8  23
BRANCH   6  27
ATOM     27  C   UNL     1      -0.007  14.655  18.758  0.00  0.00    +0.000 C 
ATOM     28  F   UNL     1       1.325  14.837  18.533  0.00  0.00    +0.000 F 
ENDBRANCH   6  27
TORSDOF 4
ENDMDL
MODEL 7
REMARK VINA RESULT:      -7.5      2.848      4.239
REMARK  Name = 
REMARK  5 active torsions:
REMARK  status: ('A' for Active; 'I' for Inactive)
REMARK    1  A    between atoms: C_1  and  N_2
REMARK    2  A    between atoms: C_6  and  C_7
REMARK    3  A    between atoms: C_11  and  N_12
REMARK    4  A    between atoms: C_17  and  C_18
REMARK    5  A    between atoms: C_21  and  C_22
REMARK                            x       y       z     vdW  Elec       q    Type
REMARK                         _______ _______ _______ _____ _____    ______ ____
ROOT
ATOM      1  N   UNL     1       2.174   7.055  17.953  0.00  0.00    +0.000 N 
ATOM      2  C   UNL     1       2.090   5.596  18.197  0.00  0.00    +0.000 C 
ATOM      3  C   UNL     1       3.528   5.223  18.378  0.00  0.00    +0.000 A 
ATOM      4  C   UNL     1       4.292   6.155  17.674  0.00  0.00    +0.000 A 
ATOM      5  C   UNL     1       5.673   6.190  17.720  0.00  0.00    +0.000 A 
ATOM      6  C   UNL     1       6.316   5.251  18.533  0.00  0.00    +0.000 A 
ATOM      7  C   UNL     1       5.546   4.316  19.267  0.00  0.00    +0.000 A 
ATOM      8  C   UNL     1       4.136   4.288  19.206  0.00  0.00    +0.000 A 
ATOM      9  C   UNL     1       3.398   7.267  17.276  0.00  0.00    +0.000 C 
ATOM     10  O   UNL     1       3.767   8.251  16.661  0.00  0.00    +0.000 OA
ENDROOT
BRANCH   1  15
ATOM     11  C   UNL     1       0.763   9.656  20.122  0.00  0.00    +0.000 A 
ATOM     12  C   UNL     1       0.415   8.849  21.208  0.00  0.00    +0.000 A 
ATOM     13  C   UNL     1       0.995   7.596  21.381  0.00  0.00    +0.000 A 
ATOM     14  C   UNL     1       1.845   7.087  20.404  0.00  0.00    +0.000 A 
ATOM     15  C   UNL     1       2.001   7.784  19.198  0.00  0.00    +0.000 A 
ATOM     16  C   UNL     1       1.568   9.114  19.114  0.00  0.00    +0.000 A 
BRANCH  11  22
ATOM     17  C   UNL     1      -1.752  10.547  18.434  0.00  0.00    +0.000 C 
ATOM     18  N   UNL     1      -0.918  11.366  19.270  0.00  0.00    +0.000 N 
ATOM     19  C   UNL     1      -1.029  12.714  19.403  0.00  0.00    +0.000 A 
ATOM     20  N   UNL     1      -0.086  13.157  20.203  0.00  0.00    +0.000 NA
ATOM     21  N   UNL     1       0.673  12.082  20.578  0.00  0.00    +0.000 NA
ATOM     22  C   UNL     1       0.177  10.994  20.013  0.00  0.00    +0.000 A 
ENDBRANCH  11  22
ENDBRANCH   1  15
BRANCH   8  23
ATOM     23  C   UNL     1       3.375   3.347  20.113  0.00  0.00    +0.000 C 
ATOM     24  F   UNL     1       2.709   3.968  21.122  0.00  0.00    +0.000 F 
ATOM     25  F   UNL     1       2.429   2.640  19.431  0.00  0.00    +0.000 F 
ATOM     26  F   UNL     1       4.187   2.427  20.698  0.00  0.00    +0.000 F 
ENDBRANCH   8  23
BRANCH   6  27
ATOM     27  C   UNL     1       7.813   5.303  18.693  0.00  0.00    +0.000 C 
ATOM     28  F   UNL     1       8.287   6.562  18.911  0.00  0.00    +0.000 F 
ENDBRANCH   6  27
TORSDOF 4
ENDMDL
MODEL 8
REMARK VINA RESULT:      -7.4      7.142      9.794
REMARK  Name = 
REMARK  5 active torsions:
REMARK  status: ('A' for Active; 'I' for Inactive)
REMARK    1  A    between atoms: C_1  and  N_2
REMARK    2  A    between atoms: C_6  and  C_7
REMARK    3  A    between atoms: C_11  and  N_12
REMARK    4  A    between atoms: C_17  and  C_18
REMARK    5  A    between atoms: C_21  and  C_22
REMARK                            x       y       z     vdW  Elec       q    Type
REMARK                         _______ _______ _______ _____ _____    ______ ____
ROOT
ATOM      1  N   UNL     1      -0.495  11.616  18.605  0.00  0.00    +0.000 N 
ATOM      2  C   UNL     1       0.298  10.851  19.596  0.00  0.00    +0.000 C 
ATOM      3  C   UNL     1      -0.262  11.344  20.895  0.00  0.00    +0.000 A 
ATOM      4  C   UNL     1      -0.759  12.630  20.673  0.00  0.00    +0.000 A 
ATOM      5  C   UNL     1      -1.460  13.344  21.626  0.00  0.00    +0.000 A 
ATOM      6  C   UNL     1      -1.689  12.723  22.859  0.00  0.00    +0.000 A 
ATOM      7  C   UNL     1      -1.206  11.411  23.083  0.00  0.00    +0.000 A 
ATOM      8  C   UNL     1      -0.487  10.695  22.101  0.00  0.00    +0.000 A 
ATOM      9  C   UNL     1      -0.779  12.863  19.211  0.00  0.00    +0.000 C 
ATOM     10  O   UNL     1      -1.177  13.888  18.690  0.00  0.00    +0.000 OA
ENDROOT
BRANCH   1  15
ATOM     11  C   UNL     1      -3.962  11.131  17.509  0.00  0.00    +0.000 A 
ATOM     12  C   UNL     1      -3.715  10.311  16.404  0.00  0.00    +0.000 A 
ATOM     13  C   UNL     1      -2.512   9.622  16.283  0.00  0.00    +0.000 A 
ATOM     14  C   UNL     1      -1.495   9.836  17.209  0.00  0.00    +0.000 A 
ATOM     15  C   UNL     1      -1.647  10.841  18.175  0.00  0.00    +0.000 A 
ATOM     16  C   UNL     1      -2.915  11.389  18.401  0.00  0.00    +0.000 A 
BRANCH  11  22
ATOM     17  C   UNL     1      -6.493  10.151  19.123  0.00  0.00    +0.000 C 
ATOM     18  N   UNL     1      -6.359  11.345  18.335  0.00  0.00    +0.000 N 
ATOM     19  C   UNL     1      -7.361  12.227  18.079  0.00  0.00    +0.000 A 
ATOM     20  N   UNL     1      -6.919  13.180  17.290  0.00  0.00    +0.000 NA
ATOM     21  N   UNL     1      -5.610  12.900  17.003  0.00  0.00    +0.000 NA
ATOM     22  C   UNL     1      -5.266  11.787  17.629  0.00  0.00    +0.000 A 
ENDBRANCH  11  22
ENDBRANCH   1  15
BRANCH   8  23
ATOM     23  C   UNL     1      -0.114   9.253  22.363  0.00  0.00    +0.000 C 
ATOM     24  F   UNL     1      -0.824   8.355  21.632  0.00  0.00    +0.000 F 
ATOM     25  F   UNL     1       1.197   9.008  22.072  0.00  0.00    +0.000 F 
ATOM     26  F   UNL     1      -0.283   8.906  23.667  0.00  0.00    +0.000 F 
ENDBRANCH   8  23
BRANCH   6  27
ATOM     27  C   UNL     1      -2.526  13.419  23.900  0.00  0.00    +0.000 C 
ATOM     28  F   UNL     1      -3.644  12.719  24.245  0.00  0.00    +0.000 F 
ENDBRANCH   6  27
TORSDOF 4
ENDMDL
MODEL 9
REMARK VINA RESULT:      -7.4      6.496     10.617
REMARK  Name = 
REMARK  5 active torsions:
REMARK  status: ('A' for Active; 'I' for Inactive)
REMARK    1  A    between atoms: C_1  and  N_2
REMARK    2  A    between atoms: C_6  and  C_7
REMARK    3  A    between atoms: C_11  and  N_12
REMARK    4  A    between atoms: C_17  and  C_18
REMARK    5  A    between atoms: C_21  and  C_22
REMARK                            x       y       z     vdW  Elec       q    Type
REMARK                         _______ _______ _______ _____ _____    ______ ____
ROOT
ATOM      1  N   UNL     1      -1.225  12.295  20.633  0.00  0.00    +0.000 N 
ATOM      2  C   UNL     1      -1.891  13.117  21.670  0.00  0.00    +0.000 C 
ATOM      3  C   UNL     1      -3.339  12.916  21.350  0.00  0.00    +0.000 A 
ATOM      4  C   UNL     1      -3.428  12.621  19.987  0.00  0.00    +0.000 A 
ATOM      5  C   UNL     1      -4.608  12.257  19.368  0.00  0.00    +0.000 A 
ATOM      6  C   UNL     1      -5.754  12.165  20.166  0.00  0.00    +0.000 A 
ATOM      7  C   UNL     1      -5.667  12.442  21.552  0.00  0.00    +0.000 A 
ATOM      8  C   UNL     1      -4.455  12.819  22.170  0.00  0.00    +0.000 A 
ATOM      9  C   UNL     1      -2.058  12.360  19.490  0.00  0.00    +0.000 C 
ATOM     10  O   UNL     1      -1.798  12.055  18.341  0.00  0.00    +0.000 OA
ENDROOT
BRANCH   1  15
ATOM     11  C   UNL     1       0.621   9.133  20.872  0.00  0.00    +0.000 A 
ATOM     12  C   UNL     1       0.746   9.075  22.263  0.00  0.00    +0.000 A 
ATOM     13  C   UNL     1      -0.094   9.818  23.086  0.00  0.00    +0.000 A 
ATOM     14  C   UNL     1      -0.994  10.719  22.524  0.00  0.00    +0.000 A 
ATOM     15  C   UNL     1      -0.950  10.963  21.144  0.00  0.00    +0.000 A 
ATOM     16  C   UNL     1      -0.241  10.085  20.315  0.00  0.00    +0.000 A 
BRANCH  11  22
ATOM     17  C   UNL     1       1.760   9.743  17.991  0.00  0.00    +0.000 C 
ATOM     18  N   UNL     1       1.967   8.566  18.789  0.00  0.00    +0.000 N 
ATOM     19  C   UNL     1       2.636   7.454  18.383  0.00  0.00    +0.000 A 
ATOM     20  N   UNL     1       2.601   6.547  19.331  0.00  0.00    +0.000 NA
ATOM     21  N   UNL     1       1.873   7.065  20.368  0.00  0.00    +0.000 NA
ATOM     22  C   UNL     1       1.482   8.286  20.044  0.00  0.00    +0.000 A 
ENDBRANCH  11  22
ENDBRANCH   1  15
BRANCH   8  23
ATOM     23  C   UNL     1      -4.410  12.975  23.674  0.00  0.00    +0.000 C 
ATOM     24  F   UNL     1      -3.590  12.090  24.298  0.00  0.00    +0.000 F 
ATOM     25  F   UNL     1      -3.963  14.211  24.042  0.00  0.00    +0.000 F 
ATOM     26  F   UNL     1      -5.636  12.830  24.244  0.00  0.00    +0.000 F 
ENDBRANCH   8  23
BRANCH   6  27
ATOM     27  C   UNL     1      -7.047  11.682  19.562  0.00  0.00    +0.000 C 
ATOM     28  F   UNL     1      -7.325  10.381  19.858  0.00  0.00    +0.000 F 
ENDBRANCH   6  27
TORSDOF 4
ENDMDL
