MODEL 1
REMARK VINA RESULT:      -8.7      0.000      0.000
REMARK  Name = 
REMARK  4 active torsions:
REMARK  status: ('A' for Active; 'I' for Inactive)
REMARK    1  A    between atoms: C_2  and  C_23
REMARK    2  A    between atoms: N_3  and  C_4
REMARK    3  A    between atoms: C_4  and  C_5
REMARK    4  A    between atoms: C_10  and  C_11
REMARK                            x       y       z     vdW  Elec       q    Type
REMARK                         _______ _______ _______ _____ _____    ______ ____
ROOT
ATOM      1  C   UNL     1       7.337   7.496  17.153  0.00  0.00    +0.000 C 
ATOM      2  O   UNL     1       8.423   7.210  16.638  0.00  0.00    +0.000 OA
ATOM      3  N   UNL     1       6.270   6.595  17.174  0.00  0.00    +0.000 N 
ATOM      4  C   UNL     1       6.587   5.188  16.920  0.00  0.00    +0.000 C 
ATOM      5  C   UNL     1       5.411   4.406  16.335  0.00  0.00    +0.000 C 
ATOM      6  C   UNL     1       4.101   4.598  17.116  0.00  0.00    +0.000 C 
ATOM      7  C   UNL     1       3.832   6.101  17.270  0.00  0.00    +0.000 C 
ATOM      8  C   UNL     1       5.008   6.872  17.865  0.00  0.00    +0.000 C 
ENDROOT
BRANCH   6   9
ATOM      9  C   UNL     1       4.059   3.843  18.422  0.00  0.00    +0.000 A 
ATOM     10  N   UNL     1       5.167   3.243  18.881  0.00  0.00    +0.000 NA
ATOM     11  O   UNL     1       4.818   2.628  20.062  0.00  0.00    +0.000 OA
ATOM     12  C   UNL     1       3.509   2.859  20.326  0.00  0.00    +0.000 A 
ATOM     13  C   UNL     1       2.817   2.388  21.435  0.00  0.00    +0.000 A 
ATOM     14  C   UNL     1       1.478   2.755  21.505  0.00  0.00    +0.000 A 
ATOM     15  F   UNL     1       0.746   2.336  22.546  0.00  0.00    +0.000 F 
ATOM     16  C   UNL     1       0.875   3.542  20.525  0.00  0.00    +0.000 A 
ATOM     17  C   UNL     1       1.606   4.000  19.415  0.00  0.00    +0.000 A 
ATOM     18  C   UNL     1       2.965   3.640  19.317  0.00  0.00    +0.000 A 
ENDBRANCH   6   9
BRANCH   1  19
ATOM     19  C   UNL     1       7.103   8.929  17.646  0.00  0.00    +0.000 C 
BRANCH  19  22
ATOM     20  O   UNL     1       7.971  11.595  17.341  0.00  0.00    +0.000 OA
ATOM     21  C   UNL     1       8.674  10.804  17.950  0.00  0.00    +0.000 C 
ATOM     22  N   UNL     1       8.351   9.480  18.138  0.00  0.00    +0.000 N 
ATOM     23  H   UNL     1       8.835   8.939  18.845  0.00  0.00    +0.000 HD
BRANCH  21  24
ATOM     24  C   UNL     1       9.953  11.254  18.550  0.00  0.00    +0.000 A 
ATOM     25  C   UNL     1      10.997  11.771  17.780  0.00  0.00    +0.000 A 
ATOM     26  C   UNL     1      12.163  12.195  18.411  0.00  0.00    +0.000 A 
ATOM     27  C   UNL     1      12.240  12.088  19.792  0.00  0.00    +0.000 A 
ATOM     28  N   UNL     1      11.243  11.604  20.566  0.00  0.00    +0.000 NA
ATOM     29  C   UNL     1      10.113  11.205  19.927  0.00  0.00    +0.000 A 
ENDBRANCH  21  24
ENDBRANCH  19  22
ENDBRANCH   1  19
TORSDOF 4
ENDMDL
MODEL 2
REMARK VINA RESULT:      -8.7      1.387      1.671
REMARK  Name = 
REMARK  4 active torsions:
REMARK  status: ('A' for Active; 'I' for Inactive)
REMARK    1  A    between atoms: C_2  and  C_23
REMARK    2  A    between atoms: N_3  and  C_4
REMARK    3  A    between atoms: C_4  and  C_5
REMARK    4  A    between atoms: C_10  and  C_11
REMARK                            x       y       z     vdW  Elec       q    Type
REMARK                         _______ _______ _______ _____ _____    ______ ____
ROOT
ATOM      1  C   UNL     1       7.512   7.009  18.209  0.00  0.00    +0.000 C 
ATOM      2  O   UNL     1       8.418   6.655  18.970  0.00  0.00    +0.000 OA
ATOM      3  N   UNL     1       6.522   6.121  17.778  0.00  0.00    +0.000 N 
ATOM      4  C   UNL     1       6.363   4.884  18.545  0.00  0.00    +0.000 C 
ATOM      5  C   UNL     1       5.784   3.738  17.717  0.00  0.00    +0.000 C 
ATOM      6  C   UNL     1       4.520   4.128  16.934  0.00  0.00    +0.000 C 
ATOM      7  C   UNL     1       4.815   5.395  16.119  0.00  0.00    +0.000 C 
ATOM      8  C   UNL     1       5.383   6.538  16.957  0.00  0.00    +0.000 C 
ENDROOT
BRANCH   6   9
ATOM      9  C   UNL     1       3.286   4.240  17.793  0.00  0.00    +0.000 A 
ATOM     10  N   UNL     1       2.280   5.042  17.413  0.00  0.00    +0.000 NA
ATOM     11  O   UNL     1       1.316   4.953  18.393  0.00  0.00    +0.000 OA
ATOM     12  C   UNL     1       1.728   4.095  19.358  0.00  0.00    +0.000 A 
ATOM     13  C   UNL     1       1.008   3.766  20.501  0.00  0.00    +0.000 A 
ATOM     14  C   UNL     1       1.624   2.856  21.353  0.00  0.00    +0.000 A 
ATOM     15  F   UNL     1       0.990   2.492  22.476  0.00  0.00    +0.000 F 
ATOM     16  C   UNL     1       2.878   2.315  21.076  0.00  0.00    +0.000 A 
ATOM     17  C   UNL     1       3.578   2.673  19.911  0.00  0.00    +0.000 A 
ATOM     18  C   UNL     1       2.979   3.596  19.030  0.00  0.00    +0.000 A 
ENDBRANCH   6   9
BRANCH   1  19
ATOM     19  C   UNL     1       7.560   8.413  17.598  0.00  0.00    +0.000 C 
BRANCH  19  22
ATOM     20  O   UNL     1       7.965  11.200  17.424  0.00  0.00    +0.000 OA
ATOM     21  C   UNL     1       8.767  10.517  18.041  0.00  0.00    +0.000 C 
ATOM     22  N   UNL     1       8.671   9.151  18.169  0.00  0.00    +0.000 N 
ATOM     23  H   UNL     1       9.211   8.672  18.881  0.00  0.00    +0.000 HD
BRANCH  21  24
ATOM     24  C   UNL     1       9.922  11.155  18.718  0.00  0.00    +0.000 A 
ATOM     25  C   UNL     1      11.062  11.563  18.022  0.00  0.00    +0.000 A 
ATOM     26  C   UNL     1      12.101  12.175  18.717  0.00  0.00    +0.000 A 
ATOM     27  C   UNL     1      11.960  12.359  20.085  0.00  0.00    +0.000 A 
ATOM     28  N   UNL     1      10.864  11.987  20.784  0.00  0.00    +0.000 NA
ATOM     29  C   UNL     1       9.862  11.399  20.082  0.00  0.00    +0.000 A 
ENDBRANCH  21  24
ENDBRANCH  19  22
ENDBRANCH   1  19
TORSDOF 4
ENDMDL
MODEL 3
REMARK VINA RESULT:      -8.1      1.812      2.261
REMARK  Name = 
REMARK  4 active torsions:
REMARK  status: ('A' for Active; 'I' for Inactive)
REMARK    1  A    between atoms: C_2  and  C_23
REMARK    2  A    between atoms: N_3  and  C_4
REMARK    3  A    between atoms: C_4  and  C_5
REMARK    4  A    between atoms: C_10  and  C_11
REMARK                            x       y       z     vdW  Elec       q    Type
REMARK                         _______ _______ _______ _____ _____    ______ ____
ROOT
ATOM      1  C   UNL     1       7.905   7.598  18.258  0.00  0.00    +0.000 C 
ATOM      2  O   UNL     1       8.806   7.283  19.041  0.00  0.00    +0.000 OA
ATOM      3  N   UNL     1       6.919   6.690  17.864  0.00  0.00    +0.000 N 
ATOM      4  C   UNL     1       6.754   5.492  18.689  0.00  0.00    +0.000 C 
ATOM      5  C   UNL     1       6.181   4.307  17.914  0.00  0.00    +0.000 C 
ATOM      6  C   UNL     1       4.923   4.658  17.104  0.00  0.00    +0.000 C 
ATOM      7  C   UNL     1       5.222   5.883  16.230  0.00  0.00    +0.000 C 
ATOM      8  C   UNL     1       5.785   7.066  17.015  0.00  0.00    +0.000 C 
ENDROOT
BRANCH   6   9
ATOM      9  C   UNL     1       3.682   4.811  17.948  0.00  0.00    +0.000 A 
ATOM     10  N   UNL     1       2.826   5.813  17.699  0.00  0.00    +0.000 NA
ATOM     11  O   UNL     1       1.818   5.708  18.631  0.00  0.00    +0.000 OA
ATOM     12  C   UNL     1       2.053   4.644  19.437  0.00  0.00    +0.000 A 
ATOM     13  C   UNL     1       1.242   4.239  20.491  0.00  0.00    +0.000 A 
ATOM     14  C   UNL     1       1.676   3.112  21.180  0.00  0.00    +0.000 A 
ATOM     15  F   UNL     1       0.946   2.663  22.210  0.00  0.00    +0.000 F 
ATOM     16  C   UNL     1       2.846   2.438  20.833  0.00  0.00    +0.000 A 
ATOM     17  C   UNL     1       3.642   2.878  19.761  0.00  0.00    +0.000 A 
ATOM     18  C   UNL     1       3.228   4.020  19.047  0.00  0.00    +0.000 A 
ENDBRANCH   6   9
BRANCH   1  19
ATOM     19  C   UNL     1       7.957   8.972  17.579  0.00  0.00    +0.000 C 
BRANCH  19  22
ATOM     20  O   UNL     1      10.155  10.739  17.545  0.00  0.00    +0.000 OA
ATOM     21  C   UNL     1       9.342  10.815  18.452  0.00  0.00    +0.000 C 
ATOM     22  N   UNL     1       8.248   9.990  18.571  0.00  0.00    +0.000 N 
ATOM     23  H   UNL     1       7.487  10.247  19.189  0.00  0.00    +0.000 HD
BRANCH  21  24
ATOM     24  C   UNL     1       9.494  11.849  19.505  0.00  0.00    +0.000 A 
ATOM     25  C   UNL     1       9.448  11.540  20.866  0.00  0.00    +0.000 A 
ATOM     26  C   UNL     1       9.621  12.557  21.800  0.00  0.00    +0.000 A 
ATOM     27  C   UNL     1       9.837  13.847  21.338  0.00  0.00    +0.000 A 
ATOM     28  N   UNL     1       9.901  14.175  20.028  0.00  0.00    +0.000 NA
ATOM     29  C   UNL     1       9.737  13.164  19.136  0.00  0.00    +0.000 A 
ENDBRANCH  21  24
ENDBRANCH  19  22
ENDBRANCH   1  19
TORSDOF 4
ENDMDL
MODEL 4
REMARK VINA RESULT:      -8.0      6.054      8.445
REMARK  Name = 
REMARK  4 active torsions:
REMARK  status: ('A' for Active; 'I' for Inactive)
REMARK    1  A    between atoms: C_2  and  C_23
REMARK    2  A    between atoms: N_3  and  C_4
REMARK    3  A    between atoms: C_4  and  C_5
REMARK    4  A    between atoms: C_10  and  C_11
REMARK                            x       y       z     vdW  Elec       q    Type
REMARK                         _______ _______ _______ _____ _____    ______ ____
ROOT
ATOM      1  C   UNL     1       1.503   8.308  19.928  0.00  0.00    +0.000 C 
ATOM      2  O   UNL     1       1.002   9.058  19.084  0.00  0.00    +0.000 OA
ATOM      3  N   UNL     1       1.943   7.022  19.604  0.00  0.00    +0.000 N 
ATOM      4  C   UNL     1       2.152   6.732  18.184  0.00  0.00    +0.000 C 
ATOM      5  C   UNL     1       1.998   5.249  17.847  0.00  0.00    +0.000 C 
ATOM      6  C   UNL     1       2.802   4.326  18.776  0.00  0.00    +0.000 C 
ATOM      7  C   UNL     1       2.463   4.670  20.232  0.00  0.00    +0.000 C 
ATOM      8  C   UNL     1       2.630   6.152  20.562  0.00  0.00    +0.000 C 
ENDROOT
BRANCH   6   9
ATOM      9  C   UNL     1       4.283   4.320  18.489  0.00  0.00    +0.000 A 
ATOM     10  N   UNL     1       5.154   4.089  19.484  0.00  0.00    +0.000 NA
ATOM     11  O   UNL     1       6.412   4.167  18.929  0.00  0.00    +0.000 OA
ATOM     12  C   UNL     1       6.309   4.434  17.605  0.00  0.00    +0.000 A 
ATOM     13  C   UNL     1       7.378   4.584  16.730  0.00  0.00    +0.000 A 
ATOM     14  C   UNL     1       7.037   4.850  15.409  0.00  0.00    +0.000 A 
ATOM     15  F   UNL     1       8.015   5.009  14.507  0.00  0.00    +0.000 F 
ATOM     16  C   UNL     1       5.710   4.960  14.996  0.00  0.00    +0.000 A 
ATOM     17  C   UNL     1       4.653   4.804  15.910  0.00  0.00    +0.000 A 
ATOM     18  C   UNL     1       4.971   4.537  17.257  0.00  0.00    +0.000 A 
ENDBRANCH   6   9
BRANCH   1  19
ATOM     19  C   UNL     1       1.500   8.738  21.399  0.00  0.00    +0.000 C 
BRANCH  19  22
ATOM     20  O   UNL     1       1.232  11.546  21.410  0.00  0.00    +0.000 OA
ATOM     21  C   UNL     1       0.256  10.852  21.646  0.00  0.00    +0.000 C 
ATOM     22  N   UNL     1       0.285   9.477  21.684  0.00  0.00    +0.000 N 
ATOM     23  H   UNL     1      -0.582   8.954  21.640  0.00  0.00    +0.000 HD
BRANCH  21  24
ATOM     24  C   UNL     1      -1.061  11.482  21.903  0.00  0.00    +0.000 A 
ATOM     25  C   UNL     1      -1.664  11.465  23.163  0.00  0.00    +0.000 A 
ATOM     26  C   UNL     1      -2.892  12.096  23.338  0.00  0.00    +0.000 A 
ATOM     27  C   UNL     1      -3.472  12.724  22.246  0.00  0.00    +0.000 A 
ATOM     28  N   UNL     1      -2.908  12.770  21.018  0.00  0.00    +0.000 NA
ATOM     29  C   UNL     1      -1.706  12.154  20.874  0.00  0.00    +0.000 A 
ENDBRANCH  21  24
ENDBRANCH  19  22
ENDBRANCH   1  19
TORSDOF 4
ENDMDL
MODEL 5
REMARK VINA RESULT:      -8.0      1.694      2.172
REMARK  Name = 
REMARK  4 active torsions:
REMARK  status: ('A' for Active; 'I' for Inactive)
REMARK    1  A    between atoms: C_2  and  C_23
REMARK    2  A    between atoms: N_3  and  C_4
REMARK    3  A    between atoms: C_4  and  C_5
REMARK    4  A    between atoms: C_10  and  C_11
REMARK                            x       y       z     vdW  Elec       q    Type
REMARK                         _______ _______ _______ _____ _____    ______ ____
ROOT
ATOM      1  C   UNL     1       8.079   8.149  18.228  0.00  0.00    +0.000 C 
ATOM      2  O   UNL     1       8.948   8.015  19.095  0.00  0.00    +0.000 OA
ATOM      3  N   UNL     1       7.270   7.084  17.824  0.00  0.00    +0.000 N 
ATOM      4  C   UNL     1       7.214   5.921  18.711  0.00  0.00    +0.000 C 
ATOM      5  C   UNL     1       6.884   4.622  17.976  0.00  0.00    +0.000 C 
ATOM      6  C   UNL     1       5.659   4.737  17.055  0.00  0.00    +0.000 C 
ATOM      7  C   UNL     1       5.848   5.945  16.127  0.00  0.00    +0.000 C 
ATOM      8  C   UNL     1       6.167   7.239  16.871  0.00  0.00    +0.000 C 
ENDROOT
BRANCH   6   9
ATOM      9  C   UNL     1       4.344   4.748  17.794  0.00  0.00    +0.000 A 
ATOM     10  N   UNL     1       3.377   5.600  17.421  0.00  0.00    +0.000 NA
ATOM     11  O   UNL     1       2.321   5.394  18.281  0.00  0.00    +0.000 OA
ATOM     12  C   UNL     1       2.639   4.418  19.165  0.00  0.00    +0.000 A 
ATOM     13  C   UNL     1       1.811   3.952  20.179  0.00  0.00    +0.000 A 
ATOM     14  C   UNL     1       2.343   2.937  20.967  0.00  0.00    +0.000 A 
ATOM     15  F   UNL     1       1.602   2.438  21.966  0.00  0.00    +0.000 F 
ATOM     16  C   UNL     1       3.621   2.425  20.749  0.00  0.00    +0.000 A 
ATOM     17  C   UNL     1       4.432   2.923  19.714  0.00  0.00    +0.000 A 
ATOM     18  C   UNL     1       3.919   3.955  18.903  0.00  0.00    +0.000 A 
ENDBRANCH   6   9
BRANCH   1  19
ATOM     19  C   UNL     1       7.987   9.476  17.467  0.00  0.00    +0.000 C 
BRANCH  19  22
ATOM     20  O   UNL     1       7.977  12.295  17.376  0.00  0.00    +0.000 OA
ATOM     21  C   UNL     1       8.959  11.715  17.811  0.00  0.00    +0.000 C 
ATOM     22  N   UNL     1       9.072  10.346  17.880  0.00  0.00    +0.000 N 
ATOM     23  H   UNL     1       9.788   9.928  18.463  0.00  0.00    +0.000 HD
BRANCH  21  24
ATOM     24  C   UNL     1      10.119  12.490  18.315  0.00  0.00    +0.000 A 
ATOM     25  C   UNL     1      10.248  12.851  19.658  0.00  0.00    +0.000 A 
ATOM     26  C   UNL     1      11.374  13.559  20.067  0.00  0.00    +0.000 A 
ATOM     27  C   UNL     1      12.332  13.878  19.116  0.00  0.00    +0.000 A 
ATOM     28  N   UNL     1      12.243  13.531  17.813  0.00  0.00    +0.000 NA
ATOM     29  C   UNL     1      11.139  12.834  17.440  0.00  0.00    +0.000 A 
ENDBRANCH  21  24
ENDBRANCH  19  22
ENDBRANCH   1  19
TORSDOF 4
ENDMDL
MODEL 6
REMARK VINA RESULT:      -7.9      5.051      7.371
REMARK  Name = 
REMARK  4 active torsions:
REMARK  status: ('A' for Active; 'I' for Inactive)
REMARK    1  A    between atoms: C_2  and  C_23
REMARK    2  A    between atoms: N_3  and  C_4
REMARK    3  A    between atoms: C_4  and  C_5
REMARK    4  A    between atoms: C_10  and  C_11
REMARK                            x       y       z     vdW  Elec       q    Type
REMARK                         _______ _______ _______ _____ _____    ______ ____
ROOT
ATOM      1  C   UNL     1       6.954   4.853  17.057  0.00  0.00    +0.000 C 
ATOM      2  O   UNL     1       7.977   4.482  17.642  0.00  0.00    +0.000 OA
ATOM      3  N   UNL     1       5.678   4.585  17.562  0.00  0.00    +0.000 N 
ATOM      4  C   UNL     1       5.591   4.202  18.972  0.00  0.00    +0.000 C 
ATOM      5  C   UNL     1       4.368   3.341  19.284  0.00  0.00    +0.000 C 
ATOM      6  C   UNL     1       3.056   3.922  18.735  0.00  0.00    +0.000 C 
ATOM      7  C   UNL     1       3.235   4.227  17.242  0.00  0.00    +0.000 C 
ATOM      8  C   UNL     1       4.454   5.098  16.942  0.00  0.00    +0.000 C 
ENDROOT
BRANCH   6   9
ATOM      9  C   UNL     1       2.534   5.094  19.529  0.00  0.00    +0.000 A 
ATOM     10  N   UNL     1       2.217   4.934  20.823  0.00  0.00    +0.000 NA
ATOM     11  O   UNL     1       1.757   6.154  21.267  0.00  0.00    +0.000 OA
ATOM     12  C   UNL     1       1.802   7.053  20.253  0.00  0.00    +0.000 A 
ATOM     13  C   UNL     1       1.412   8.384  20.342  0.00  0.00    +0.000 A 
ATOM     14  C   UNL     1       1.551   9.127  19.175  0.00  0.00    +0.000 A 
ATOM     15  F   UNL     1       1.193  10.418  19.184  0.00  0.00    +0.000 F 
ATOM     16  C   UNL     1       2.049   8.569  17.998  0.00  0.00    +0.000 A 
ATOM     17  C   UNL     1       2.433   7.218  17.946  0.00  0.00    +0.000 A 
ATOM     18  C   UNL     1       2.299   6.440  19.113  0.00  0.00    +0.000 A 
ENDBRANCH   6   9
BRANCH   1  19
ATOM     19  C   UNL     1       7.079   5.486  15.667  0.00  0.00    +0.000 C 
BRANCH  19  22
ATOM     20  O   UNL     1       7.808   5.527  12.943  0.00  0.00    +0.000 OA
ATOM     21  C   UNL     1       7.096   4.626  13.357  0.00  0.00    +0.000 C 
ATOM     22  N   UNL     1       6.669   4.525  14.660  0.00  0.00    +0.000 N 
ATOM     23  H   UNL     1       6.294   3.648  15.001  0.00  0.00    +0.000 HD
BRANCH  21  24
ATOM     24  C   UNL     1       6.649   3.549  12.440  0.00  0.00    +0.000 A 
ATOM     25  C   UNL     1       7.548   2.707  11.783  0.00  0.00    +0.000 A 
ATOM     26  C   UNL     1       7.058   1.702  10.954  0.00  0.00    +0.000 A 
ATOM     27  C   UNL     1       5.684   1.575  10.815  0.00  0.00    +0.000 A 
ATOM     28  N   UNL     1       4.788   2.366  11.447  0.00  0.00    +0.000 NA
ATOM     29  C   UNL     1       5.291   3.333  12.257  0.00  0.00    +0.000 A 
ENDBRANCH  21  24
ENDBRANCH  19  22
ENDBRANCH   1  19
TORSDOF 4
ENDMDL
MODEL 7
REMARK VINA RESULT:      -7.7      2.052      2.496
REMARK  Name = 
REMARK  4 active torsions:
REMARK  status: ('A' for Active; 'I' for Inactive)
REMARK    1  A    between atoms: C_2  and  C_23
REMARK    2  A    between atoms: N_3  and  C_4
REMARK    3  A    between atoms: C_4  and  C_5
REMARK    4  A    between atoms: C_10  and  C_11
REMARK                            x       y       z     vdW  Elec       q    Type
REMARK                         _______ _______ _______ _____ _____    ______ ____
ROOT
ATOM      1  C   UNL     1       8.286   8.633  18.345  0.00  0.00    +0.000 C 
ATOM      2  O   UNL     1       9.232   8.660  19.138  0.00  0.00    +0.000 OA
ATOM      3  N   UNL     1       7.611   7.448  18.041  0.00  0.00    +0.000 N 
ATOM      4  C   UNL     1       7.795   6.326  18.964  0.00  0.00    +0.000 C 
ATOM      5  C   UNL     1       7.599   4.965  18.298  0.00  0.00    +0.000 C 
ATOM      6  C   UNL     1       6.301   4.866  17.481  0.00  0.00    +0.000 C 
ATOM      7  C   UNL     1       6.239   6.049  16.505  0.00  0.00    +0.000 C 
ATOM      8  C   UNL     1       6.425   7.406  17.182  0.00  0.00    +0.000 C 
ENDROOT
BRANCH   6   9
ATOM      9  C   UNL     1       5.062   4.720  18.328  0.00  0.00    +0.000 A 
ATOM     10  N   UNL     1       4.912   5.478  19.425  0.00  0.00    +0.000 NA
ATOM     11  O   UNL     1       3.712   5.111  19.993  0.00  0.00    +0.000 OA
ATOM     12  C   UNL     1       3.132   4.143  19.243  0.00  0.00    +0.000 A 
ATOM     13  C   UNL     1       1.913   3.535  19.519  0.00  0.00    +0.000 A 
ATOM     14  C   UNL     1       1.506   2.569  18.606  0.00  0.00    +0.000 A 
ATOM     15  F   UNL     1       0.341   1.938  18.808  0.00  0.00    +0.000 F 
ATOM     16  C   UNL     1       2.273   2.236  17.491  0.00  0.00    +0.000 A 
ATOM     17  C   UNL     1       3.503   2.871  17.244  0.00  0.00    +0.000 A 
ATOM     18  C   UNL     1       3.941   3.853  18.155  0.00  0.00    +0.000 A 
ENDBRANCH   6   9
BRANCH   1  19
ATOM     19  C   UNL     1       7.941   9.901  17.555  0.00  0.00    +0.000 C 
BRANCH  19  22
ATOM     20  O   UNL     1       7.629  12.664  17.081  0.00  0.00    +0.000 OA
ATOM     21  C   UNL     1       8.661  12.259  17.591  0.00  0.00    +0.000 C 
ATOM     22  N   UNL     1       8.920  10.932  17.847  0.00  0.00    +0.000 N 
ATOM     23  H   UNL     1       9.667  10.677  18.482  0.00  0.00    +0.000 HD
BRANCH  21  24
ATOM     24  C   UNL     1       9.722  13.216  17.986  0.00  0.00    +0.000 A 
ATOM     25  C   UNL     1      11.078  12.961  17.765  0.00  0.00    +0.000 A 
ATOM     26  C   UNL     1      12.020  13.913  18.141  0.00  0.00    +0.000 A 
ATOM     27  C   UNL     1      11.571  15.090  18.723  0.00  0.00    +0.000 A 
ATOM     28  N   UNL     1      10.266  15.372  18.938  0.00  0.00    +0.000 NA
ATOM     29  C   UNL     1       9.366  14.430  18.556  0.00  0.00    +0.000 A 
ENDBRANCH  21  24
ENDBRANCH  19  22
ENDBRANCH   1  19
TORSDOF 4
ENDMDL
MODEL 8
REMARK VINA RESULT:      -7.6      5.035      7.171
REMARK  Name = 
REMARK  4 active torsions:
REMARK  status: ('A' for Active; 'I' for Inactive)
REMARK    1  A    between atoms: C_2  and  C_23
REMARK    2  A    between atoms: N_3  and  C_4
REMARK    3  A    between atoms: C_4  and  C_5
REMARK    4  A    between atoms: C_10  and  C_11
REMARK                            x       y       z     vdW  Elec       q    Type
REMARK                         _______ _______ _______ _____ _____    ______ ____
ROOT
ATOM      1  C   UNL     1       5.415   4.235  19.052  0.00  0.00    +0.000 C 
ATOM      2  O   UNL     1       5.401   3.153  19.648  0.00  0.00    +0.000 OA
ATOM      3  N   UNL     1       4.253   4.987  18.860  0.00  0.00    +0.000 N 
ATOM      4  C   UNL     1       3.104   4.657  19.706  0.00  0.00    +0.000 C 
ATOM      5  C   UNL     1       1.765   5.013  19.062  0.00  0.00    +0.000 C 
ATOM      6  C   UNL     1       1.715   6.446  18.510  0.00  0.00    +0.000 C 
ATOM      7  C   UNL     1       2.924   6.665  17.590  0.00  0.00    +0.000 C 
ATOM      8  C   UNL     1       4.258   6.317  18.246  0.00  0.00    +0.000 C 
ENDROOT
BRANCH   6   9
ATOM      9  C   UNL     1       1.574   7.502  19.578  0.00  0.00    +0.000 A 
ATOM     10  N   UNL     1       1.644   7.154  20.872  0.00  0.00    +0.000 NA
ATOM     11  O   UNL     1       1.463   8.310  21.599  0.00  0.00    +0.000 OA
ATOM     12  C   UNL     1       1.292   9.356  20.754  0.00  0.00    +0.000 A 
ATOM     13  C   UNL     1       1.081  10.674  21.139  0.00  0.00    +0.000 A 
ATOM     14  C   UNL     1       0.939  11.586  20.099  0.00  0.00    +0.000 A 
ATOM     15  F   UNL     1       0.730  12.876  20.394  0.00  0.00    +0.000 F 
ATOM     16  C   UNL     1       1.004  11.198  18.762  0.00  0.00    +0.000 A 
ATOM     17  C   UNL     1       1.217   9.854  18.409  0.00  0.00    +0.000 A 
ATOM     18  C   UNL     1       1.362   8.907  19.443  0.00  0.00    +0.000 A 
ENDBRANCH   6   9
BRANCH   1  19
ATOM     19  C   UNL     1       6.710   4.692  18.371  0.00  0.00    +0.000 C 
BRANCH  19  22
ATOM     20  O   UNL     1       7.365   6.422  16.241  0.00  0.00    +0.000 OA
ATOM     21  C   UNL     1       7.013   5.280  15.996  0.00  0.00    +0.000 C 
ATOM     22  N   UNL     1       6.654   4.365  16.959  0.00  0.00    +0.000 N 
ATOM     23  H   UNL     1       6.608   3.380  16.726  0.00  0.00    +0.000 HD
BRANCH  21  24
ATOM     24  C   UNL     1       6.962   4.801  14.593  0.00  0.00    +0.000 A 
ATOM     25  C   UNL     1       6.059   3.824  14.170  0.00  0.00    +0.000 A 
ATOM     26  C   UNL     1       6.051   3.437  12.833  0.00  0.00    +0.000 A 
ATOM     27  C   UNL     1       6.948   4.045  11.967  0.00  0.00    +0.000 A 
ATOM     28  N   UNL     1       7.824   5.003  12.342  0.00  0.00    +0.000 NA
ATOM     29  C   UNL     1       7.807   5.368  13.650  0.00  0.00    +0.000 A 
ENDBRANCH  21  24
ENDBRANCH  19  22
ENDBRANCH   1  19
TORSDOF 4
ENDMDL
MODEL 9
REMARK VINA RESULT:      -7.6      4.886      7.397
REMARK  Name = 
REMARK  4 active torsions:
REMARK  status: ('A' for Active; 'I' for Inactive)
REMARK    1  A    between atoms: C_2  and  C_23
REMARK    2  A    between atoms: N_3  and  C_4
REMARK    3  A    between atoms: C_4  and  C_5
REMARK    4  A    between atoms: C_10  and  C_11
REMARK                            x       y       z     vdW  Elec       q    Type
REMARK                         _______ _______ _______ _____ _____    ______ ____
ROOT
ATOM      1  C   UNL     1       6.650   5.178  17.910  0.00  0.00    +0.000 C 
ATOM      2  O   UNL     1       7.468   4.626  18.653  0.00  0.00    +0.000 OA
ATOM      3  N   UNL     1       5.281   5.181  18.194  0.00  0.00    +0.000 N 
ATOM      4  C   UNL     1       4.890   4.859  19.568  0.00  0.00    +0.000 C 
ATOM      5  C   UNL     1       3.485   4.265  19.665  0.00  0.00    +0.000 C 
ATOM      6  C   UNL     1       2.423   5.082  18.912  0.00  0.00    +0.000 C 
ATOM      7  C   UNL     1       2.902   5.308  17.472  0.00  0.00    +0.000 C 
ATOM      8  C   UNL     1       4.303   5.911  17.385  0.00  0.00    +0.000 C 
ENDROOT
BRANCH   6   9
ATOM      9  C   UNL     1       2.023   6.353  19.618  0.00  0.00    +0.000 A 
ATOM     10  N   UNL     1       1.763   6.330  20.934  0.00  0.00    +0.000 NA
ATOM     11  O   UNL     1       1.410   7.614  21.285  0.00  0.00    +0.000 OA
ATOM     12  C   UNL     1       1.464   8.415  20.193  0.00  0.00    +0.000 A 
ATOM     13  C   UNL     1       1.170   9.774  20.178  0.00  0.00    +0.000 A 
ATOM     14  C   UNL     1       1.299  10.399  18.943  0.00  0.00    +0.000 A 
ATOM     15  F   UNL     1       1.030  11.709  18.850  0.00  0.00    +0.000 F 
ATOM     16  C   UNL     1       1.697   9.706  17.801  0.00  0.00    +0.000 A 
ATOM     17  C   UNL     1       1.985   8.331  17.854  0.00  0.00    +0.000 A 
ATOM     18  C   UNL     1       1.859   7.670  19.093  0.00  0.00    +0.000 A 
ENDBRANCH   6   9
BRANCH   1  19
ATOM     19  C   UNL     1       7.125   5.738  16.565  0.00  0.00    +0.000 C 
BRANCH  19  22
ATOM     20  O   UNL     1       8.071   5.644  13.910  0.00  0.00    +0.000 OA
ATOM     21  C   UNL     1       7.110   4.961  14.226  0.00  0.00    +0.000 C 
ATOM     22  N   UNL     1       6.560   4.949  15.487  0.00  0.00    +0.000 N 
ATOM     23  H   UNL     1       5.935   4.199  15.757  0.00  0.00    +0.000 HD
BRANCH  21  24
ATOM     24  C   UNL     1       6.471   4.068  13.229  0.00  0.00    +0.000 A 
ATOM     25  C   UNL     1       5.085   3.946  13.117  0.00  0.00    +0.000 A 
ATOM     26  C   UNL     1       4.552   3.106  12.144  0.00  0.00    +0.000 A 
ATOM     27  C   UNL     1       5.427   2.420  11.315  0.00  0.00    +0.000 A 
ATOM     28  N   UNL     1       6.773   2.528  11.389  0.00  0.00    +0.000 NA
ATOM     29  C   UNL     1       7.268   3.360  12.341  0.00  0.00    +0.000 A 
ENDBRANCH  21  24
ENDBRANCH  19  22
ENDBRANCH   1  19
TORSDOF 4
ENDMDL
