MODEL 1
REMARK VINA RESULT:      -9.3      0.000      0.000
REMARK  Name = 
REMARK  3 active torsions:
REMARK  status: ('A' for Active; 'I' for Inactive)
REMARK    1  A    between atoms: C_1  and  C_2
REMARK    2  A    between atoms: C_7  and  C_8
REMARK    3  A    between atoms: N_10  and  C_11
REMARK                            x       y       z     vdW  Elec       q    Type
REMARK                         _______ _______ _______ _____ _____    ______ ____
ROOT
ATOM      1  C   UNL     1       1.885   8.236  18.917  0.00  0.00    +0.000 C 
ATOM      2  O   UNL     1       1.820   8.667  17.773  0.00  0.00    +0.000 OA
ATOM      3  N   UNL     1       2.584   7.088  19.276  0.00  0.00    +0.000 N 
ATOM      4  H   UNL     1       2.255   6.586  20.093  0.00  0.00    +0.000 HD
ENDROOT
BRANCH   3   5
ATOM      5  C   UNL     1       3.302   6.343  18.307  0.00  0.00    +0.000 A 
ATOM      6  C   UNL     1       4.515   6.828  17.822  0.00  0.00    +0.000 A 
ATOM      7  C   UNL     1       5.301   6.005  17.005  0.00  0.00    +0.000 A 
ATOM      8  C   UNL     1       6.665   6.414  16.612  0.00  0.00    +0.000 A 
ATOM      9  O   UNL     1       7.128   7.506  16.901  0.00  0.00    +0.000 OA
ATOM     10  N   UNL     1       7.387   5.472  15.927  0.00  0.00    +0.000 N 
ATOM     11  C   UNL     1       6.871   4.266  15.556  0.00  0.00    +0.000 A 
ATOM     12  N   UNL     1       5.676   3.873  15.835  0.00  0.00    +0.000 NA
ATOM     13  C   UNL     1       4.869   4.734  16.603  0.00  0.00    +0.000 A 
ATOM     14  C   UNL     1       3.614   4.294  17.023  0.00  0.00    +0.000 A 
ATOM     15  C   UNL     1       2.853   5.085  17.887  0.00  0.00    +0.000 A 
ATOM     16  F   UNL     1       1.649   4.638  18.278  0.00  0.00    +0.000 F 
ATOM     17  H   UNL     1       8.333   5.731  15.681  0.00  0.00    +0.000 HD
ENDBRANCH   3   5
BRANCH   1  24
ATOM     18  C   UNL     1      -2.617  12.727  23.625  0.00  0.00    +0.000 C 
ATOM     19  C   UNL     1      -1.899  12.013  22.518  0.00  0.00    +0.000 A 
ATOM     20  C   UNL     1      -2.071  12.398  21.196  0.00  0.00    +0.000 A 
ATOM     21  C   UNL     1      -1.366  11.712  20.207  0.00  0.00    +0.000 A 
ATOM     22  C   UNL     1      -0.509  10.665  20.564  0.00  0.00    +0.000 A 
ATOM     23  C   UNL     1       0.237   9.953  19.604  0.00  0.00    +0.000 A 
ATOM     24  C   UNL     1       1.087   8.906  19.984  0.00  0.00    +0.000 A 
ATOM     25  C   UNL     1       1.195   8.579  21.337  0.00  0.00    +0.000 A 
ATOM     26  C   UNL     1       0.449   9.296  22.286  0.00  0.00    +0.000 A 
ATOM     27  C   UNL     1      -0.402  10.336  21.929  0.00  0.00    +0.000 A 
ATOM     28  N   UNL     1      -1.085  10.995  22.879  0.00  0.00    +0.000 NA
ENDBRANCH   1  24
TORSDOF 2
ENDMDL
MODEL 2
REMARK VINA RESULT:      -9.3      0.781      1.529
REMARK  Name = 
REMARK  3 active torsions:
REMARK  status: ('A' for Active; 'I' for Inactive)
REMARK    1  A    between atoms: C_1  and  C_2
REMARK    2  A    between atoms: C_7  and  C_8
REMARK    3  A    between atoms: N_10  and  C_11
REMARK                            x       y       z     vdW  Elec       q    Type
REMARK                         _______ _______ _______ _____ _____    ______ ____
ROOT
ATOM      1  C   UNL     1       1.968   8.754  18.236  0.00  0.00    +0.000 C 
ATOM      2  O   UNL     1       2.195   9.076  17.077  0.00  0.00    +0.000 OA
ATOM      3  N   UNL     1       2.415   7.571  18.816  0.00  0.00    +0.000 N 
ATOM      4  H   UNL     1       1.861   7.195  19.577  0.00  0.00    +0.000 HD
ENDROOT
BRANCH   3   5
ATOM      5  C   UNL     1       3.205   6.655  18.078  0.00  0.00    +0.000 A 
ATOM      6  C   UNL     1       4.467   7.037  17.628  0.00  0.00    +0.000 A 
ATOM      7  C   UNL     1       5.310   6.073  17.059  0.00  0.00    +0.000 A 
ATOM      8  C   UNL     1       6.712   6.398  16.727  0.00  0.00    +0.000 A 
ATOM      9  O   UNL     1       7.167   7.525  16.847  0.00  0.00    +0.000 OA
ATOM     10  N   UNL     1       7.477   5.342  16.305  0.00  0.00    +0.000 N 
ATOM     11  C   UNL     1       6.974   4.088  16.121  0.00  0.00    +0.000 A 
ATOM     12  N   UNL     1       5.751   3.757  16.355  0.00  0.00    +0.000 NA
ATOM     13  C   UNL     1       4.893   4.749  16.866  0.00  0.00    +0.000 A 
ATOM     14  C   UNL     1       3.596   4.399  17.241  0.00  0.00    +0.000 A 
ATOM     15  C   UNL     1       2.774   5.341  17.863  0.00  0.00    +0.000 A 
ATOM     16  F   UNL     1       1.530   4.977  18.216  0.00  0.00    +0.000 F 
ATOM     17  H   UNL     1       8.446   5.549  16.105  0.00  0.00    +0.000 HD
ENDBRANCH   3   5
BRANCH   1  24
ATOM     18  C   UNL     1      -2.713  12.330  23.519  0.00  0.00    +0.000 C 
ATOM     19  C   UNL     1      -1.731  11.500  22.744  0.00  0.00    +0.000 A 
ATOM     20  C   UNL     1      -1.058  10.449  23.349  0.00  0.00    +0.000 A 
ATOM     21  C   UNL     1      -0.168   9.698  22.579  0.00  0.00    +0.000 A 
ATOM     22  C   UNL     1       0.020  10.016  21.229  0.00  0.00    +0.000 A 
ATOM     23  C   UNL     1       0.894   9.278  20.406  0.00  0.00    +0.000 A 
ATOM     24  C   UNL     1       1.069   9.615  19.057  0.00  0.00    +0.000 A 
ATOM     25  C   UNL     1       0.357  10.695  18.531  0.00  0.00    +0.000 A 
ATOM     26  C   UNL     1      -0.514  11.422  19.359  0.00  0.00    +0.000 A 
ATOM     27  C   UNL     1      -0.699  11.105  20.701  0.00  0.00    +0.000 A 
ATOM     28  N   UNL     1      -1.550  11.828  21.445  0.00  0.00    +0.000 NA
ENDBRANCH   1  24
TORSDOF 2
ENDMDL
MODEL 3
REMARK VINA RESULT:      -8.6      1.344      1.591
REMARK  Name = 
REMARK  3 active torsions:
REMARK  status: ('A' for Active; 'I' for Inactive)
REMARK    1  A    between atoms: C_1  and  C_2
REMARK    2  A    between atoms: C_7  and  C_8
REMARK    3  A    between atoms: N_10  and  C_11
REMARK                            x       y       z     vdW  Elec       q    Type
REMARK                         _______ _______ _______ _____ _____    ______ ____
ROOT
ATOM      1  C   UNL     1       1.809   8.886  18.213  0.00  0.00    +0.000 C 
ATOM      2  O   UNL     1       2.217   9.274  17.125  0.00  0.00    +0.000 OA
ATOM      3  N   UNL     1       2.148   7.660  18.777  0.00  0.00    +0.000 N 
ATOM      4  H   UNL     1       1.479   7.249  19.418  0.00  0.00    +0.000 HD
ENDROOT
BRANCH   3   5
ATOM      5  C   UNL     1       3.032   6.775  18.111  0.00  0.00    +0.000 A 
ATOM      6  C   UNL     1       4.300   7.214  17.738  0.00  0.00    +0.000 A 
ATOM      7  C   UNL     1       5.227   6.287  17.245  0.00  0.00    +0.000 A 
ATOM      8  C   UNL     1       6.630   6.680  17.001  0.00  0.00    +0.000 A 
ATOM      9  O   UNL     1       7.017   7.830  17.129  0.00  0.00    +0.000 OA
ATOM     10  N   UNL     1       7.474   5.658  16.651  0.00  0.00    +0.000 N 
ATOM     11  C   UNL     1       7.050   4.377  16.459  0.00  0.00    +0.000 A 
ATOM     12  N   UNL     1       5.832   3.986  16.618  0.00  0.00    +0.000 NA
ATOM     13  C   UNL     1       4.892   4.940  17.051  0.00  0.00    +0.000 A 
ATOM     14  C   UNL     1       3.593   4.529  17.346  0.00  0.00    +0.000 A 
ATOM     15  C   UNL     1       2.683   5.436  17.894  0.00  0.00    +0.000 A 
ATOM     16  F   UNL     1       1.439   5.014  18.171  0.00  0.00    +0.000 F 
ATOM     17  H   UNL     1       8.442   5.912  16.512  0.00  0.00    +0.000 HD
ENDBRANCH   3   5
BRANCH   1  24
ATOM     18  C   UNL     1      -4.119  13.409  20.859  0.00  0.00    +0.000 C 
ATOM     19  C   UNL     1      -3.171  12.498  20.135  0.00  0.00    +0.000 A 
ATOM     20  C   UNL     1      -3.469  12.031  18.862  0.00  0.00    +0.000 A 
ATOM     21  C   UNL     1      -2.544  11.201  18.227  0.00  0.00    +0.000 A 
ATOM     22  C   UNL     1      -1.352  10.863  18.876  0.00  0.00    +0.000 A 
ATOM     23  C   UNL     1      -0.381  10.042  18.270  0.00  0.00    +0.000 A 
ATOM     24  C   UNL     1       0.805   9.714  18.940  0.00  0.00    +0.000 A 
ATOM     25  C   UNL     1       1.020  10.221  20.224  0.00  0.00    +0.000 A 
ATOM     26  C   UNL     1       0.047  11.041  20.818  0.00  0.00    +0.000 A 
ATOM     27  C   UNL     1      -1.138  11.375  20.170  0.00  0.00    +0.000 A 
ATOM     28  N   UNL     1      -2.030  12.171  20.781  0.00  0.00    +0.000 NA
ENDBRANCH   1  24
TORSDOF 2
ENDMDL
MODEL 4
REMARK VINA RESULT:      -8.5      1.192      1.685
REMARK  Name = 
REMARK  3 active torsions:
REMARK  status: ('A' for Active; 'I' for Inactive)
REMARK    1  A    between atoms: C_1  and  C_2
REMARK    2  A    between atoms: C_7  and  C_8
REMARK    3  A    between atoms: N_10  and  C_11
REMARK                            x       y       z     vdW  Elec       q    Type
REMARK                         _______ _______ _______ _____ _____    ______ ____
ROOT
ATOM      1  C   UNL     1       1.793   8.133  19.475  0.00  0.00    +0.000 C 
ATOM      2  O   UNL     1       2.217   7.435  20.387  0.00  0.00    +0.000 OA
ATOM      3  N   UNL     1       2.206   8.018  18.152  0.00  0.00    +0.000 N 
ATOM      4  H   UNL     1       2.149   8.853  17.579  0.00  0.00    +0.000 HD
ENDROOT
BRANCH   3   5
ATOM      5  C   UNL     1       3.157   7.038  17.772  0.00  0.00    +0.000 A 
ATOM      6  C   UNL     1       4.467   7.419  17.487  0.00  0.00    +0.000 A 
ATOM      7  C   UNL     1       5.438   6.429  17.290  0.00  0.00    +0.000 A 
ATOM      8  C   UNL     1       6.865   6.788  17.156  0.00  0.00    +0.000 A 
ATOM      9  O   UNL     1       7.245   7.947  17.123  0.00  0.00    +0.000 OA
ATOM     10  N   UNL     1       7.735   5.731  17.104  0.00  0.00    +0.000 N 
ATOM     11  C   UNL     1       7.324   4.431  17.094  0.00  0.00    +0.000 A 
ATOM     12  N   UNL     1       6.092   4.060  17.166  0.00  0.00    +0.000 NA
ATOM     13  C   UNL     1       5.116   5.065  17.300  0.00  0.00    +0.000 A 
ATOM     14  C   UNL     1       3.785   4.698  17.499  0.00  0.00    +0.000 A 
ATOM     15  C   UNL     1       2.824   5.678  17.756  0.00  0.00    +0.000 A 
ATOM     16  F   UNL     1       1.550   5.298  17.947  0.00  0.00    +0.000 F 
ATOM     17  H   UNL     1       8.716   5.967  17.044  0.00  0.00    +0.000 HD
ENDBRANCH   3   5
BRANCH   1  24
ATOM     18  C   UNL     1      -3.267  13.456  22.420  0.00  0.00    +0.000 C 
ATOM     19  C   UNL     1      -2.254  12.385  22.139  0.00  0.00    +0.000 A 
ATOM     20  C   UNL     1      -1.735  11.611  23.167  0.00  0.00    +0.000 A 
ATOM     21  C   UNL     1      -0.808  10.618  22.848  0.00  0.00    +0.000 A 
ATOM     22  C   UNL     1      -0.429  10.424  21.516  0.00  0.00    +0.000 A 
ATOM     23  C   UNL     1       0.490   9.423  21.141  0.00  0.00    +0.000 A 
ATOM     24  C   UNL     1       0.858   9.248  19.800  0.00  0.00    +0.000 A 
ATOM     25  C   UNL     1       0.293  10.077  18.829  0.00  0.00    +0.000 A 
ATOM     26  C   UNL     1      -0.624  11.069  19.213  0.00  0.00    +0.000 A 
ATOM     27  C   UNL     1      -1.000  11.261  20.538  0.00  0.00    +0.000 A 
ATOM     28  N   UNL     1      -1.888  12.219  20.847  0.00  0.00    +0.000 NA
ENDBRANCH   1  24
TORSDOF 2
ENDMDL
MODEL 5
REMARK VINA RESULT:      -8.4      0.999      1.016
REMARK  Name = 
REMARK  3 active torsions:
REMARK  status: ('A' for Active; 'I' for Inactive)
REMARK    1  A    between atoms: C_1  and  C_2
REMARK    2  A    between atoms: C_7  and  C_8
REMARK    3  A    between atoms: N_10  and  C_11
REMARK                            x       y       z     vdW  Elec       q    Type
REMARK                         _______ _______ _______ _____ _____    ______ ____
ROOT
ATOM      1  C   UNL     1       1.900   7.500  20.066  0.00  0.00    +0.000 C 
ATOM      2  O   UNL     1       2.335   6.575  20.740  0.00  0.00    +0.000 OA
ATOM      3  N   UNL     1       2.221   7.705  18.728  0.00  0.00    +0.000 N 
ATOM      4  H   UNL     1       2.182   8.659  18.387  0.00  0.00    +0.000 HD
ENDROOT
BRANCH   3   5
ATOM      5  C   UNL     1       3.079   6.809  18.043  0.00  0.00    +0.000 A 
ATOM      6  C   UNL     1       4.357   7.223  17.673  0.00  0.00    +0.000 A 
ATOM      7  C   UNL     1       5.259   6.281  17.161  0.00  0.00    +0.000 A 
ATOM      8  C   UNL     1       6.670   6.643  16.917  0.00  0.00    +0.000 A 
ATOM      9  O   UNL     1       7.087   7.780  17.063  0.00  0.00    +0.000 OA
ATOM     10  N   UNL     1       7.487   5.606  16.546  0.00  0.00    +0.000 N 
ATOM     11  C   UNL     1       7.030   4.339  16.335  0.00  0.00    +0.000 A 
ATOM     12  N   UNL     1       5.803   3.976  16.492  0.00  0.00    +0.000 NA
ATOM     13  C   UNL     1       4.890   4.946  16.945  0.00  0.00    +0.000 A 
ATOM     14  C   UNL     1       3.581   4.563  17.238  0.00  0.00    +0.000 A 
ATOM     15  C   UNL     1       2.697   5.483  17.805  0.00  0.00    +0.000 A 
ATOM     16  F   UNL     1       1.443   5.088  18.080  0.00  0.00    +0.000 F 
ATOM     17  H   UNL     1       8.461   5.838  16.408  0.00  0.00    +0.000 HD
ENDBRANCH   3   5
BRANCH   1  24
ATOM     18  C   UNL     1      -2.599  13.594  22.354  0.00  0.00    +0.000 C 
ATOM     19  C   UNL     1      -1.840  12.504  21.655  0.00  0.00    +0.000 A 
ATOM     20  C   UNL     1      -1.818  12.430  20.270  0.00  0.00    +0.000 A 
ATOM     21  C   UNL     1      -1.083  11.407  19.670  0.00  0.00    +0.000 A 
ATOM     22  C   UNL     1      -0.391  10.490  20.469  0.00  0.00    +0.000 A 
ATOM     23  C   UNL     1       0.379   9.449  19.911  0.00  0.00    +0.000 A 
ATOM     24  C   UNL     1       1.062   8.540  20.730  0.00  0.00    +0.000 A 
ATOM     25  C   UNL     1       0.978   8.682  22.116  0.00  0.00    +0.000 A 
ATOM     26  C   UNL     1       0.211   9.725  22.662  0.00  0.00    +0.000 A 
ATOM     27  C   UNL     1      -0.476  10.635  21.867  0.00  0.00    +0.000 A 
ATOM     28  N   UNL     1      -1.187  11.618  22.441  0.00  0.00    +0.000 NA
ENDBRANCH   1  24
TORSDOF 2
ENDMDL
MODEL 6
REMARK VINA RESULT:      -8.3      1.067      1.092
REMARK  Name = 
REMARK  3 active torsions:
REMARK  status: ('A' for Active; 'I' for Inactive)
REMARK    1  A    between atoms: C_1  and  C_2
REMARK    2  A    between atoms: C_7  and  C_8
REMARK    3  A    between atoms: N_10  and  C_11
REMARK                            x       y       z     vdW  Elec       q    Type
REMARK                         _______ _______ _______ _____ _____    ______ ____
ROOT
ATOM      1  C   UNL     1       1.934   7.960  19.397  0.00  0.00    +0.000 C 
ATOM      2  O   UNL     1       1.861   8.267  18.214  0.00  0.00    +0.000 OA
ATOM      3  N   UNL     1       2.613   6.841  19.869  0.00  0.00    +0.000 N 
ATOM      4  H   UNL     1       2.285   6.437  20.739  0.00  0.00    +0.000 HD
ENDROOT
BRANCH   3   5
ATOM      5  C   UNL     1       3.301   5.980  18.977  0.00  0.00    +0.000 A 
ATOM      6  C   UNL     1       3.758   6.472  17.756  0.00  0.00    +0.000 A 
ATOM      7  C   UNL     1       4.589   5.669  16.964  0.00  0.00    +0.000 A 
ATOM      8  C   UNL     1       5.230   6.214  15.751  0.00  0.00    +0.000 A 
ATOM      9  O   UNL     1       4.999   7.340  15.340  0.00  0.00    +0.000 OA
ATOM     10  N   UNL     1       6.126   5.380  15.134  0.00  0.00    +0.000 N 
ATOM     11  C   UNL     1       6.362   4.104  15.552  0.00  0.00    +0.000 A 
ATOM     12  N   UNL     1       5.801   3.563  16.578  0.00  0.00    +0.000 NA
ATOM     13  C   UNL     1       4.917   4.357  17.332  0.00  0.00    +0.000 A 
ATOM     14  C   UNL     1       4.383   3.845  18.514  0.00  0.00    +0.000 A 
ATOM     15  C   UNL     1       3.603   4.662  19.337  0.00  0.00    +0.000 A 
ATOM     16  F   UNL     1       3.102   4.144  20.471  0.00  0.00    +0.000 F 
ATOM     17  H   UNL     1       6.593   5.756  14.320  0.00  0.00    +0.000 HD
ENDBRANCH   3   5
BRANCH   1  24
ATOM     18  C   UNL     1      -2.386  13.042  23.652  0.00  0.00    +0.000 C 
ATOM     19  C   UNL     1      -1.700  12.199  22.618  0.00  0.00    +0.000 A 
ATOM     20  C   UNL     1      -1.870  12.456  21.266  0.00  0.00    +0.000 A 
ATOM     21  C   UNL     1      -1.194  11.651  20.347  0.00  0.00    +0.000 A 
ATOM     22  C   UNL     1      -0.369  10.618  20.803  0.00  0.00    +0.000 A 
ATOM     23  C   UNL     1       0.347   9.789  19.915  0.00  0.00    +0.000 A 
ATOM     24  C   UNL     1       1.166   8.758  20.395  0.00  0.00    +0.000 A 
ATOM     25  C   UNL     1       1.273   8.564  21.774  0.00  0.00    +0.000 A 
ATOM     26  C   UNL     1       0.558   9.397  22.649  0.00  0.00    +0.000 A 
ATOM     27  C   UNL     1      -0.263  10.423  22.194  0.00  0.00    +0.000 A 
ATOM     28  N   UNL     1      -0.916  11.195  23.075  0.00  0.00    +0.000 NA
ENDBRANCH   1  24
TORSDOF 2
ENDMDL
MODEL 7
REMARK VINA RESULT:      -8.2      2.426      2.995
REMARK  Name = 
REMARK  3 active torsions:
REMARK  status: ('A' for Active; 'I' for Inactive)
REMARK    1  A    between atoms: C_1  and  C_2
REMARK    2  A    between atoms: C_7  and  C_8
REMARK    3  A    between atoms: N_10  and  C_11
REMARK                            x       y       z     vdW  Elec       q    Type
REMARK                         _______ _______ _______ _____ _____    ______ ____
ROOT
ATOM      1  C   UNL     1       1.785   8.684  18.225  0.00  0.00    +0.000 C 
ATOM      2  O   UNL     1       2.665   9.161  17.520  0.00  0.00    +0.000 OA
ATOM      3  N   UNL     1       1.849   7.416  18.795  0.00  0.00    +0.000 N 
ATOM      4  H   UNL     1       0.968   6.951  18.981  0.00  0.00    +0.000 HD
ENDROOT
BRANCH   3   5
ATOM      5  C   UNL     1       2.985   6.591  18.602  0.00  0.00    +0.000 A 
ATOM      6  C   UNL     1       3.695   6.660  17.405  0.00  0.00    +0.000 A 
ATOM      7  C   UNL     1       4.914   5.978  17.293  0.00  0.00    +0.000 A 
ATOM      8  C   UNL     1       5.776   6.163  16.108  0.00  0.00    +0.000 A 
ATOM      9  O   UNL     1       5.431   6.836  15.149  0.00  0.00    +0.000 OA
ATOM     10  N   UNL     1       7.002   5.554  16.171  0.00  0.00    +0.000 N 
ATOM     11  C   UNL     1       7.384   4.762  17.213  0.00  0.00    +0.000 A 
ATOM     12  N   UNL     1       6.658   4.532  18.253  0.00  0.00    +0.000 NA
ATOM     13  C   UNL     1       5.406   5.171  18.328  0.00  0.00    +0.000 A 
ATOM     14  C   UNL     1       4.645   5.040  19.489  0.00  0.00    +0.000 A 
ATOM     15  C   UNL     1       3.459   5.765  19.628  0.00  0.00    +0.000 A 
ATOM     16  F   UNL     1       2.745   5.622  20.757  0.00  0.00    +0.000 F 
ATOM     17  H   UNL     1       7.611   5.701  15.378  0.00  0.00    +0.000 HD
ENDBRANCH   3   5
BRANCH   1  24
ATOM     18  C   UNL     1      -5.197  12.390  17.889  0.00  0.00    +0.000 C 
ATOM     19  C   UNL     1      -3.972  11.539  17.726  0.00  0.00    +0.000 A 
ATOM     20  C   UNL     1      -3.838  10.690  16.636  0.00  0.00    +0.000 A 
ATOM     21  C   UNL     1      -2.671   9.933  16.523  0.00  0.00    +0.000 A 
ATOM     22  C   UNL     1      -1.672  10.048  17.496  0.00  0.00    +0.000 A 
ATOM     23  C   UNL     1      -0.469   9.318  17.418  0.00  0.00    +0.000 A 
ATOM     24  C   UNL     1       0.517   9.446  18.406  0.00  0.00    +0.000 A 
ATOM     25  C   UNL     1       0.296  10.318  19.473  0.00  0.00    +0.000 A 
ATOM     26  C   UNL     1      -0.905  11.043  19.541  0.00  0.00    +0.000 A 
ATOM     27  C   UNL     1      -1.897  10.927  18.572  0.00  0.00    +0.000 A 
ATOM     28  N   UNL     1      -3.022  11.651  18.681  0.00  0.00    +0.000 NA
ENDBRANCH   1  24
TORSDOF 2
ENDMDL
MODEL 8
REMARK VINA RESULT:      -8.1      1.379      1.894
REMARK  Name = 
REMARK  3 active torsions:
REMARK  status: ('A' for Active; 'I' for Inactive)
REMARK    1  A    between atoms: C_1  and  C_2
REMARK    2  A    between atoms: C_7  and  C_8
REMARK    3  A    between atoms: N_10  and  C_11
REMARK                            x       y       z     vdW  Elec       q    Type
REMARK                         _______ _______ _______ _____ _____    ______ ____
ROOT
ATOM      1  C   UNL     1       1.820   8.770  18.556  0.00  0.00    +0.000 C 
ATOM      2  O   UNL     1       2.214   8.988  17.417  0.00  0.00    +0.000 OA
ATOM      3  N   UNL     1       2.177   7.651  19.301  0.00  0.00    +0.000 N 
ATOM      4  H   UNL     1       1.518   7.338  20.004  0.00  0.00    +0.000 HD
ENDROOT
BRANCH   3   5
ATOM      5  C   UNL     1       3.066   6.681  18.773  0.00  0.00    +0.000 A 
ATOM      6  C   UNL     1       3.621   6.868  17.508  0.00  0.00    +0.000 A 
ATOM      7  C   UNL     1       4.632   6.002  17.071  0.00  0.00    +0.000 A 
ATOM      8  C   UNL     1       5.362   6.268  15.815  0.00  0.00    +0.000 A 
ATOM      9  O   UNL     1       5.064   7.187  15.069  0.00  0.00    +0.000 OA
ATOM     10  N   UNL     1       6.417   5.431  15.560  0.00  0.00    +0.000 N 
ATOM     11  C   UNL     1       6.735   4.372  16.358  0.00  0.00    +0.000 A 
ATOM     12  N   UNL     1       6.108   4.069  17.442  0.00  0.00    +0.000 NA
ATOM     13  C   UNL     1       5.051   4.908  17.841  0.00  0.00    +0.000 A 
ATOM     14  C   UNL     1       4.427   4.680  19.067  0.00  0.00    +0.000 A 
ATOM     15  C   UNL     1       3.462   5.575  19.534  0.00  0.00    +0.000 A 
ATOM     16  F   UNL     1       2.878   5.333  20.719  0.00  0.00    +0.000 F 
ATOM     17  H   UNL     1       6.942   5.625  14.718  0.00  0.00    +0.000 HD
ENDBRANCH   3   5
BRANCH   1  24
ATOM     18  C   UNL     1      -3.317  12.953  22.882  0.00  0.00    +0.000 C 
ATOM     19  C   UNL     1      -2.231  12.084  22.317  0.00  0.00    +0.000 A 
ATOM     20  C   UNL     1      -1.429  11.318  23.151  0.00  0.00    +0.000 A 
ATOM     21  C   UNL     1      -0.445  10.515  22.572  0.00  0.00    +0.000 A 
ATOM     22  C   UNL     1      -0.293  10.497  21.182  0.00  0.00    +0.000 A 
ATOM     23  C   UNL     1       0.675   9.690  20.549  0.00  0.00    +0.000 A 
ATOM     24  C   UNL     1       0.813   9.691  19.155  0.00  0.00    +0.000 A 
ATOM     25  C   UNL     1      -0.032  10.500  18.391  0.00  0.00    +0.000 A 
ATOM     26  C   UNL     1      -0.994  11.298  19.031  0.00  0.00    +0.000 A 
ATOM     27  C   UNL     1      -1.144  11.314  20.414  0.00  0.00    +0.000 A 
ATOM     28  N   UNL     1      -2.087  12.089  20.973  0.00  0.00    +0.000 NA
ENDBRANCH   1  24
TORSDOF 2
ENDMDL
MODEL 9
REMARK VINA RESULT:      -8.1      2.393      3.516
REMARK  Name = 
REMARK  3 active torsions:
REMARK  status: ('A' for Active; 'I' for Inactive)
REMARK    1  A    between atoms: C_1  and  C_2
REMARK    2  A    between atoms: C_7  and  C_8
REMARK    3  A    between atoms: N_10  and  C_11
REMARK                            x       y       z     vdW  Elec       q    Type
REMARK                         _______ _______ _______ _____ _____    ______ ____
ROOT
ATOM      1  C   UNL     1       1.590   8.658  18.898  0.00  0.00    +0.000 C 
ATOM      2  O   UNL     1       1.401   8.439  17.708  0.00  0.00    +0.000 OA
ATOM      3  N   UNL     1       2.199   7.757  19.766  0.00  0.00    +0.000 N 
ATOM      4  H   UNL     1       1.942   7.817  20.745  0.00  0.00    +0.000 HD
ENDROOT
BRANCH   3   5
ATOM      5  C   UNL     1       2.670   6.505  19.299  0.00  0.00    +0.000 A 
ATOM      6  C   UNL     1       2.128   5.327  19.810  0.00  0.00    +0.000 A 
ATOM      7  C   UNL     1       2.469   4.105  19.216  0.00  0.00    +0.000 A 
ATOM      8  C   UNL     1       1.787   2.857  19.616  0.00  0.00    +0.000 A 
ATOM      9  O   UNL     1       0.976   2.819  20.527  0.00  0.00    +0.000 OA
ATOM     10  N   UNL     1       2.106   1.750  18.873  0.00  0.00    +0.000 N 
ATOM     11  C   UNL     1       3.043   1.764  17.883  0.00  0.00    +0.000 A 
ATOM     12  N   UNL     1       3.697   2.813  17.520  0.00  0.00    +0.000 NA
ATOM     13  C   UNL     1       3.395   4.026  18.167  0.00  0.00    +0.000 A 
ATOM     14  C   UNL     1       3.997   5.202  17.721  0.00  0.00    +0.000 A 
ATOM     15  C   UNL     1       3.616   6.429  18.269  0.00  0.00    +0.000 A 
ATOM     16  F   UNL     1       4.209   7.548  17.821  0.00  0.00    +0.000 F 
ATOM     17  H   UNL     1       1.621   0.898  19.119  0.00  0.00    +0.000 HD
ENDBRANCH   3   5
BRANCH   1  24
ATOM     18  C   UNL     1      -1.948  14.482  22.919  0.00  0.00    +0.000 C 
ATOM     19  C   UNL     1      -1.330  13.219  22.393  0.00  0.00    +0.000 A 
ATOM     20  C   UNL     1      -1.433  12.030  23.100  0.00  0.00    +0.000 A 
ATOM     21  C   UNL     1      -0.856  10.882  22.557  0.00  0.00    +0.000 A 
ATOM     22  C   UNL     1      -0.197  10.952  21.325  0.00  0.00    +0.000 A 
ATOM     23  C   UNL     1       0.388   9.817  20.727  0.00  0.00    +0.000 A 
ATOM     24  C   UNL     1       1.046   9.912  19.493  0.00  0.00    +0.000 A 
ATOM     25  C   UNL     1       1.109  11.151  18.853  0.00  0.00    +0.000 A 
ATOM     26  C   UNL     1       0.521  12.275  19.456  0.00  0.00    +0.000 A 
ATOM     27  C   UNL     1      -0.133  12.203  20.681  0.00  0.00    +0.000 A 
ATOM     28  N   UNL     1      -0.685  13.307  21.207  0.00  0.00    +0.000 NA
ENDBRANCH   1  24
TORSDOF 2
ENDMDL
