MODEL 1
REMARK VINA RESULT:      -9.4      0.000      0.000
REMARK  Name = 
REMARK  1 active torsions:
REMARK  status: ('A' for Active; 'I' for Inactive)
REMARK    1  A    between atoms: N_3  and  C_4
REMARK                            x       y       z     vdW  Elec       q    Type
REMARK                         _______ _______ _______ _____ _____    ______ ____
ROOT
ATOM      1  O   UNL     1       2.786   8.453  17.292  0.00  0.00    +0.000 OA
ATOM      2  C   UNL     1       2.535   7.789  18.286  0.00  0.00    +0.000 C 
ATOM      3  N   UNL     1       1.763   8.273  19.305  0.00  0.00    +0.000 N 
ATOM      4  N   UNL     1       3.008   6.507  18.488  0.00  0.00    +0.000 N 
ATOM      5  C   UNL     1       2.660   5.561  19.572  0.00  0.00    +0.000 C 
ATOM      6  C   UNL     1       2.965   4.142  19.008  0.00  0.00    +0.000 C 
ATOM      7  C   UNL     1       1.594   3.586  18.516  0.00  0.00    +0.000 C 
ATOM      8  C   UNL     1       0.715   3.131  19.727  0.00  0.00    +0.000 C 
ATOM      9  O   UNL     1       1.385   2.274  20.654  0.00  0.00    +0.000 OA
ATOM     10  C   UNL     1       2.620   2.797  21.116  0.00  0.00    +0.000 C 
ATOM     11  C   UNL     1       3.503   3.018  19.923  0.00  0.00    +0.000 C 
ATOM     12  C   UNL     1       4.116   4.496  18.023  0.00  0.00    +0.000 C 
ATOM     13  C   UNL     1       5.439   4.776  18.800  0.00  0.00    +0.000 C 
ATOM     14  C   UNL     1       6.179   5.880  18.085  0.00  0.00    +0.000 C 
ATOM     15  C   UNL     1       5.164   6.509  17.145  0.00  0.00    +0.000 C 
ATOM     16  C   UNL     1       3.795   5.866  17.440  0.00  0.00    +0.000 C 
ATOM     17  H   UNL     1       1.698   7.728  20.147  0.00  0.00    +0.000 HD
ENDROOT
BRANCH   3  18
ATOM     18  C   UNL     1       1.352   9.660  19.409  0.00  0.00    +0.000 C 
ATOM     19  C   UNL     1       0.366   9.985  18.288  0.00  0.00    +0.000 C 
ATOM     20  C   UNL     1      -0.344  11.283  18.624  0.00  0.00    +0.000 C 
ATOM     21  O   UNL     1      -1.140  11.143  19.804  0.00  0.00    +0.000 OA
ATOM     22  C   UNL     1      -0.491  10.588  20.862  0.00  0.00    +0.000 A 
ATOM     23  C   UNL     1      -1.116  10.705  22.112  0.00  0.00    +0.000 A 
ATOM     24  F   UNL     1      -2.297  11.335  22.226  0.00  0.00    +0.000 F 
ATOM     25  C   UNL     1      -0.537  10.163  23.258  0.00  0.00    +0.000 A 
ATOM     26  C   UNL     1       0.688   9.518  23.171  0.00  0.00    +0.000 A 
ATOM     27  C   UNL     1       1.318   9.393  21.931  0.00  0.00    +0.000 A 
ATOM     28  C   UNL     1       0.712   9.893  20.759  0.00  0.00    +0.000 A 
ENDBRANCH   3  18
TORSDOF 1
ENDMDL
MODEL 2
REMARK VINA RESULT:      -8.7      2.042      4.266
REMARK  Name = 
REMARK  1 active torsions:
REMARK  status: ('A' for Active; 'I' for Inactive)
REMARK    1  A    between atoms: N_3  and  C_4
REMARK                            x       y       z     vdW  Elec       q    Type
REMARK                         _______ _______ _______ _____ _____    ______ ____
ROOT
ATOM      1  O   UNL     1       1.657   5.695  20.902  0.00  0.00    +0.000 OA
ATOM      2  C   UNL     1       2.281   6.185  19.973  0.00  0.00    +0.000 C 
ATOM      3  N   UNL     1       2.156   7.503  19.631  0.00  0.00    +0.000 N 
ATOM      4  N   UNL     1       3.154   5.469  19.177  0.00  0.00    +0.000 N 
ATOM      5  C   UNL     1       4.064   5.978  18.126  0.00  0.00    +0.000 C 
ATOM      6  C   UNL     1       5.196   4.916  17.998  0.00  0.00    +0.000 C 
ATOM      7  C   UNL     1       6.382   5.468  18.846  0.00  0.00    +0.000 C 
ATOM      8  C   UNL     1       7.112   6.625  18.087  0.00  0.00    +0.000 C 
ATOM      9  O   UNL     1       7.463   6.318  16.737  0.00  0.00    +0.000 OA
ATOM     10  C   UNL     1       6.375   5.838  15.965  0.00  0.00    +0.000 C 
ATOM     11  C   UNL     1       5.845   4.602  16.631  0.00  0.00    +0.000 C 
ATOM     12  C   UNL     1       4.405   3.642  18.413  0.00  0.00    +0.000 C 
ATOM     13  C   UNL     1       3.461   3.181  17.260  0.00  0.00    +0.000 C 
ATOM     14  C   UNL     1       2.195   2.640  17.879  0.00  0.00    +0.000 C 
ATOM     15  C   UNL     1       2.211   3.116  19.322  0.00  0.00    +0.000 C 
ATOM     16  C   UNL     1       3.411   4.066  19.486  0.00  0.00    +0.000 C 
ATOM     17  H   UNL     1       2.598   7.814  18.784  0.00  0.00    +0.000 HD
ENDROOT
BRANCH   3  18
ATOM     18  C   UNL     1       1.138   8.378  20.179  0.00  0.00    +0.000 C 
ATOM     19  C   UNL     1       1.236   8.383  21.704  0.00  0.00    +0.000 C 
ATOM     20  C   UNL     1       0.455   9.568  22.239  0.00  0.00    +0.000 C 
ATOM     21  O   UNL     1       1.039  10.803  21.816  0.00  0.00    +0.000 OA
ATOM     22  C   UNL     1       1.297  10.879  20.483  0.00  0.00    +0.000 A 
ATOM     23  C   UNL     1       1.580  12.154  19.971  0.00  0.00    +0.000 A 
ATOM     24  F   UNL     1       1.591  13.225  20.781  0.00  0.00    +0.000 F 
ATOM     25  C   UNL     1       1.865  12.338  18.620  0.00  0.00    +0.000 A 
ATOM     26  C   UNL     1       1.848  11.251  17.758  0.00  0.00    +0.000 A 
ATOM     27  C   UNL     1       1.571   9.977  18.257  0.00  0.00    +0.000 A 
ATOM     28  C   UNL     1       1.333   9.776  19.633  0.00  0.00    +0.000 A 
ENDBRANCH   3  18
TORSDOF 1
ENDMDL
MODEL 3
REMARK VINA RESULT:      -8.3      2.269      4.271
REMARK  Name = 
REMARK  1 active torsions:
REMARK  status: ('A' for Active; 'I' for Inactive)
REMARK    1  A    between atoms: N_3  and  C_4
REMARK                            x       y       z     vdW  Elec       q    Type
REMARK                         _______ _______ _______ _____ _____    ______ ____
ROOT
ATOM      1  O   UNL     1       1.330   7.077  20.980  0.00  0.00    +0.000 OA
ATOM      2  C   UNL     1       1.830   7.332  19.895  0.00  0.00    +0.000 C 
ATOM      3  N   UNL     1       1.695   8.558  19.306  0.00  0.00    +0.000 N 
ATOM      4  N   UNL     1       2.561   6.422  19.157  0.00  0.00    +0.000 N 
ATOM      5  C   UNL     1       3.329   6.656  17.913  0.00  0.00    +0.000 C 
ATOM      6  C   UNL     1       4.401   5.528  17.861  0.00  0.00    +0.000 C 
ATOM      7  C   UNL     1       5.710   6.172  18.411  0.00  0.00    +0.000 C 
ATOM      8  C   UNL     1       6.358   7.109  17.338  0.00  0.00    +0.000 C 
ATOM      9  O   UNL     1       6.507   6.514  16.048  0.00  0.00    +0.000 OA
ATOM     10  C   UNL     1       5.307   5.951  15.543  0.00  0.00    +0.000 C 
ATOM     11  C   UNL     1       4.842   4.907  16.515  0.00  0.00    +0.000 C 
ATOM     12  C   UNL     1       3.641   4.411  18.632  0.00  0.00    +0.000 C 
ATOM     13  C   UNL     1       2.531   3.780  17.736  0.00  0.00    +0.000 C 
ATOM     14  C   UNL     1       1.351   3.447  18.615  0.00  0.00    +0.000 C 
ATOM     15  C   UNL     1       1.583   4.204  19.912  0.00  0.00    +0.000 C 
ATOM     16  C   UNL     1       2.821   5.099  19.715  0.00  0.00    +0.000 C 
ATOM     17  H   UNL     1       2.021   8.666  18.361  0.00  0.00    +0.000 HD
ENDROOT
BRANCH   3  18
ATOM     18  C   UNL     1       0.789   9.583  19.789  0.00  0.00    +0.000 C 
ATOM     19  C   UNL     1       0.572   9.405  21.290  0.00  0.00    +0.000 C 
ATOM     20  C   UNL     1      -0.041  10.675  21.849  0.00  0.00    +0.000 C 
ATOM     21  O   UNL     1       0.859  11.779  21.722  0.00  0.00    +0.000 OA
ATOM     22  C   UNL     1       1.394  11.933  20.482  0.00  0.00    +0.000 A 
ATOM     23  C   UNL     1       2.033  13.155  20.222  0.00  0.00    +0.000 A 
ATOM     24  F   UNL     1       2.099  14.103  21.171  0.00  0.00    +0.000 F 
ATOM     25  C   UNL     1       2.621  13.409  18.985  0.00  0.00    +0.000 A 
ATOM     26  C   UNL     1       2.557  12.452  17.982  0.00  0.00    +0.000 A 
ATOM     27  C   UNL     1       1.927  11.231  18.231  0.00  0.00    +0.000 A 
ATOM     28  C   UNL     1       1.376  10.947  19.498  0.00  0.00    +0.000 A 
ENDBRANCH   3  18
TORSDOF 1
ENDMDL
MODEL 4
REMARK VINA RESULT:      -7.8      2.021      4.242
REMARK  Name = 
REMARK  1 active torsions:
REMARK  status: ('A' for Active; 'I' for Inactive)
REMARK    1  A    between atoms: N_3  and  C_4
REMARK                            x       y       z     vdW  Elec       q    Type
REMARK                         _______ _______ _______ _____ _____    ______ ____
ROOT
ATOM      1  O   UNL     1       1.215   6.864  21.222  0.00  0.00    +0.000 OA
ATOM      2  C   UNL     1       1.701   7.242  20.167  0.00  0.00    +0.000 C 
ATOM      3  N   UNL     1       1.572   8.531  19.731  0.00  0.00    +0.000 N 
ATOM      4  N   UNL     1       2.409   6.419  19.314  0.00  0.00    +0.000 N 
ATOM      5  C   UNL     1       3.160   6.791  18.093  0.00  0.00    +0.000 C 
ATOM      6  C   UNL     1       4.217   5.666  17.888  0.00  0.00    +0.000 C 
ATOM      7  C   UNL     1       5.542   6.226  18.488  0.00  0.00    +0.000 C 
ATOM      8  C   UNL     1       6.184   7.278  17.524  0.00  0.00    +0.000 C 
ATOM      9  O   UNL     1       6.305   6.840  16.169  0.00  0.00    +0.000 OA
ATOM     10  C   UNL     1       5.091   6.354  15.622  0.00  0.00    +0.000 C 
ATOM     11  C   UNL     1       4.628   5.206  16.470  0.00  0.00    +0.000 C 
ATOM     12  C   UNL     1       3.455   4.473  18.533  0.00  0.00    +0.000 C 
ATOM     13  C   UNL     1       2.323   3.966  17.587  0.00  0.00    +0.000 C 
ATOM     14  C   UNL     1       1.153   3.543  18.441  0.00  0.00    +0.000 C 
ATOM     15  C   UNL     1       1.415   4.137  19.815  0.00  0.00    +0.000 C 
ATOM     16  C   UNL     1       2.661   5.036  19.705  0.00  0.00    +0.000 C 
ATOM     17  H   UNL     1       1.885   8.747  18.800  0.00  0.00    +0.000 HD
ENDROOT
BRANCH   3  18
ATOM     18  C   UNL     1       0.687   9.500  20.348  0.00  0.00    +0.000 C 
ATOM     19  C   UNL     1       1.516  10.554  21.080  0.00  0.00    +0.000 C 
ATOM     20  C   UNL     1       0.631  11.749  21.380  0.00  0.00    +0.000 C 
ATOM     21  O   UNL     1       0.191  12.379  20.174  0.00  0.00    +0.000 OA
ATOM     22  C   UNL     1      -0.335  11.530  19.251  0.00  0.00    +0.000 A 
ATOM     23  C   UNL     1      -1.049  12.116  18.196  0.00  0.00    +0.000 A 
ATOM     24  F   UNL     1      -1.186  13.450  18.125  0.00  0.00    +0.000 F 
ATOM     25  C   UNL     1      -1.621  11.334  17.194  0.00  0.00    +0.000 A 
ATOM     26  C   UNL     1      -1.506   9.952  17.249  0.00  0.00    +0.000 A 
ATOM     27  C   UNL     1      -0.794   9.358  18.293  0.00  0.00    +0.000 A 
ATOM     28  C   UNL     1      -0.168  10.148  19.281  0.00  0.00    +0.000 A 
ENDBRANCH   3  18
TORSDOF 1
ENDMDL
MODEL 5
REMARK VINA RESULT:      -7.3      3.002      7.643
REMARK  Name = 
REMARK  1 active torsions:
REMARK  status: ('A' for Active; 'I' for Inactive)
REMARK    1  A    between atoms: N_3  and  C_4
REMARK                            x       y       z     vdW  Elec       q    Type
REMARK                         _______ _______ _______ _____ _____    ______ ____
ROOT
ATOM      1  O   UNL     1       1.489   9.324  21.515  0.00  0.00    +0.000 OA
ATOM      2  C   UNL     1       1.060   9.160  20.383  0.00  0.00    +0.000 C 
ATOM      3  N   UNL     1       1.289   8.009  19.680  0.00  0.00    +0.000 N 
ATOM      4  N   UNL     1       0.322  10.107  19.700  0.00  0.00    +0.000 N 
ATOM      5  C   UNL     1      -0.366   9.969  18.397  0.00  0.00    +0.000 C 
ATOM      6  C   UNL     1      -1.491  11.046  18.397  0.00  0.00    +0.000 C 
ATOM      7  C   UNL     1      -2.791  10.288  18.803  0.00  0.00    +0.000 C 
ATOM      8  C   UNL     1      -3.333   9.439  17.606  0.00  0.00    +0.000 C 
ATOM      9  O   UNL     1      -3.444  10.157  16.376  0.00  0.00    +0.000 OA
ATOM     10  C   UNL     1      -2.251  10.825  16.001  0.00  0.00    +0.000 C 
ATOM     11  C   UNL     1      -1.892  11.783  17.099  0.00  0.00    +0.000 C 
ATOM     12  C   UNL     1      -0.831  12.110  19.321  0.00  0.00    +0.000 C 
ATOM     13  C   UNL     1       0.290  12.882  18.558  0.00  0.00    +0.000 C 
ATOM     14  C   UNL     1       1.404  13.175  19.533  0.00  0.00    +0.000 C 
ATOM     15  C   UNL     1       1.144  12.277  20.731  0.00  0.00    +0.000 C 
ATOM     16  C   UNL     1      -0.034  11.352  20.373  0.00  0.00    +0.000 C 
ATOM     17  H   UNL     1       1.019   7.985  18.713  0.00  0.00    +0.000 HD
ENDROOT
BRANCH   3  18
ATOM     18  C   UNL     1       2.220   6.983  20.109  0.00  0.00    +0.000 C 
ATOM     19  C   UNL     1       1.446   5.807  20.701  0.00  0.00    +0.000 C 
ATOM     20  C   UNL     1       2.369   4.605  20.781  0.00  0.00    +0.000 C 
ATOM     21  O   UNL     1       2.772   4.179  19.477  0.00  0.00    +0.000 OA
ATOM     22  C   UNL     1       3.241   5.173  18.676  0.00  0.00    +0.000 A 
ATOM     23  C   UNL     1       3.923   4.775  17.517  0.00  0.00    +0.000 A 
ATOM     24  F   UNL     1       4.086   3.471  17.238  0.00  0.00    +0.000 F 
ATOM     25  C   UNL     1       4.435   5.716  16.626  0.00  0.00    +0.000 A 
ATOM     26  C   UNL     1       4.292   7.069  16.896  0.00  0.00    +0.000 A 
ATOM     27  C   UNL     1       3.611   7.477  18.045  0.00  0.00    +0.000 A 
ATOM     28  C   UNL     1       3.045   6.529  18.924  0.00  0.00    +0.000 A 
ENDBRANCH   3  18
TORSDOF 1
ENDMDL
MODEL 6
REMARK VINA RESULT:      -7.0      2.872      7.242
REMARK  Name = 
REMARK  1 active torsions:
REMARK  status: ('A' for Active; 'I' for Inactive)
REMARK    1  A    between atoms: N_3  and  C_4
REMARK                            x       y       z     vdW  Elec       q    Type
REMARK                         _______ _______ _______ _____ _____    ______ ____
ROOT
ATOM      1  O   UNL     1       2.590   8.615  17.132  0.00  0.00    +0.000 OA
ATOM      2  C   UNL     1       2.193   8.190  18.206  0.00  0.00    +0.000 C 
ATOM      3  N   UNL     1       2.558   6.961  18.680  0.00  0.00    +0.000 N 
ATOM      4  N   UNL     1       1.339   8.890  19.036  0.00  0.00    +0.000 N 
ATOM      5  C   UNL     1       0.909   8.546  20.410  0.00  0.00    +0.000 C 
ATOM      6  C   UNL     1       0.487   9.892  21.070  0.00  0.00    +0.000 C 
ATOM      7  C   UNL     1       1.718  10.347  21.911  0.00  0.00    +0.000 C 
ATOM      8  C   UNL     1       1.827   9.509  23.228  0.00  0.00    +0.000 C 
ATOM      9  O   UNL     1       0.615   9.428  23.979  0.00  0.00    +0.000 OA
ATOM     10  C   UNL     1      -0.496   8.991  23.213  0.00  0.00    +0.000 C 
ATOM     11  C   UNL     1      -0.683   9.955  22.078  0.00  0.00    +0.000 C 
ATOM     12  C   UNL     1       0.019  10.666  19.804  0.00  0.00    +0.000 C 
ATOM     13  C   UNL     1      -1.371  10.146  19.324  0.00  0.00    +0.000 C 
ATOM     14  C   UNL     1      -1.390  10.183  17.815  0.00  0.00    +0.000 C 
ATOM     15  C   UNL     1       0.061  10.345  17.393  0.00  0.00    +0.000 C 
ATOM     16  C   UNL     1       0.929  10.240  18.661  0.00  0.00    +0.000 C 
ATOM     17  H   UNL     1       2.101   6.619  19.506  0.00  0.00    +0.000 HD
ENDROOT
BRANCH   3  18
ATOM     18  C   UNL     1       3.258   5.972  17.882  0.00  0.00    +0.000 C 
ATOM     19  C   UNL     1       4.763   6.120  18.092  0.00  0.00    +0.000 C 
ATOM     20  C   UNL     1       5.453   4.868  17.581  0.00  0.00    +0.000 C 
ATOM     21  O   UNL     1       5.071   3.723  18.348  0.00  0.00    +0.000 OA
ATOM     22  C   UNL     1       3.730   3.575  18.515  0.00  0.00    +0.000 A 
ATOM     23  C   UNL     1       3.290   2.330  18.988  0.00  0.00    +0.000 A 
ATOM     24  F   UNL     1       4.174   1.353  19.254  0.00  0.00    +0.000 F 
ATOM     25  C   UNL     1       1.936   2.079  19.201  0.00  0.00    +0.000 A 
ATOM     26  C   UNL     1       1.002   3.066  18.922  0.00  0.00    +0.000 A 
ATOM     27  C   UNL     1       1.428   4.311  18.455  0.00  0.00    +0.000 A 
ATOM     28  C   UNL     1       2.801   4.588  18.287  0.00  0.00    +0.000 A 
ENDBRANCH   3  18
TORSDOF 1
ENDMDL
MODEL 7
REMARK VINA RESULT:      -6.9      4.873     10.100
REMARK  Name = 
REMARK  1 active torsions:
REMARK  status: ('A' for Active; 'I' for Inactive)
REMARK    1  A    between atoms: N_3  and  C_4
REMARK                            x       y       z     vdW  Elec       q    Type
REMARK                         _______ _______ _______ _____ _____    ______ ____
ROOT
ATOM      1  O   UNL     1      -2.761  12.831  23.852  0.00  0.00    +0.000 OA
ATOM      2  C   UNL     1      -3.038  12.657  22.675  0.00  0.00    +0.000 C 
ATOM      3  N   UNL     1      -2.248  11.909  21.848  0.00  0.00    +0.000 N 
ATOM      4  N   UNL     1      -4.152  13.199  22.064  0.00  0.00    +0.000 N 
ATOM      5  C   UNL     1      -4.664  12.944  20.698  0.00  0.00    +0.000 C 
ATOM      6  C   UNL     1      -6.181  13.290  20.745  0.00  0.00    +0.000 C 
ATOM      7  C   UNL     1      -6.914  11.927  20.929  0.00  0.00    +0.000 C 
ATOM      8  C   UNL     1      -6.936  11.125  19.586  0.00  0.00    +0.000 C 
ATOM      9  O   UNL     1      -7.391  11.876  18.458  0.00  0.00    +0.000 OA
ATOM     10  C   UNL     1      -6.704  13.104  18.283  0.00  0.00    +0.000 C 
ATOM     11  C   UNL     1      -6.894  13.922  19.527  0.00  0.00    +0.000 C 
ATOM     12  C   UNL     1      -6.165  14.378  21.857  0.00  0.00    +0.000 C 
ATOM     13  C   UNL     1      -5.591  15.720  21.306  0.00  0.00    +0.000 C 
ATOM     14  C   UNL     1      -4.791  16.374  22.406  0.00  0.00    +0.000 C 
ATOM     15  C   UNL     1      -4.563  15.289  23.445  0.00  0.00    +0.000 C 
ATOM     16  C   UNL     1      -5.099  13.968  22.864  0.00  0.00    +0.000 C 
ATOM     17  H   UNL     1      -2.461  11.907  20.866  0.00  0.00    +0.000 HD
ENDROOT
BRANCH   3  18
ATOM     18  C   UNL     1      -0.926  11.438  22.214  0.00  0.00    +0.000 C 
ATOM     19  C   UNL     1      -1.053  10.250  23.166  0.00  0.00    +0.000 C 
ATOM     20  C   UNL     1       0.282   9.533  23.232  0.00  0.00    +0.000 C 
ATOM     21  O   UNL     1       0.626   8.970  21.963  0.00  0.00    +0.000 OA
ATOM     22  C   UNL     1       0.522   9.830  20.916  0.00  0.00    +0.000 A 
ATOM     23  C   UNL     1       1.127   9.431  19.715  0.00  0.00    +0.000 A 
ATOM     24  F   UNL     1       1.767   8.253  19.634  0.00  0.00    +0.000 F 
ATOM     25  C   UNL     1       1.071  10.238  18.579  0.00  0.00    +0.000 A 
ATOM     26  C   UNL     1       0.427  11.465  18.639  0.00  0.00    +0.000 A 
ATOM     27  C   UNL     1      -0.182  11.871  19.828  0.00  0.00    +0.000 A 
ATOM     28  C   UNL     1      -0.173  11.036  20.965  0.00  0.00    +0.000 A 
ENDBRANCH   3  18
TORSDOF 1
ENDMDL
MODEL 8
REMARK VINA RESULT:      -6.8      8.511     10.584
REMARK  Name = 
REMARK  1 active torsions:
REMARK  status: ('A' for Active; 'I' for Inactive)
REMARK    1  A    between atoms: N_3  and  C_4
REMARK                            x       y       z     vdW  Elec       q    Type
REMARK                         _______ _______ _______ _____ _____    ______ ____
ROOT
ATOM      1  O   UNL     1       7.539  13.295  22.041  0.00  0.00    +0.000 OA
ATOM      2  C   UNL     1       7.757  13.950  21.033  0.00  0.00    +0.000 C 
ATOM      3  N   UNL     1       6.873  14.886  20.572  0.00  0.00    +0.000 N 
ATOM      4  N   UNL     1       8.892  13.807  20.260  0.00  0.00    +0.000 N 
ATOM      5  C   UNL     1       9.330  14.634  19.112  0.00  0.00    +0.000 C 
ATOM      6  C   UNL     1      10.872  14.446  19.020  0.00  0.00    +0.000 C 
ATOM      7  C   UNL     1      11.486  15.686  19.737  0.00  0.00    +0.000 C 
ATOM      8  C   UNL     1      11.389  16.955  18.828  0.00  0.00    +0.000 C 
ATOM      9  O   UNL     1      11.868  16.765  17.495  0.00  0.00    +0.000 OA
ATOM     10  C   UNL     1      11.288  15.648  16.840  0.00  0.00    +0.000 C 
ATOM     11  C   UNL     1      11.595  14.425  17.653  0.00  0.00    +0.000 C 
ATOM     12  C   UNL     1      10.994  13.008  19.604  0.00  0.00    +0.000 C 
ATOM     13  C   UNL     1      10.523  11.949  18.560  0.00  0.00    +0.000 C 
ATOM     14  C   UNL     1       9.825  10.837  19.303  0.00  0.00    +0.000 C 
ATOM     15  C   UNL     1       9.538  11.390  20.689  0.00  0.00    +0.000 C 
ATOM     16  C   UNL     1       9.933  12.878  20.688  0.00  0.00    +0.000 C 
ATOM     17  H   UNL     1       7.051  15.300  19.674  0.00  0.00    +0.000 HD
ENDROOT
BRANCH   3  18
ATOM     18  C   UNL     1       5.528  15.041  21.093  0.00  0.00    +0.000 C 
ATOM     19  C   UNL     1       5.529  16.090  22.203  0.00  0.00    +0.000 C 
ATOM     20  C   UNL     1       4.099  16.525  22.465  0.00  0.00    +0.000 C 
ATOM     21  O   UNL     1       3.543  17.180  21.322  0.00  0.00    +0.000 OA
ATOM     22  C   UNL     1       3.701  16.506  20.151  0.00  0.00    +0.000 A 
ATOM     23  C   UNL     1       2.926  16.942  19.067  0.00  0.00    +0.000 A 
ATOM     24  F   UNL     1       2.080  17.977  19.208  0.00  0.00    +0.000 F 
ATOM     25  C   UNL     1       3.020  16.324  17.822  0.00  0.00    +0.000 A 
ATOM     26  C   UNL     1       3.875  15.245  17.652  0.00  0.00    +0.000 A 
ATOM     27  C   UNL     1       4.655  14.805  18.722  0.00  0.00    +0.000 A 
ATOM     28  C   UNL     1       4.603  15.460  19.971  0.00  0.00    +0.000 A 
ENDBRANCH   3  18
TORSDOF 1
ENDMDL
MODEL 9
REMARK VINA RESULT:      -6.6      5.133     10.004
REMARK  Name = 
REMARK  1 active torsions:
REMARK  status: ('A' for Active; 'I' for Inactive)
REMARK    1  A    between atoms: N_3  and  C_4
REMARK                            x       y       z     vdW  Elec       q    Type
REMARK                         _______ _______ _______ _____ _____    ______ ____
ROOT
ATOM      1  O   UNL     1      -1.925  11.694  23.404  0.00  0.00    +0.000 OA
ATOM      2  C   UNL     1      -2.416  12.072  22.351  0.00  0.00    +0.000 C 
ATOM      3  N   UNL     1      -1.796  11.872  21.149  0.00  0.00    +0.000 N 
ATOM      4  N   UNL     1      -3.621  12.741  22.266  0.00  0.00    +0.000 N 
ATOM      5  C   UNL     1      -4.378  13.117  21.051  0.00  0.00    +0.000 C 
ATOM      6  C   UNL     1      -5.859  13.271  21.507  0.00  0.00    +0.000 C 
ATOM      7  C   UNL     1      -6.551  11.925  21.134  0.00  0.00    +0.000 C 
ATOM      8  C   UNL     1      -6.825  11.852  19.596  0.00  0.00    +0.000 C 
ATOM      9  O   UNL     1      -7.478  13.003  19.057  0.00  0.00    +0.000 OA
ATOM     10  C   UNL     1      -6.830  14.223  19.380  0.00  0.00    +0.000 C 
ATOM     11  C   UNL     1      -6.782  14.339  20.876  0.00  0.00    +0.000 C 
ATOM     12  C   UNL     1      -5.633  13.704  22.984  0.00  0.00    +0.000 C 
ATOM     13  C   UNL     1      -5.164  15.190  23.057  0.00  0.00    +0.000 C 
ATOM     14  C   UNL     1      -4.171  15.314  24.186  0.00  0.00    +0.000 C 
ATOM     15  C   UNL     1      -3.760  13.891  24.526  0.00  0.00    +0.000 C 
ATOM     16  C   UNL     1      -4.400  12.959  23.481  0.00  0.00    +0.000 C 
ATOM     17  H   UNL     1      -2.187  12.315  20.337  0.00  0.00    +0.000 HD
ENDROOT
BRANCH   3  18
ATOM     18  C   UNL     1      -0.431  11.398  21.022  0.00  0.00    +0.000 C 
ATOM     19  C   UNL     1      -0.421  10.065  20.277  0.00  0.00    +0.000 C 
ATOM     20  C   UNL     1       0.994   9.777  19.811  0.00  0.00    +0.000 C 
ATOM     21  O   UNL     1       1.430  10.750  18.858  0.00  0.00    +0.000 OA
ATOM     22  C   UNL     1       1.234  12.041  19.237  0.00  0.00    +0.000 A 
ATOM     23  C   UNL     1       1.906  13.022  18.494  0.00  0.00    +0.000 A 
ATOM     24  F   UNL     1       2.694  12.672  17.463  0.00  0.00    +0.000 F 
ATOM     25  C   UNL     1       1.766  14.374  18.796  0.00  0.00    +0.000 A 
ATOM     26  C   UNL     1       0.970  14.762  19.864  0.00  0.00    +0.000 A 
ATOM     27  C   UNL     1       0.293  13.794  20.609  0.00  0.00    +0.000 A 
ATOM     28  C   UNL     1       0.389  12.427  20.275  0.00  0.00    +0.000 A 
ENDBRANCH   3  18
TORSDOF 1
ENDMDL
