MODEL 1
REMARK VINA RESULT:      -8.4      0.000      0.000
REMARK  Name = 
REMARK  9 active torsions:
REMARK  status: ('A' for Active; 'I' for Inactive)
REMARK    1  A    between atoms: C_1  and  C_2
REMARK    2  A    between atoms: C_6  and  N_7
REMARK    3  A    between atoms: C_8  and  C_10
REMARK    4  A    between atoms: C_12  and  C_13
REMARK    5  A    between atoms: C_19  and  O_20
REMARK    6  A    between atoms: C_25  and  C_26
REMARK    7  A    between atoms: C_26  and  C_27
REMARK    8  A    between atoms: C_27  and  C_28
REMARK    9  A    between atoms: N_32  and  C_33
REMARK                            x       y       z     vdW  Elec       q    Type
REMARK                         _______ _______ _______ _____ _____    ______ ____
ROOT
ATOM      1  N   UNL     1       0.418  10.302  20.271  0.00  0.00    +0.000 N 
ATOM      2  C   UNL     1       0.748   8.980  20.513  0.00  0.00    +0.000 C 
ATOM      3  O   UNL     1       0.324   8.264  21.415  0.00  0.00    +0.000 OA
ATOM      4  H   UNL     1       0.804  10.694  19.418  0.00  0.00    +0.000 HD
ENDROOT
BRANCH   1  10
ATOM      5  C   UNL     1      -3.687  13.221  20.512  0.00  0.00    +0.000 C 
ATOM      6  C   UNL     1      -2.522  12.471  21.101  0.00  0.00    +0.000 A 
ATOM      7  C   UNL     1      -2.373  12.538  22.500  0.00  0.00    +0.000 A 
ATOM      8  C   UNL     1      -1.340  11.874  23.141  0.00  0.00    +0.000 A 
ATOM      9  C   UNL     1      -0.437  11.133  22.392  0.00  0.00    +0.000 A 
ATOM     10  C   UNL     1      -0.541  11.047  20.995  0.00  0.00    +0.000 A 
ATOM     11  C   UNL     1      -1.596  11.719  20.320  0.00  0.00    +0.000 A 
BRANCH  11  12
ATOM     12  C   UNL     1      -1.755  11.618  18.801  0.00  0.00    +0.000 C 
BRANCH  12  13
ATOM     13  C   UNL     1      -2.575  10.397  18.338  0.00  0.00    +0.000 C 
BRANCH  13  14
ATOM     14  C   UNL     1      -2.866  10.377  16.871  0.00  0.00    +0.000 A 
ATOM     15  N   UNL     1      -2.191   9.777  15.912  0.00  0.00    +0.000 NA
ATOM     16  N   UNL     1      -2.831  10.015  14.716  0.00  0.00    +0.000 NA
ATOM     17  C   UNL     1      -3.885  10.754  14.968  0.00  0.00    +0.000 A 
ATOM     18  N   UNL     1      -3.951  11.002  16.301  0.00  0.00    +0.000 N 
ATOM     19  C   UNL     1      -4.960  11.766  16.980  0.00  0.00    +0.000 C 
ENDBRANCH  13  14
ENDBRANCH  12  13
ENDBRANCH  11  12
ENDBRANCH   1  10
BRANCH   2  20
ATOM     20  C   UNL     1       1.642   8.367  19.490  0.00  0.00    +0.000 A 
ATOM     21  C   UNL     1       2.269   7.175  19.802  0.00  0.00    +0.000 A 
ATOM     22  C   UNL     1       3.197   6.676  18.900  0.00  0.00    +0.000 A 
ATOM     23  C   UNL     1       3.395   7.317  17.678  0.00  0.00    +0.000 A 
ATOM     24  C   UNL     1       2.680   8.480  17.436  0.00  0.00    +0.000 A 
ATOM     25  N   UNL     1       1.800   9.023  18.310  0.00  0.00    +0.000 NA
BRANCH  22  26
ATOM     26  C   UNL     1       3.990   5.471  19.243  0.00  0.00    +0.000 C 
ATOM     27  O   UNL     1       5.094   5.648  19.754  0.00  0.00    +0.000 OA
ATOM     28  N   UNL     1       3.432   4.199  18.995  0.00  0.00    +0.000 N 
ATOM     29  C   UNL     1       4.220   3.066  19.481  0.00  0.00    +0.000 C 
ATOM     30  C   UNL     1       3.737   1.679  19.040  0.00  0.00    +0.000 C 
ATOM     31  C   UNL     1       2.276   1.578  18.744  0.00  0.00    +0.000 C 
ATOM     32  C   UNL     1       1.488   2.664  18.725  0.00  0.00    +0.000 C 
ATOM     33  C   UNL     1       1.971   4.056  18.978  0.00  0.00    +0.000 C 
BRANCH  32  34
ATOM     34  O   UNL     1       0.146   2.576  18.412  0.00  0.00    +0.000 OA
ATOM     35  H   UNL     1      -0.314   3.362  18.751  0.00  0.00    +0.000 HD
ENDBRANCH  32  34
ENDBRANCH  22  26
ENDBRANCH   2  20
TORSDOF 7
ENDMDL
MODEL 2
REMARK VINA RESULT:      -8.3      2.958      9.279
REMARK  Name = 
REMARK  9 active torsions:
REMARK  status: ('A' for Active; 'I' for Inactive)
REMARK    1  A    between atoms: C_1  and  C_2
REMARK    2  A    between atoms: C_6  and  N_7
REMARK    3  A    between atoms: C_8  and  C_10
REMARK    4  A    between atoms: C_12  and  C_13
REMARK    5  A    between atoms: C_19  and  O_20
REMARK    6  A    between atoms: C_25  and  C_26
REMARK    7  A    between atoms: C_26  and  C_27
REMARK    8  A    between atoms: C_27  and  C_28
REMARK    9  A    between atoms: N_32  and  C_33
REMARK                            x       y       z     vdW  Elec       q    Type
REMARK                         _______ _______ _______ _____ _____    ______ ____
ROOT
ATOM      1  N   UNL     1       1.959   6.560  20.219  0.00  0.00    +0.000 N 
ATOM      2  C   UNL     1       1.822   7.400  19.126  0.00  0.00    +0.000 C 
ATOM      3  O   UNL     1       1.838   7.081  17.941  0.00  0.00    +0.000 OA
ATOM      4  H   UNL     1       1.824   7.003  21.123  0.00  0.00    +0.000 HD
ENDROOT
BRANCH   1  10
ATOM      5  C   UNL     1       4.616   2.338  19.480  0.00  0.00    +0.000 C 
ATOM      6  C   UNL     1       3.361   3.114  19.782  0.00  0.00    +0.000 A 
ATOM      7  C   UNL     1       2.193   2.359  20.002  0.00  0.00    +0.000 A 
ATOM      8  C   UNL     1       0.989   2.975  20.298  0.00  0.00    +0.000 A 
ATOM      9  C   UNL     1       0.933   4.360  20.376  0.00  0.00    +0.000 A 
ATOM     10  C   UNL     1       2.070   5.152  20.155  0.00  0.00    +0.000 A 
ATOM     11  C   UNL     1       3.315   4.537  19.853  0.00  0.00    +0.000 A 
BRANCH  11  12
ATOM     12  C   UNL     1       4.579   5.373  19.638  0.00  0.00    +0.000 C 
BRANCH  12  13
ATOM     13  C   UNL     1       4.819   5.778  18.170  0.00  0.00    +0.000 C 
BRANCH  13  14
ATOM     14  C   UNL     1       6.060   5.198  17.570  0.00  0.00    +0.000 A 
ATOM     15  N   UNL     1       7.096   4.668  18.189  0.00  0.00    +0.000 NA
ATOM     16  N   UNL     1       8.001   4.249  17.239  0.00  0.00    +0.000 NA
ATOM     17  C   UNL     1       7.500   4.530  16.060  0.00  0.00    +0.000 A 
ATOM     18  N   UNL     1       6.287   5.119  16.216  0.00  0.00    +0.000 N 
ATOM     19  C   UNL     1       5.413   5.568  15.169  0.00  0.00    +0.000 C 
ENDBRANCH  13  14
ENDBRANCH  12  13
ENDBRANCH  11  12
ENDBRANCH   1  10
BRANCH   2  20
ATOM     20  C   UNL     1       1.528   8.820  19.469  0.00  0.00    +0.000 A 
ATOM     21  C   UNL     1       0.943   9.087  20.693  0.00  0.00    +0.000 A 
ATOM     22  C   UNL     1       0.556  10.393  20.954  0.00  0.00    +0.000 A 
ATOM     23  C   UNL     1       0.854  11.403  20.041  0.00  0.00    +0.000 A 
ATOM     24  C   UNL     1       1.489  11.042  18.863  0.00  0.00    +0.000 A 
ATOM     25  N   UNL     1       1.843   9.772  18.553  0.00  0.00    +0.000 NA
BRANCH  22  26
ATOM     26  C   UNL     1      -0.190  10.711  22.196  0.00  0.00    +0.000 C 
ATOM     27  O   UNL     1       0.331  10.395  23.263  0.00  0.00    +0.000 OA
ATOM     28  N   UNL     1      -1.431  11.374  22.090  0.00  0.00    +0.000 N 
ATOM     29  C   UNL     1      -2.039  11.768  23.362  0.00  0.00    +0.000 C 
ATOM     30  C   UNL     1      -3.475  12.300  23.279  0.00  0.00    +0.000 C 
ATOM     31  C   UNL     1      -3.844  12.934  21.978  0.00  0.00    +0.000 C 
ATOM     32  C   UNL     1      -3.018  12.898  20.921  0.00  0.00    +0.000 C 
ATOM     33  C   UNL     1      -1.683  12.228  20.922  0.00  0.00    +0.000 C 
BRANCH  32  34
ATOM     34  O   UNL     1      -3.377  13.449  19.706  0.00  0.00    +0.000 OA
ATOM     35  H   UNL     1      -2.663  14.029  19.395  0.00  0.00    +0.000 HD
ENDBRANCH  32  34
ENDBRANCH  22  26
ENDBRANCH   2  20
TORSDOF 7
ENDMDL
MODEL 3
REMARK VINA RESULT:      -8.2      3.178      9.359
REMARK  Name = 
REMARK  9 active torsions:
REMARK  status: ('A' for Active; 'I' for Inactive)
REMARK    1  A    between atoms: C_1  and  C_2
REMARK    2  A    between atoms: C_6  and  N_7
REMARK    3  A    between atoms: C_8  and  C_10
REMARK    4  A    between atoms: C_12  and  C_13
REMARK    5  A    between atoms: C_19  and  O_20
REMARK    6  A    between atoms: C_25  and  C_26
REMARK    7  A    between atoms: C_26  and  C_27
REMARK    8  A    between atoms: C_27  and  C_28
REMARK    9  A    between atoms: N_32  and  C_33
REMARK                            x       y       z     vdW  Elec       q    Type
REMARK                         _______ _______ _______ _____ _____    ______ ____
ROOT
ATOM      1  N   UNL     1       4.046   6.978  18.392  0.00  0.00    +0.000 N 
ATOM      2  C   UNL     1       3.119   7.911  17.961  0.00  0.00    +0.000 C 
ATOM      3  O   UNL     1       3.033   8.406  16.841  0.00  0.00    +0.000 OA
ATOM      4  H   UNL     1       3.894   6.620  19.330  0.00  0.00    +0.000 HD
ENDROOT
BRANCH   1  10
ATOM      5  C   UNL     1       5.630   3.281  15.350  0.00  0.00    +0.000 C 
ATOM      6  C   UNL     1       5.790   4.568  16.115  0.00  0.00    +0.000 A 
ATOM      7  C   UNL     1       7.042   5.206  16.017  0.00  0.00    +0.000 A 
ATOM      8  C   UNL     1       7.288   6.400  16.673  0.00  0.00    +0.000 A 
ATOM      9  C   UNL     1       6.286   6.975  17.442  0.00  0.00    +0.000 A 
ATOM     10  C   UNL     1       5.028   6.369  17.576  0.00  0.00    +0.000 A 
ATOM     11  C   UNL     1       4.755   5.144  16.907  0.00  0.00    +0.000 A 
BRANCH  11  12
ATOM     12  C   UNL     1       3.382   4.476  17.009  0.00  0.00    +0.000 C 
BRANCH  12  13
ATOM     13  C   UNL     1       3.344   3.266  17.963  0.00  0.00    +0.000 C 
BRANCH  13  14
ATOM     14  C   UNL     1       2.711   3.552  19.288  0.00  0.00    +0.000 A 
ATOM     15  N   UNL     1       3.176   4.296  20.272  0.00  0.00    +0.000 NA
ATOM     16  N   UNL     1       2.253   4.288  21.294  0.00  0.00    +0.000 NA
ATOM     17  C   UNL     1       1.243   3.541  20.914  0.00  0.00    +0.000 A 
ATOM     18  N   UNL     1       1.483   3.064  19.666  0.00  0.00    +0.000 N 
ATOM     19  C   UNL     1       0.617   2.217  18.894  0.00  0.00    +0.000 C 
ENDBRANCH  13  14
ENDBRANCH  12  13
ENDBRANCH  11  12
ENDBRANCH   1  10
BRANCH   2  20
ATOM     20  C   UNL     1       2.071   8.252  18.964  0.00  0.00    +0.000 A 
ATOM     21  C   UNL     1       1.216   9.301  18.682  0.00  0.00    +0.000 A 
ATOM     22  C   UNL     1       0.328   9.696  19.672  0.00  0.00    +0.000 A 
ATOM     23  C   UNL     1       0.246   8.976  20.862  0.00  0.00    +0.000 A 
ATOM     24  C   UNL     1       1.113   7.907  21.030  0.00  0.00    +0.000 A 
ATOM     25  N   UNL     1       2.023   7.519  20.107  0.00  0.00    +0.000 NA
BRANCH  22  26
ATOM     26  C   UNL     1      -0.522  10.895  19.469  0.00  0.00    +0.000 C 
ATOM     27  O   UNL     1      -1.685  10.710  19.118  0.00  0.00    +0.000 OA
ATOM     28  N   UNL     1       0.034  12.169  19.713  0.00  0.00    +0.000 N 
ATOM     29  C   UNL     1      -0.904  13.288  19.618  0.00  0.00    +0.000 C 
ATOM     30  C   UNL     1      -0.281  14.688  19.674  0.00  0.00    +0.000 C 
ATOM     31  C   UNL     1       1.011  14.780  20.417  0.00  0.00    +0.000 C 
ATOM     32  C   UNL     1       1.641  13.684  20.866  0.00  0.00    +0.000 C 
ATOM     33  C   UNL     1       1.142  12.289  20.669  0.00  0.00    +0.000 C 
BRANCH  32  34
ATOM     34  O   UNL     1       2.856  13.766  21.518  0.00  0.00    +0.000 OA
ATOM     35  H   UNL     1       3.148  12.873  21.764  0.00  0.00    +0.000 HD
ENDBRANCH  32  34
ENDBRANCH  22  26
ENDBRANCH   2  20
TORSDOF 7
ENDMDL
MODEL 4
REMARK VINA RESULT:      -8.1      2.622      9.108
REMARK  Name = 
REMARK  9 active torsions:
REMARK  status: ('A' for Active; 'I' for Inactive)
REMARK    1  A    between atoms: C_1  and  C_2
REMARK    2  A    between atoms: C_6  and  N_7
REMARK    3  A    between atoms: C_8  and  C_10
REMARK    4  A    between atoms: C_12  and  C_13
REMARK    5  A    between atoms: C_19  and  O_20
REMARK    6  A    between atoms: C_25  and  C_26
REMARK    7  A    between atoms: C_26  and  C_27
REMARK    8  A    between atoms: C_27  and  C_28
REMARK    9  A    between atoms: N_32  and  C_33
REMARK                            x       y       z     vdW  Elec       q    Type
REMARK                         _______ _______ _______ _____ _____    ______ ____
ROOT
ATOM      1  N   UNL     1       4.202   6.631  18.462  0.00  0.00    +0.000 N 
ATOM      2  C   UNL     1       3.196   7.534  18.164  0.00  0.00    +0.000 C 
ATOM      3  O   UNL     1       2.998   8.094  17.089  0.00  0.00    +0.000 OA
ATOM      4  H   UNL     1       4.142   6.206  19.382  0.00  0.00    +0.000 HD
ENDROOT
BRANCH   1  10
ATOM      5  C   UNL     1       5.671   3.324  14.948  0.00  0.00    +0.000 C 
ATOM      6  C   UNL     1       5.856   4.519  15.846  0.00  0.00    +0.000 A 
ATOM      7  C   UNL     1       7.095   5.182  15.762  0.00  0.00    +0.000 A 
ATOM      8  C   UNL     1       7.362   6.298  16.537  0.00  0.00    +0.000 A 
ATOM      9  C   UNL     1       6.393   6.768  17.413  0.00  0.00    +0.000 A 
ATOM     10  C   UNL     1       5.149   6.132  17.537  0.00  0.00    +0.000 A 
ATOM     11  C   UNL     1       4.855   4.987  16.747  0.00  0.00    +0.000 A 
BRANCH  11  12
ATOM     12  C   UNL     1       3.495   4.291  16.836  0.00  0.00    +0.000 C 
BRANCH  12  13
ATOM     13  C   UNL     1       3.490   3.041  17.738  0.00  0.00    +0.000 C 
BRANCH  13  14
ATOM     14  C   UNL     1       2.534   3.119  18.886  0.00  0.00    +0.000 A 
ATOM     15  N   UNL     1       1.271   3.497  18.874  0.00  0.00    +0.000 NA
ATOM     16  N   UNL     1       0.777   3.398  20.156  0.00  0.00    +0.000 NA
ATOM     17  C   UNL     1       1.746   2.960  20.924  0.00  0.00    +0.000 A 
ATOM     18  N   UNL     1       2.861   2.767  20.175  0.00  0.00    +0.000 N 
ATOM     19  C   UNL     1       4.132   2.287  20.640  0.00  0.00    +0.000 C 
ENDBRANCH  13  14
ENDBRANCH  12  13
ENDBRANCH  11  12
ENDBRANCH   1  10
BRANCH   2  20
ATOM     20  C   UNL     1       2.213   7.750  19.262  0.00  0.00    +0.000 A 
ATOM     21  C   UNL     1       1.593   8.983  19.348  0.00  0.00    +0.000 A 
ATOM     22  C   UNL     1       0.777   9.222  20.444  0.00  0.00    +0.000 A 
ATOM     23  C   UNL     1       0.522   8.201  21.357  0.00  0.00    +0.000 A 
ATOM     24  C   UNL     1       1.151   6.983  21.156  0.00  0.00    +0.000 A 
ATOM     25  N   UNL     1       1.989   6.725  20.125  0.00  0.00    +0.000 NA
BRANCH  22  26
ATOM     26  C   UNL     1       0.191  10.569  20.651  0.00  0.00    +0.000 C 
ATOM     27  O   UNL     1       0.813  11.351  21.366  0.00  0.00    +0.000 OA
ATOM     28  N   UNL     1      -1.022  10.887  20.004  0.00  0.00    +0.000 N 
ATOM     29  C   UNL     1      -1.464  12.274  20.153  0.00  0.00    +0.000 C 
ATOM     30  C   UNL     1      -2.874  12.584  19.636  0.00  0.00    +0.000 C 
ATOM     31  C   UNL     1      -3.358  11.698  18.536  0.00  0.00    +0.000 C 
ATOM     32  C   UNL     1      -2.658  10.621  18.144  0.00  0.00    +0.000 C 
ATOM     33  C   UNL     1      -1.363  10.194  18.755  0.00  0.00    +0.000 C 
BRANCH  32  34
ATOM     34  O   UNL     1      -3.125   9.779  17.154  0.00  0.00    +0.000 OA
ATOM     35  H   UNL     1      -4.063   9.585  17.315  0.00  0.00    +0.000 HD
ENDBRANCH  32  34
ENDBRANCH  22  26
ENDBRANCH   2  20
TORSDOF 7
ENDMDL
MODEL 5
REMARK VINA RESULT:      -8.1      2.955      8.917
REMARK  Name = 
REMARK  9 active torsions:
REMARK  status: ('A' for Active; 'I' for Inactive)
REMARK    1  A    between atoms: C_1  and  C_2
REMARK    2  A    between atoms: C_6  and  N_7
REMARK    3  A    between atoms: C_8  and  C_10
REMARK    4  A    between atoms: C_12  and  C_13
REMARK    5  A    between atoms: C_19  and  O_20
REMARK    6  A    between atoms: C_25  and  C_26
REMARK    7  A    between atoms: C_26  and  C_27
REMARK    8  A    between atoms: C_27  and  C_28
REMARK    9  A    between atoms: N_32  and  C_33
REMARK                            x       y       z     vdW  Elec       q    Type
REMARK                         _______ _______ _______ _____ _____    ______ ____
ROOT
ATOM      1  N   UNL     1       2.103   7.677  19.773  0.00  0.00    +0.000 N 
ATOM      2  C   UNL     1       1.664   8.276  18.604  0.00  0.00    +0.000 C 
ATOM      3  O   UNL     1       1.432   7.724  17.532  0.00  0.00    +0.000 OA
ATOM      4  H   UNL     1       2.147   8.290  20.581  0.00  0.00    +0.000 HD
ENDROOT
BRANCH   1  10
ATOM      5  C   UNL     1       4.767   3.436  19.182  0.00  0.00    +0.000 C 
ATOM      6  C   UNL     1       3.581   4.237  19.652  0.00  0.00    +0.000 A 
ATOM      7  C   UNL     1       2.565   3.524  20.317  0.00  0.00    +0.000 A 
ATOM      8  C   UNL     1       1.438   4.169  20.798  0.00  0.00    +0.000 A 
ATOM      9  C   UNL     1       1.308   5.540  20.620  0.00  0.00    +0.000 A 
ATOM     10  C   UNL     1       2.291   6.287  19.954  0.00  0.00    +0.000 A 
ATOM     11  C   UNL     1       3.456   5.643  19.456  0.00  0.00    +0.000 A 
BRANCH  11  12
ATOM     12  C   UNL     1       4.561   6.438  18.754  0.00  0.00    +0.000 C 
BRANCH  12  13
ATOM     13  C   UNL     1       4.418   6.487  17.221  0.00  0.00    +0.000 C 
BRANCH  13  14
ATOM     14  C   UNL     1       5.641   6.048  16.479  0.00  0.00    +0.000 A 
ATOM     15  N   UNL     1       6.785   6.686  16.341  0.00  0.00    +0.000 NA
ATOM     16  N   UNL     1       7.631   5.901  15.589  0.00  0.00    +0.000 NA
ATOM     17  C   UNL     1       6.988   4.799  15.286  0.00  0.00    +0.000 A 
ATOM     18  N   UNL     1       5.743   4.844  15.823  0.00  0.00    +0.000 N 
ATOM     19  C   UNL     1       4.732   3.827  15.726  0.00  0.00    +0.000 C 
ENDBRANCH  13  14
ENDBRANCH  12  13
ENDBRANCH  11  12
ENDBRANCH   1  10
BRANCH   2  20
ATOM     20  C   UNL     1       1.361   9.730  18.728  0.00  0.00    +0.000 A 
ATOM     21  C   UNL     1       0.138  10.097  19.257  0.00  0.00    +0.000 A 
ATOM     22  C   UNL     1      -0.191  11.444  19.252  0.00  0.00    +0.000 A 
ATOM     23  C   UNL     1       0.741  12.387  18.822  0.00  0.00    +0.000 A 
ATOM     24  C   UNL     1       1.961  11.922  18.356  0.00  0.00    +0.000 A 
ATOM     25  N   UNL     1       2.301  10.613  18.303  0.00  0.00    +0.000 NA
BRANCH  22  26
ATOM     26  C   UNL     1      -1.540  11.879  19.690  0.00  0.00    +0.000 C 
ATOM     27  O   UNL     1      -1.625  12.448  20.776  0.00  0.00    +0.000 OA
ATOM     28  N   UNL     1      -2.638  11.646  18.835  0.00  0.00    +0.000 N 
ATOM     29  C   UNL     1      -3.908  12.221  19.278  0.00  0.00    +0.000 C 
ATOM     30  C   UNL     1      -5.146  11.804  18.475  0.00  0.00    +0.000 C 
ATOM     31  C   UNL     1      -4.885  11.426  17.054  0.00  0.00    +0.000 C 
ATOM     32  C   UNL     1      -3.636  11.319  16.575  0.00  0.00    +0.000 C 
ATOM     33  C   UNL     1      -2.403  11.548  17.388  0.00  0.00    +0.000 C 
BRANCH  32  34
ATOM     34  O   UNL     1      -3.394  10.930  15.272  0.00  0.00    +0.000 OA
ATOM     35  H   UNL     1      -2.457  11.077  15.063  0.00  0.00    +0.000 HD
ENDBRANCH  32  34
ENDBRANCH  22  26
ENDBRANCH   2  20
TORSDOF 7
ENDMDL
MODEL 6
REMARK VINA RESULT:      -8.1      2.593      8.950
REMARK  Name = 
REMARK  9 active torsions:
REMARK  status: ('A' for Active; 'I' for Inactive)
REMARK    1  A    between atoms: C_1  and  C_2
REMARK    2  A    between atoms: C_6  and  N_7
REMARK    3  A    between atoms: C_8  and  C_10
REMARK    4  A    between atoms: C_12  and  C_13
REMARK    5  A    between atoms: C_19  and  O_20
REMARK    6  A    between atoms: C_25  and  C_26
REMARK    7  A    between atoms: C_26  and  C_27
REMARK    8  A    between atoms: C_27  and  C_28
REMARK    9  A    between atoms: N_32  and  C_33
REMARK                            x       y       z     vdW  Elec       q    Type
REMARK                         _______ _______ _______ _____ _____    ______ ____
ROOT
ATOM      1  N   UNL     1       3.421   8.292  17.667  0.00  0.00    +0.000 N 
ATOM      2  C   UNL     1       2.056   8.520  17.682  0.00  0.00    +0.000 C 
ATOM      3  O   UNL     1       1.168   7.715  17.413  0.00  0.00    +0.000 OA
ATOM      4  H   UNL     1       3.990   9.059  18.012  0.00  0.00    +0.000 HD
ENDROOT
BRANCH   1  10
ATOM      5  C   UNL     1       4.841   3.657  19.058  0.00  0.00    +0.000 C 
ATOM      6  C   UNL     1       4.731   4.808  18.093  0.00  0.00    +0.000 A 
ATOM      7  C   UNL     1       5.312   4.622  16.824  0.00  0.00    +0.000 A 
ATOM      8  C   UNL     1       5.255   5.614  15.860  0.00  0.00    +0.000 A 
ATOM      9  C   UNL     1       4.619   6.813  16.151  0.00  0.00    +0.000 A 
ATOM     10  C   UNL     1       4.036   7.045  17.406  0.00  0.00    +0.000 A 
ATOM     11  C   UNL     1       4.081   6.037  18.407  0.00  0.00    +0.000 A 
BRANCH  11  12
ATOM     12  C   UNL     1       3.426   6.249  19.775  0.00  0.00    +0.000 C 
BRANCH  12  13
ATOM     13  C   UNL     1       2.000   5.674  19.880  0.00  0.00    +0.000 C 
BRANCH  13  14
ATOM     14  C   UNL     1       1.925   4.347  20.568  0.00  0.00    +0.000 A 
ATOM     15  N   UNL     1       2.227   4.056  21.817  0.00  0.00    +0.000 NA
ATOM     16  N   UNL     1       1.992   2.714  22.018  0.00  0.00    +0.000 NA
ATOM     17  C   UNL     1       1.548   2.213  20.889  0.00  0.00    +0.000 A 
ATOM     18  N   UNL     1       1.485   3.197  19.957  0.00  0.00    +0.000 N 
ATOM     19  C   UNL     1       1.043   3.059  18.597  0.00  0.00    +0.000 C 
ENDBRANCH  13  14
ENDBRANCH  12  13
ENDBRANCH  11  12
ENDBRANCH   1  10
BRANCH   2  20
ATOM     20  C   UNL     1       1.658   9.869  18.174  0.00  0.00    +0.000 A 
ATOM     21  C   UNL     1       0.405  10.011  18.742  0.00  0.00    +0.000 A 
ATOM     22  C   UNL     1      -0.009  11.291  19.081  0.00  0.00    +0.000 A 
ATOM     23  C   UNL     1       0.867  12.366  18.943  0.00  0.00    +0.000 A 
ATOM     24  C   UNL     1       2.122  12.112  18.411  0.00  0.00    +0.000 A 
ATOM     25  N   UNL     1       2.546  10.886  18.026  0.00  0.00    +0.000 NA
BRANCH  22  26
ATOM     26  C   UNL     1      -1.390  11.516  19.574  0.00  0.00    +0.000 C 
ATOM     27  O   UNL     1      -1.521  11.859  20.747  0.00  0.00    +0.000 OA
ATOM     28  N   UNL     1      -2.465  11.354  18.676  0.00  0.00    +0.000 N 
ATOM     29  C   UNL     1      -3.780  11.721  19.203  0.00  0.00    +0.000 C 
ATOM     30  C   UNL     1      -4.979  11.357  18.318  0.00  0.00    +0.000 C 
ATOM     31  C   UNL     1      -4.690  11.278  16.855  0.00  0.00    +0.000 C 
ATOM     32  C   UNL     1      -3.438  11.373  16.382  0.00  0.00    +0.000 C 
ATOM     33  C   UNL     1      -2.228  11.551  17.240  0.00  0.00    +0.000 C 
BRANCH  32  34
ATOM     34  O   UNL     1      -3.166  11.260  15.033  0.00  0.00    +0.000 OA
ATOM     35  H   UNL     1      -3.813  10.660  14.625  0.00  0.00    +0.000 HD
ENDBRANCH  32  34
ENDBRANCH  22  26
ENDBRANCH   2  20
TORSDOF 7
ENDMDL
MODEL 7
REMARK VINA RESULT:      -8.0      2.563      9.174
REMARK  Name = 
REMARK  9 active torsions:
REMARK  status: ('A' for Active; 'I' for Inactive)
REMARK    1  A    between atoms: C_1  and  C_2
REMARK    2  A    between atoms: C_6  and  N_7
REMARK    3  A    between atoms: C_8  and  C_10
REMARK    4  A    between atoms: C_12  and  C_13
REMARK    5  A    between atoms: C_19  and  O_20
REMARK    6  A    between atoms: C_25  and  C_26
REMARK    7  A    between atoms: C_26  and  C_27
REMARK    8  A    between atoms: C_27  and  C_28
REMARK    9  A    between atoms: N_32  and  C_33
REMARK                            x       y       z     vdW  Elec       q    Type
REMARK                         _______ _______ _______ _____ _____    ______ ____
ROOT
ATOM      1  N   UNL     1       2.058   6.415  19.427  0.00  0.00    +0.000 N 
ATOM      2  C   UNL     1       1.527   7.386  20.259  0.00  0.00    +0.000 C 
ATOM      3  O   UNL     1       1.169   7.247  21.425  0.00  0.00    +0.000 OA
ATOM      4  H   UNL     1       2.381   6.749  18.524  0.00  0.00    +0.000 HD
ENDROOT
BRANCH   1  10
ATOM      5  C   UNL     1       3.701   1.755  18.419  0.00  0.00    +0.000 C 
ATOM      6  C   UNL     1       3.137   2.829  19.312  0.00  0.00    +0.000 A 
ATOM      7  C   UNL     1       2.865   2.462  20.643  0.00  0.00    +0.000 A 
ATOM      8  C   UNL     1       2.356   3.379  21.547  0.00  0.00    +0.000 A 
ATOM      9  C   UNL     1       2.106   4.680  21.132  0.00  0.00    +0.000 A 
ATOM     10  C   UNL     1       2.353   5.086  19.812  0.00  0.00    +0.000 A 
ATOM     11  C   UNL     1       2.879   4.160  18.870  0.00  0.00    +0.000 A 
BRANCH  11  12
ATOM     12  C   UNL     1       3.188   4.582  17.432  0.00  0.00    +0.000 C 
BRANCH  12  13
ATOM     13  C   UNL     1       4.233   5.710  17.322  0.00  0.00    +0.000 C 
BRANCH  13  14
ATOM     14  C   UNL     1       5.598   5.326  17.798  0.00  0.00    +0.000 A 
ATOM     15  N   UNL     1       6.087   5.393  19.021  0.00  0.00    +0.000 NA
ATOM     16  N   UNL     1       7.381   4.921  18.997  0.00  0.00    +0.000 NA
ATOM     17  C   UNL     1       7.656   4.573  17.762  0.00  0.00    +0.000 A 
ATOM     18  N   UNL     1       6.572   4.803  16.979  0.00  0.00    +0.000 N 
ATOM     19  C   UNL     1       6.465   4.547  15.570  0.00  0.00    +0.000 C 
ENDBRANCH  13  14
ENDBRANCH  12  13
ENDBRANCH  11  12
ENDBRANCH   1  10
BRANCH   2  20
ATOM     20  C   UNL     1       1.493   8.755  19.670  0.00  0.00    +0.000 A 
ATOM     21  C   UNL     1       0.789   9.736  20.343  0.00  0.00    +0.000 A 
ATOM     22  C   UNL     1       0.653  10.972  19.728  0.00  0.00    +0.000 A 
ATOM     23  C   UNL     1       1.305  11.225  18.522  0.00  0.00    +0.000 A 
ATOM     24  C   UNL     1       2.030  10.190  17.951  0.00  0.00    +0.000 A 
ATOM     25  N   UNL     1       2.149   8.958  18.497  0.00  0.00    +0.000 NA
BRANCH  22  26
ATOM     26  C   UNL     1      -0.198  12.017  20.345  0.00  0.00    +0.000 C 
ATOM     27  O   UNL     1       0.356  12.841  21.070  0.00  0.00    +0.000 OA
ATOM     28  N   UNL     1      -1.578  12.029  20.051  0.00  0.00    +0.000 N 
ATOM     29  C   UNL     1      -2.323  13.166  20.593  0.00  0.00    +0.000 C 
ATOM     30  C   UNL     1      -3.849  13.088  20.462  0.00  0.00    +0.000 C 
ATOM     31  C   UNL     1      -4.348  12.268  19.318  0.00  0.00    +0.000 C 
ATOM     32  C   UNL     1      -3.514  11.539  18.561  0.00  0.00    +0.000 C 
ATOM     33  C   UNL     1      -2.038  11.457  18.779  0.00  0.00    +0.000 C 
BRANCH  32  34
ATOM     34  O   UNL     1      -3.981  10.750  17.529  0.00  0.00    +0.000 OA
ATOM     35  H   UNL     1      -3.231  10.459  16.984  0.00  0.00    +0.000 HD
ENDBRANCH  32  34
ENDBRANCH  22  26
ENDBRANCH   2  20
TORSDOF 7
ENDMDL
MODEL 8
REMARK VINA RESULT:      -8.0      2.855      8.982
REMARK  Name = 
REMARK  9 active torsions:
REMARK  status: ('A' for Active; 'I' for Inactive)
REMARK    1  A    between atoms: C_1  and  C_2
REMARK    2  A    between atoms: C_6  and  N_7
REMARK    3  A    between atoms: C_8  and  C_10
REMARK    4  A    between atoms: C_12  and  C_13
REMARK    5  A    between atoms: C_19  and  O_20
REMARK    6  A    between atoms: C_25  and  C_26
REMARK    7  A    between atoms: C_26  and  C_27
REMARK    8  A    between atoms: C_27  and  C_28
REMARK    9  A    between atoms: N_32  and  C_33
REMARK                            x       y       z     vdW  Elec       q    Type
REMARK                         _______ _______ _______ _____ _____    ______ ____
ROOT
ATOM      1  N   UNL     1       2.153   7.350  19.787  0.00  0.00    +0.000 N 
ATOM      2  C   UNL     1       1.736   7.961  18.617  0.00  0.00    +0.000 C 
ATOM      3  O   UNL     1       1.474   7.414  17.549  0.00  0.00    +0.000 OA
ATOM      4  H   UNL     1       2.228   7.965  20.591  0.00  0.00    +0.000 HD
ENDROOT
BRANCH   1  10
ATOM      5  C   UNL     1       4.672   3.008  19.308  0.00  0.00    +0.000 C 
ATOM      6  C   UNL     1       3.500   3.855  19.728  0.00  0.00    +0.000 A 
ATOM      7  C   UNL     1       2.429   3.183  20.349  0.00  0.00    +0.000 A 
ATOM      8  C   UNL     1       1.309   3.872  20.783  0.00  0.00    +0.000 A 
ATOM      9  C   UNL     1       1.240   5.246  20.599  0.00  0.00    +0.000 A 
ATOM     10  C   UNL     1       2.279   5.954  19.976  0.00  0.00    +0.000 A 
ATOM     11  C   UNL     1       3.438   5.264  19.527  0.00  0.00    +0.000 A 
BRANCH  11  12
ATOM     12  C   UNL     1       4.601   6.014  18.873  0.00  0.00    +0.000 C 
BRANCH  12  13
ATOM     13  C   UNL     1       4.448   6.201  17.351  0.00  0.00    +0.000 C 
BRANCH  13  14
ATOM     14  C   UNL     1       5.384   5.366  16.536  0.00  0.00    +0.000 A 
ATOM     15  N   UNL     1       5.108   4.302  15.809  0.00  0.00    +0.000 NA
ATOM     16  N   UNL     1       6.273   3.865  15.219  0.00  0.00    +0.000 NA
ATOM     17  C   UNL     1       7.237   4.673  15.594  0.00  0.00    +0.000 A 
ATOM     18  N   UNL     1       6.728   5.628  16.413  0.00  0.00    +0.000 N 
ATOM     19  C   UNL     1       7.456   6.704  17.028  0.00  0.00    +0.000 C 
ENDBRANCH  13  14
ENDBRANCH  12  13
ENDBRANCH  11  12
ENDBRANCH   1  10
BRANCH   2  20
ATOM     20  C   UNL     1       1.499   9.428  18.734  0.00  0.00    +0.000 A 
ATOM     21  C   UNL     1       0.341   9.852  19.356  0.00  0.00    +0.000 A 
ATOM     22  C   UNL     1       0.063  11.211  19.349  0.00  0.00    +0.000 A 
ATOM     23  C   UNL     1       0.990  12.108  18.820  0.00  0.00    +0.000 A 
ATOM     24  C   UNL     1       2.147  11.587  18.263  0.00  0.00    +0.000 A 
ATOM     25  N   UNL     1       2.432  10.265  18.210  0.00  0.00    +0.000 NA
BRANCH  22  26
ATOM     26  C   UNL     1      -1.226  11.707  19.890  0.00  0.00    +0.000 C 
ATOM     27  O   UNL     1      -1.214  12.197  21.018  0.00  0.00    +0.000 OA
ATOM     28  N   UNL     1      -2.379  11.618  19.082  0.00  0.00    +0.000 N 
ATOM     29  C   UNL     1      -3.579  12.247  19.635  0.00  0.00    +0.000 C 
ATOM     30  C   UNL     1      -4.883  11.981  18.874  0.00  0.00    +0.000 C 
ATOM     31  C   UNL     1      -4.722  11.693  17.417  0.00  0.00    +0.000 C 
ATOM     32  C   UNL     1      -3.510  11.533  16.864  0.00  0.00    +0.000 C 
ATOM     33  C   UNL     1      -2.224  11.612  17.622  0.00  0.00    +0.000 C 
BRANCH  32  34
ATOM     34  O   UNL     1      -3.362  11.227  15.525  0.00  0.00    +0.000 OA
ATOM     35  H   UNL     1      -3.723  11.953  14.989  0.00  0.00    +0.000 HD
ENDBRANCH  32  34
ENDBRANCH  22  26
ENDBRANCH   2  20
TORSDOF 7
ENDMDL
MODEL 9
REMARK VINA RESULT:      -8.0      2.095      2.970
REMARK  Name = 
REMARK  9 active torsions:
REMARK  status: ('A' for Active; 'I' for Inactive)
REMARK    1  A    between atoms: C_1  and  C_2
REMARK    2  A    between atoms: C_6  and  N_7
REMARK    3  A    between atoms: C_8  and  C_10
REMARK    4  A    between atoms: C_12  and  C_13
REMARK    5  A    between atoms: C_19  and  O_20
REMARK    6  A    between atoms: C_25  and  C_26
REMARK    7  A    between atoms: C_26  and  C_27
REMARK    8  A    between atoms: C_27  and  C_28
REMARK    9  A    between atoms: N_32  and  C_33
REMARK                            x       y       z     vdW  Elec       q    Type
REMARK                         _______ _______ _______ _____ _____    ______ ____
ROOT
ATOM      1  N   UNL     1       0.484  10.180  20.307  0.00  0.00    +0.000 N 
ATOM      2  C   UNL     1       0.818   8.856  20.532  0.00  0.00    +0.000 C 
ATOM      3  O   UNL     1       0.394   8.127  21.424  0.00  0.00    +0.000 OA
ATOM      4  H   UNL     1       0.871  10.585  19.460  0.00  0.00    +0.000 HD
ENDROOT
BRANCH   1  10
ATOM      5  C   UNL     1      -3.458  13.315  20.572  0.00  0.00    +0.000 C 
ATOM      6  C   UNL     1      -2.380  12.441  21.157  0.00  0.00    +0.000 A 
ATOM      7  C   UNL     1      -2.326  12.366  22.562  0.00  0.00    +0.000 A 
ATOM      8  C   UNL     1      -1.380  11.581  23.199  0.00  0.00    +0.000 A 
ATOM      9  C   UNL     1      -0.469  10.859  22.440  0.00  0.00    +0.000 A 
ATOM     10  C   UNL     1      -0.481  10.912  21.038  0.00  0.00    +0.000 A 
ATOM     11  C   UNL     1      -1.446  11.710  20.366  0.00  0.00    +0.000 A 
BRANCH  11  12
ATOM     12  C   UNL     1      -1.504  11.763  18.838  0.00  0.00    +0.000 C 
BRANCH  12  13
ATOM     13  C   UNL     1      -0.821  13.003  18.228  0.00  0.00    +0.000 C 
BRANCH  13  14
ATOM     14  C   UNL     1       0.516  13.317  18.822  0.00  0.00    +0.000 A 
ATOM     15  N   UNL     1       1.655  12.675  18.657  0.00  0.00    +0.000 NA
ATOM     16  N   UNL     1       2.629  13.327  19.382  0.00  0.00    +0.000 NA
ATOM     17  C   UNL     1       2.066  14.354  19.972  0.00  0.00    +0.000 A 
ATOM     18  N   UNL     1       0.749  14.391  19.649  0.00  0.00    +0.000 N 
ATOM     19  C   UNL     1      -0.212  15.366  20.085  0.00  0.00    +0.000 C 
ENDBRANCH  13  14
ENDBRANCH  12  13
ENDBRANCH  11  12
ENDBRANCH   1  10
BRANCH   2  20
ATOM     20  C   UNL     1       1.718   8.261  19.504  0.00  0.00    +0.000 A 
ATOM     21  C   UNL     1       2.339   7.061  19.798  0.00  0.00    +0.000 A 
ATOM     22  C   UNL     1       3.272   6.577  18.893  0.00  0.00    +0.000 A 
ATOM     23  C   UNL     1       3.479   7.240  17.685  0.00  0.00    +0.000 A 
ATOM     24  C   UNL     1       2.769   8.409  17.460  0.00  0.00    +0.000 A 
ATOM     25  N   UNL     1       1.885   8.938  18.338  0.00  0.00    +0.000 NA
BRANCH  22  26
ATOM     26  C   UNL     1       4.060   5.363  19.219  0.00  0.00    +0.000 C 
ATOM     27  O   UNL     1       5.171   5.528  19.718  0.00  0.00    +0.000 OA
ATOM     28  N   UNL     1       3.489   4.098  18.967  0.00  0.00    +0.000 N 
ATOM     29  C   UNL     1       4.274   2.955  19.437  0.00  0.00    +0.000 C 
ATOM     30  C   UNL     1       3.775   1.575  18.991  0.00  0.00    +0.000 C 
ATOM     31  C   UNL     1       2.311   1.487  18.711  0.00  0.00    +0.000 C 
ATOM     32  C   UNL     1       1.531   2.579  18.708  0.00  0.00    +0.000 C 
ATOM     33  C   UNL     1       2.027   3.965  18.966  0.00  0.00    +0.000 C 
BRANCH  32  34
ATOM     34  O   UNL     1       0.185   2.503  18.410  0.00  0.00    +0.000 OA
ATOM     35  H   UNL     1      -0.004   1.644  17.997  0.00  0.00    +0.000 HD
ENDBRANCH  32  34
ENDBRANCH  22  26
ENDBRANCH   2  20
TORSDOF 7
ENDMDL
