MODEL 1
REMARK VINA RESULT:      -8.4      0.000      0.000
REMARK  Name = 
REMARK  8 active torsions:
REMARK  status: ('A' for Active; 'I' for Inactive)
REMARK    1  A    between atoms: C_1  and  C_2
REMARK    2  A    between atoms: N_5  and  C_6
REMARK    3  A    between atoms: C_6  and  N_7
REMARK    4  A    between atoms: N_7  and  C_8
REMARK    5  A    between atoms: C_12  and  C_13
REMARK    6  A    between atoms: C_13  and  C_14
REMARK    7  A    between atoms: C_14  and  C_15
REMARK    8  A    between atoms: N_19  and  C_20
REMARK                            x       y       z     vdW  Elec       q    Type
REMARK                         _______ _______ _______ _____ _____    ______ ____
ROOT
ATOM      1  C   UNL     1       1.975   7.438  20.032  0.00  0.00    +0.000 A 
ATOM      2  C   UNL     1       2.137   8.283  18.941  0.00  0.00    +0.000 A 
ATOM      3  C   UNL     1       2.574   7.775  17.717  0.00  0.00    +0.000 A 
ATOM      4  C   UNL     1       2.893   6.420  17.585  0.00  0.00    +0.000 A 
ATOM      5  C   UNL     1       2.818   5.543  18.679  0.00  0.00    +0.000 A 
ATOM      6  C   UNL     1       2.324   6.091  19.879  0.00  0.00    +0.000 A 
ENDROOT
BRANCH   5   7
ATOM      7  C   UNL     1       3.378   4.049  18.658  0.00  0.00    +0.000 C 
ATOM      8  C   UNL     1       2.300   3.029  18.175  0.00  0.00    +0.000 C 
ATOM      9  O   UNL     1       2.717   2.075  19.188  0.00  0.00    +0.000 OA
ATOM     10  C   UNL     1       3.332   3.165  19.933  0.00  0.00    +0.000 C 
BRANCH   7  11
ATOM     11  C   UNL     1       4.687   3.908  17.859  0.00  0.00    +0.000 C 
BRANCH  11  12
ATOM     12  C   UNL     1       5.833   4.669  18.437  0.00  0.00    +0.000 A 
ATOM     13  N   UNL     1       6.070   4.856  19.717  0.00  0.00    +0.000 NA
ATOM     14  N   UNL     1       7.273   5.513  19.845  0.00  0.00    +0.000 NA
ATOM     15  C   UNL     1       7.740   5.722  18.638  0.00  0.00    +0.000 A 
ATOM     16  N   UNL     1       6.861   5.233  17.721  0.00  0.00    +0.000 N 
ATOM     17  C   UNL     1       7.026   5.290  16.291  0.00  0.00    +0.000 C 
ENDBRANCH  11  12
ENDBRANCH   7  11
ENDBRANCH   5   7
BRANCH   1  18
ATOM     18  N   UNL     1       1.567   7.832  21.300  0.00  0.00    +0.000 N 
ATOM     19  H   UNL     1       2.343   8.224  21.830  0.00  0.00    +0.000 HD
BRANCH  18  20
ATOM     20  C   UNL     1       0.372   8.622  21.491  0.00  0.00    +0.000 C 
BRANCH  20  25
ATOM     21  C   UNL     1      -3.040  13.087  22.831  0.00  0.00    +0.000 C 
ATOM     22  C   UNL     1      -2.358  11.844  23.300  0.00  0.00    +0.000 C 
ATOM     23  C   UNL     1      -1.161  11.420  22.870  0.00  0.00    +0.000 C 
ATOM     24  C   UNL     1      -0.479  10.130  23.176  0.00  0.00    +0.000 C 
ATOM     25  N   UNL     1       0.570   9.904  22.157  0.00  0.00    +0.000 NA
ATOM     26  C   UNL     1       0.552  11.027  21.200  0.00  0.00    +0.000 C 
ATOM     27  C   UNL     1      -0.319  12.068  21.842  0.00  0.00    +0.000 C 
ATOM     28  O   UNL     1      -0.376  13.248  21.520  0.00  0.00    +0.000 OA
ENDBRANCH  20  25
ENDBRANCH  18  20
ENDBRANCH   1  18
TORSDOF 6
ENDMDL
MODEL 2
REMARK VINA RESULT:      -8.2      2.240      3.502
REMARK  Name = 
REMARK  8 active torsions:
REMARK  status: ('A' for Active; 'I' for Inactive)
REMARK    1  A    between atoms: C_1  and  C_2
REMARK    2  A    between atoms: N_5  and  C_6
REMARK    3  A    between atoms: C_6  and  N_7
REMARK    4  A    between atoms: N_7  and  C_8
REMARK    5  A    between atoms: C_12  and  C_13
REMARK    6  A    between atoms: C_13  and  C_14
REMARK    7  A    between atoms: C_14  and  C_15
REMARK    8  A    between atoms: N_19  and  C_20
REMARK                            x       y       z     vdW  Elec       q    Type
REMARK                         _______ _______ _______ _____ _____    ______ ____
ROOT
ATOM      1  C   UNL     1       2.304   7.121  19.707  0.00  0.00    +0.000 A 
ATOM      2  C   UNL     1       2.263   8.023  18.649  0.00  0.00    +0.000 A 
ATOM      3  C   UNL     1       3.083   7.838  17.536  0.00  0.00    +0.000 A 
ATOM      4  C   UNL     1       3.983   6.770  17.488  0.00  0.00    +0.000 A 
ATOM      5  C   UNL     1       4.114   5.877  18.564  0.00  0.00    +0.000 A 
ATOM      6  C   UNL     1       3.230   6.074  19.643  0.00  0.00    +0.000 A 
ENDROOT
BRANCH   5   7
ATOM      7  C   UNL     1       5.269   4.781  18.672  0.00  0.00    +0.000 C 
ATOM      8  C   UNL     1       6.564   5.359  19.323  0.00  0.00    +0.000 C 
ATOM      9  O   UNL     1       7.391   4.641  18.368  0.00  0.00    +0.000 OA
ATOM     10  C   UNL     1       6.237   4.526  17.486  0.00  0.00    +0.000 C 
BRANCH   7  11
ATOM     11  C   UNL     1       4.809   3.491  19.378  0.00  0.00    +0.000 C 
BRANCH  11  12
ATOM     12  C   UNL     1       3.488   2.983  18.907  0.00  0.00    +0.000 A 
ATOM     13  N   UNL     1       3.162   2.715  17.661  0.00  0.00    +0.000 NA
ATOM     14  N   UNL     1       1.899   2.167  17.650  0.00  0.00    +0.000 NA
ATOM     15  C   UNL     1       1.476   2.121  18.891  0.00  0.00    +0.000 A 
ATOM     16  N   UNL     1       2.428   2.644  19.713  0.00  0.00    +0.000 N 
ATOM     17  C   UNL     1       2.317   2.773  21.143  0.00  0.00    +0.000 C 
ENDBRANCH  11  12
ENDBRANCH   7  11
ENDBRANCH   5   7
BRANCH   1  18
ATOM     18  N   UNL     1       1.552   7.213  20.871  0.00  0.00    +0.000 N 
ATOM     19  H   UNL     1       1.769   6.451  21.510  0.00  0.00    +0.000 HD
BRANCH  18  20
ATOM     20  C   UNL     1       1.435   8.461  21.591  0.00  0.00    +0.000 C 
BRANCH  20  25
ATOM     21  C   UNL     1      -1.093  13.647  21.300  0.00  0.00    +0.000 C 
ATOM     22  C   UNL     1      -0.811  12.348  20.619  0.00  0.00    +0.000 C 
ATOM     23  C   UNL     1      -0.723  11.163  21.239  0.00  0.00    +0.000 C 
ATOM     24  C   UNL     1      -0.306   9.853  20.661  0.00  0.00    +0.000 C 
ATOM     25  N   UNL     1       0.074   8.953  21.772  0.00  0.00    +0.000 NA
ATOM     26  C   UNL     1      -0.079   9.680  23.047  0.00  0.00    +0.000 C 
ATOM     27  C   UNL     1      -0.846  10.922  22.692  0.00  0.00    +0.000 C 
ATOM     28  O   UNL     1      -1.421  11.657  23.486  0.00  0.00    +0.000 OA
ENDBRANCH  20  25
ENDBRANCH  18  20
ENDBRANCH   1  18
TORSDOF 6
ENDMDL
MODEL 3
REMARK VINA RESULT:      -8.1      1.087      1.412
REMARK  Name = 
REMARK  8 active torsions:
REMARK  status: ('A' for Active; 'I' for Inactive)
REMARK    1  A    between atoms: C_1  and  C_2
REMARK    2  A    between atoms: N_5  and  C_6
REMARK    3  A    between atoms: C_6  and  N_7
REMARK    4  A    between atoms: N_7  and  C_8
REMARK    5  A    between atoms: C_12  and  C_13
REMARK    6  A    between atoms: C_13  and  C_14
REMARK    7  A    between atoms: C_14  and  C_15
REMARK    8  A    between atoms: N_19  and  C_20
REMARK                            x       y       z     vdW  Elec       q    Type
REMARK                         _______ _______ _______ _____ _____    ______ ____
ROOT
ATOM      1  C   UNL     1       1.894   7.351  20.291  0.00  0.00    +0.000 A 
ATOM      2  C   UNL     1       2.124   8.199  19.213  0.00  0.00    +0.000 A 
ATOM      3  C   UNL     1       2.469   7.673  17.967  0.00  0.00    +0.000 A 
ATOM      4  C   UNL     1       2.626   6.295  17.798  0.00  0.00    +0.000 A 
ATOM      5  C   UNL     1       2.479   5.406  18.875  0.00  0.00    +0.000 A 
ATOM      6  C   UNL     1       2.082   5.978  20.099  0.00  0.00    +0.000 A 
ENDROOT
BRANCH   5   7
ATOM      7  C   UNL     1       2.863   3.858  18.807  0.00  0.00    +0.000 C 
ATOM      8  C   UNL     1       1.601   2.950  18.678  0.00  0.00    +0.000 C 
ATOM      9  O   UNL     1       2.169   1.991  19.610  0.00  0.00    +0.000 OA
ATOM     10  C   UNL     1       3.060   3.031  20.105  0.00  0.00    +0.000 C 
BRANCH   7  11
ATOM     11  C   UNL     1       3.900   3.543  17.713  0.00  0.00    +0.000 C 
BRANCH  11  12
ATOM     12  C   UNL     1       5.255   4.105  17.984  0.00  0.00    +0.000 A 
ATOM     13  N   UNL     1       5.767   4.351  19.171  0.00  0.00    +0.000 NA
ATOM     14  N   UNL     1       7.071   4.760  19.006  0.00  0.00    +0.000 NA
ATOM     15  C   UNL     1       7.324   4.765  17.720  0.00  0.00    +0.000 A 
ATOM     16  N   UNL     1       6.209   4.385  17.036  0.00  0.00    +0.000 N 
ATOM     17  C   UNL     1       6.101   4.282  15.604  0.00  0.00    +0.000 C 
ENDBRANCH  11  12
ENDBRANCH   7  11
ENDBRANCH   5   7
BRANCH   1  18
ATOM     18  N   UNL     1       1.566   7.759  21.578  0.00  0.00    +0.000 N 
ATOM     19  H   UNL     1       2.130   7.271  22.272  0.00  0.00    +0.000 HD
BRANCH  18  20
ATOM     20  C   UNL     1       1.448   9.160  21.913  0.00  0.00    +0.000 C 
BRANCH  20  25
ATOM     21  C   UNL     1      -1.046  14.212  23.190  0.00  0.00    +0.000 C 
ATOM     22  C   UNL     1      -0.346  13.381  22.165  0.00  0.00    +0.000 C 
ATOM     23  C   UNL     1      -0.474  12.053  22.039  0.00  0.00    +0.000 C 
ATOM     24  C   UNL     1       0.291  11.137  21.145  0.00  0.00    +0.000 C 
ATOM     25  N   UNL     1       0.142   9.756  21.656  0.00  0.00    +0.000 NA
ATOM     26  C   UNL     1      -0.694   9.786  22.871  0.00  0.00    +0.000 C 
ATOM     27  C   UNL     1      -1.287  11.166  22.897  0.00  0.00    +0.000 C 
ATOM     28  O   UNL     1      -2.246  11.517  23.574  0.00  0.00    +0.000 OA
ENDBRANCH  20  25
ENDBRANCH  18  20
ENDBRANCH   1  18
TORSDOF 6
ENDMDL
MODEL 4
REMARK VINA RESULT:      -8.1      4.806      7.565
REMARK  Name = 
REMARK  8 active torsions:
REMARK  status: ('A' for Active; 'I' for Inactive)
REMARK    1  A    between atoms: C_1  and  C_2
REMARK    2  A    between atoms: N_5  and  C_6
REMARK    3  A    between atoms: C_6  and  N_7
REMARK    4  A    between atoms: N_7  and  C_8
REMARK    5  A    between atoms: C_12  and  C_13
REMARK    6  A    between atoms: C_13  and  C_14
REMARK    7  A    between atoms: C_14  and  C_15
REMARK    8  A    between atoms: N_19  and  C_20
REMARK                            x       y       z     vdW  Elec       q    Type
REMARK                         _______ _______ _______ _____ _____    ______ ____
ROOT
ATOM      1  C   UNL     1       7.551   7.445  17.879  0.00  0.00    +0.000 A 
ATOM      2  C   UNL     1       8.267   6.692  18.803  0.00  0.00    +0.000 A 
ATOM      3  C   UNL     1       7.677   5.587  19.417  0.00  0.00    +0.000 A 
ATOM      4  C   UNL     1       6.349   5.249  19.142  0.00  0.00    +0.000 A 
ATOM      5  C   UNL     1       5.563   6.024  18.276  0.00  0.00    +0.000 A 
ATOM      6  C   UNL     1       6.217   7.098  17.641  0.00  0.00    +0.000 A 
ENDROOT
BRANCH   5   7
ATOM      7  C   UNL     1       3.989   5.831  18.093  0.00  0.00    +0.000 C 
ATOM      8  C   UNL     1       3.309   7.110  17.512  0.00  0.00    +0.000 C 
ATOM      9  O   UNL     1       2.182   6.947  18.415  0.00  0.00    +0.000 OA
ATOM     10  C   UNL     1       3.013   6.107  19.267  0.00  0.00    +0.000 C 
BRANCH   7  11
ATOM     11  C   UNL     1       3.628   4.578  17.273  0.00  0.00    +0.000 C 
BRANCH  11  12
ATOM     12  C   UNL     1       2.618   3.698  17.930  0.00  0.00    +0.000 A 
ATOM     13  N   UNL     1       1.329   3.667  17.666  0.00  0.00    +0.000 NA
ATOM     14  N   UNL     1       0.758   2.653  18.400  0.00  0.00    +0.000 NA
ATOM     15  C   UNL     1       1.709   2.091  19.106  0.00  0.00    +0.000 A 
ATOM     16  N   UNL     1       2.889   2.727  18.864  0.00  0.00    +0.000 N 
ATOM     17  C   UNL     1       4.155   2.398  19.467  0.00  0.00    +0.000 C 
ENDBRANCH  11  12
ENDBRANCH   7  11
ENDBRANCH   5   7
BRANCH   1  18
ATOM     18  N   UNL     1       8.026   8.573  17.222  0.00  0.00    +0.000 N 
ATOM     19  H   UNL     1       7.600   8.669  16.302  0.00  0.00    +0.000 HD
BRANCH  18  20
ATOM     20  C   UNL     1       8.091   9.856  17.886  0.00  0.00    +0.000 C 
BRANCH  20  25
ATOM     21  C   UNL     1       9.995  13.881  21.566  0.00  0.00    +0.000 C 
ATOM     22  C   UNL     1       9.581  12.461  21.364  0.00  0.00    +0.000 C 
ATOM     23  C   UNL     1       9.797  11.752  20.247  0.00  0.00    +0.000 C 
ATOM     24  C   UNL     1       9.294  10.389  19.912  0.00  0.00    +0.000 C 
ATOM     25  N   UNL     1       9.392  10.203  18.447  0.00  0.00    +0.000 NA
ATOM     26  C   UNL     1       9.934  11.437  17.847  0.00  0.00    +0.000 C 
ATOM     27  C   UNL     1      10.440  12.242  19.010  0.00  0.00    +0.000 C 
ATOM     28  O   UNL     1      11.206  13.194  18.938  0.00  0.00    +0.000 OA
ENDBRANCH  20  25
ENDBRANCH  18  20
ENDBRANCH   1  18
TORSDOF 6
ENDMDL
MODEL 5
REMARK VINA RESULT:      -8.1      2.106      3.358
REMARK  Name = 
REMARK  8 active torsions:
REMARK  status: ('A' for Active; 'I' for Inactive)
REMARK    1  A    between atoms: C_1  and  C_2
REMARK    2  A    between atoms: N_5  and  C_6
REMARK    3  A    between atoms: C_6  and  N_7
REMARK    4  A    between atoms: N_7  and  C_8
REMARK    5  A    between atoms: C_12  and  C_13
REMARK    6  A    between atoms: C_13  and  C_14
REMARK    7  A    between atoms: C_14  and  C_15
REMARK    8  A    between atoms: N_19  and  C_20
REMARK                            x       y       z     vdW  Elec       q    Type
REMARK                         _______ _______ _______ _____ _____    ______ ____
ROOT
ATOM      1  C   UNL     1       2.048   7.622  19.982  0.00  0.00    +0.000 A 
ATOM      2  C   UNL     1       1.958   8.497  18.906  0.00  0.00    +0.000 A 
ATOM      3  C   UNL     1       2.583   8.192  17.696  0.00  0.00    +0.000 A 
ATOM      4  C   UNL     1       3.341   7.025  17.566  0.00  0.00    +0.000 A 
ATOM      5  C   UNL     1       3.524   6.148  18.647  0.00  0.00    +0.000 A 
ATOM      6  C   UNL     1       2.832   6.472  19.830  0.00  0.00    +0.000 A 
ENDROOT
BRANCH   5   7
ATOM      7  C   UNL     1       4.552   4.927  18.635  0.00  0.00    +0.000 C 
ATOM      8  C   UNL     1       6.002   5.381  18.986  0.00  0.00    +0.000 C 
ATOM      9  O   UNL     1       6.548   4.508  17.962  0.00  0.00    +0.000 OA
ATOM     10  C   UNL     1       5.241   4.480  17.319  0.00  0.00    +0.000 C 
BRANCH   7  11
ATOM     11  C   UNL     1       4.098   3.752  19.522  0.00  0.00    +0.000 C 
BRANCH  11  12
ATOM     12  C   UNL     1       2.733   3.243  19.200  0.00  0.00    +0.000 A 
ATOM     13  N   UNL     1       2.265   2.994  17.996  0.00  0.00    +0.000 NA
ATOM     14  N   UNL     1       1.011   2.439  18.123  0.00  0.00    +0.000 NA
ATOM     15  C   UNL     1       0.736   2.371  19.403  0.00  0.00    +0.000 A 
ATOM     16  N   UNL     1       1.775   2.886  20.117  0.00  0.00    +0.000 N 
ATOM     17  C   UNL     1       1.832   2.990  21.553  0.00  0.00    +0.000 C 
ENDBRANCH  11  12
ENDBRANCH   7  11
ENDBRANCH   5   7
BRANCH   1  18
ATOM     18  N   UNL     1       1.487   7.828  21.235  0.00  0.00    +0.000 N 
ATOM     19  H   UNL     1       2.198   8.077  21.920  0.00  0.00    +0.000 HD
BRANCH  18  20
ATOM     20  C   UNL     1       0.310   8.652  21.403  0.00  0.00    +0.000 C 
BRANCH  20  25
ATOM     21  C   UNL     1      -3.018  13.161  22.805  0.00  0.00    +0.000 C 
ATOM     22  C   UNL     1      -2.408  11.868  23.238  0.00  0.00    +0.000 C 
ATOM     23  C   UNL     1      -1.203  11.424  22.854  0.00  0.00    +0.000 C 
ATOM     24  C   UNL     1      -0.586  10.093  23.122  0.00  0.00    +0.000 C 
ATOM     25  N   UNL     1       0.514   9.886  22.153  0.00  0.00    +0.000 NA
ATOM     26  C   UNL     1       0.592  11.060  21.264  0.00  0.00    +0.000 C 
ATOM     27  C   UNL     1      -0.280  12.096  21.916  0.00  0.00    +0.000 C 
ATOM     28  O   UNL     1      -0.276  13.294  21.661  0.00  0.00    +0.000 OA
ENDBRANCH  20  25
ENDBRANCH  18  20
ENDBRANCH   1  18
TORSDOF 6
ENDMDL
MODEL 6
REMARK VINA RESULT:      -8.0      2.795      4.284
REMARK  Name = 
REMARK  8 active torsions:
REMARK  status: ('A' for Active; 'I' for Inactive)
REMARK    1  A    between atoms: C_1  and  C_2
REMARK    2  A    between atoms: N_5  and  C_6
REMARK    3  A    between atoms: C_6  and  N_7
REMARK    4  A    between atoms: N_7  and  C_8
REMARK    5  A    between atoms: C_12  and  C_13
REMARK    6  A    between atoms: C_13  and  C_14
REMARK    7  A    between atoms: C_14  and  C_15
REMARK    8  A    between atoms: N_19  and  C_20
REMARK                            x       y       z     vdW  Elec       q    Type
REMARK                         _______ _______ _______ _____ _____    ______ ____
ROOT
ATOM      1  C   UNL     1       2.804   4.662  19.474  0.00  0.00    +0.000 A 
ATOM      2  C   UNL     1       1.984   3.687  18.919  0.00  0.00    +0.000 A 
ATOM      3  C   UNL     1       2.317   3.100  17.697  0.00  0.00    +0.000 A 
ATOM      4  C   UNL     1       3.455   3.514  17.000  0.00  0.00    +0.000 A 
ATOM      5  C   UNL     1       4.272   4.548  17.484  0.00  0.00    +0.000 A 
ATOM      6  C   UNL     1       3.924   5.074  18.744  0.00  0.00    +0.000 A 
ENDROOT
BRANCH   5   7
ATOM      7  C   UNL     1       5.448   5.220  16.639  0.00  0.00    +0.000 C 
ATOM      8  C   UNL     1       6.305   6.195  17.505  0.00  0.00    +0.000 C 
ATOM      9  O   UNL     1       6.367   7.148  16.411  0.00  0.00    +0.000 OA
ATOM     10  C   UNL     1       5.198   6.514  15.818  0.00  0.00    +0.000 C 
BRANCH   7  11
ATOM     11  C   UNL     1       6.330   4.190  15.910  0.00  0.00    +0.000 C 
BRANCH  11  12
ATOM     12  C   UNL     1       6.915   4.692  14.633  0.00  0.00    +0.000 A 
ATOM     13  N   UNL     1       7.931   5.520  14.520  0.00  0.00    +0.000 NA
ATOM     14  N   UNL     1       8.237   5.655  13.185  0.00  0.00    +0.000 NA
ATOM     15  C   UNL     1       7.394   4.914  12.509  0.00  0.00    +0.000 A 
ATOM     16  N   UNL     1       6.530   4.309  13.370  0.00  0.00    +0.000 N 
ATOM     17  C   UNL     1       5.455   3.427  12.995  0.00  0.00    +0.000 C 
ENDBRANCH  11  12
ENDBRANCH   7  11
ENDBRANCH   5   7
BRANCH   1  18
ATOM     18  N   UNL     1       2.564   5.328  20.669  0.00  0.00    +0.000 N 
ATOM     19  H   UNL     1       3.431   5.669  21.080  0.00  0.00    +0.000 HD
BRANCH  18  20
ATOM     20  C   UNL     1       1.525   6.328  20.775  0.00  0.00    +0.000 C 
BRANCH  20  25
ATOM     21  C   UNL     1      -1.158  11.217  19.270  0.00  0.00    +0.000 C 
ATOM     22  C   UNL     1      -0.567  10.397  20.369  0.00  0.00    +0.000 C 
ATOM     23  C   UNL     1       0.510   9.609  20.241  0.00  0.00    +0.000 C 
ATOM     24  C   UNL     1       1.074   8.655  21.239  0.00  0.00    +0.000 C 
ATOM     25  N   UNL     1       1.952   7.700  20.527  0.00  0.00    +0.000 NA
ATOM     26  C   UNL     1       1.939   8.025  19.088  0.00  0.00    +0.000 C 
ATOM     27  C   UNL     1       1.281   9.373  19.003  0.00  0.00    +0.000 C 
ATOM     28  O   UNL     1       1.318  10.125  18.037  0.00  0.00    +0.000 OA
ENDBRANCH  20  25
ENDBRANCH  18  20
ENDBRANCH   1  18
TORSDOF 6
ENDMDL
MODEL 7
REMARK VINA RESULT:      -8.0      2.192      3.337
REMARK  Name = 
REMARK  8 active torsions:
REMARK  status: ('A' for Active; 'I' for Inactive)
REMARK    1  A    between atoms: C_1  and  C_2
REMARK    2  A    between atoms: N_5  and  C_6
REMARK    3  A    between atoms: C_6  and  N_7
REMARK    4  A    between atoms: N_7  and  C_8
REMARK    5  A    between atoms: C_12  and  C_13
REMARK    6  A    between atoms: C_13  and  C_14
REMARK    7  A    between atoms: C_14  and  C_15
REMARK    8  A    between atoms: N_19  and  C_20
REMARK                            x       y       z     vdW  Elec       q    Type
REMARK                         _______ _______ _______ _____ _____    ______ ____
ROOT
ATOM      1  C   UNL     1       2.110   7.519  19.795  0.00  0.00    +0.000 A 
ATOM      2  C   UNL     1       1.879   8.494  18.831  0.00  0.00    +0.000 A 
ATOM      3  C   UNL     1       2.477   8.394  17.574  0.00  0.00    +0.000 A 
ATOM      4  C   UNL     1       3.344   7.337  17.284  0.00  0.00    +0.000 A 
ATOM      5  C   UNL     1       3.667   6.371  18.250  0.00  0.00    +0.000 A 
ATOM      6  C   UNL     1       3.001   6.485  19.486  0.00  0.00    +0.000 A 
ENDROOT
BRANCH   5   7
ATOM      7  C   UNL     1       4.813   5.277  18.063  0.00  0.00    +0.000 C 
ATOM      8  C   UNL     1       5.503   4.918  19.416  0.00  0.00    +0.000 C 
ATOM      9  O   UNL     1       6.805   4.894  18.771  0.00  0.00    +0.000 OA
ATOM     10  C   UNL     1       6.259   5.696  17.685  0.00  0.00    +0.000 C 
BRANCH   7  11
ATOM     11  C   UNL     1       4.326   4.015  17.325  0.00  0.00    +0.000 C 
BRANCH  11  12
ATOM     12  C   UNL     1       3.061   3.446  17.874  0.00  0.00    +0.000 A 
ATOM     13  N   UNL     1       1.848   3.675  17.419  0.00  0.00    +0.000 NA
ATOM     14  N   UNL     1       0.964   2.887  18.119  0.00  0.00    +0.000 NA
ATOM     15  C   UNL     1       1.655   2.199  18.995  0.00  0.00    +0.000 A 
ATOM     16  N   UNL     1       2.972   2.533  18.897  0.00  0.00    +0.000 N 
ATOM     17  C   UNL     1       4.034   1.992  19.704  0.00  0.00    +0.000 C 
ENDBRANCH  11  12
ENDBRANCH   7  11
ENDBRANCH   5   7
BRANCH   1  18
ATOM     18  N   UNL     1       1.588   7.523  21.082  0.00  0.00    +0.000 N 
ATOM     19  H   UNL     1       2.055   6.836  21.670  0.00  0.00    +0.000 HD
BRANCH  18  20
ATOM     20  C   UNL     1       1.388   8.758  21.807  0.00  0.00    +0.000 C 
BRANCH  20  25
ATOM     21  C   UNL     1      -0.763  14.014  22.867  0.00  0.00    +0.000 C 
ATOM     22  C   UNL     1      -0.185  13.073  21.860  0.00  0.00    +0.000 C 
ATOM     23  C   UNL     1      -0.384  11.748  21.850  0.00  0.00    +0.000 C 
ATOM     24  C   UNL     1       0.265  10.729  20.975  0.00  0.00    +0.000 C 
ATOM     25  N   UNL     1       0.094   9.400  21.604  0.00  0.00    +0.000 NA
ATOM     26  C   UNL     1      -0.640   9.564  22.873  0.00  0.00    +0.000 C 
ATOM     27  C   UNL     1      -1.165  10.971  22.834  0.00  0.00    +0.000 C 
ATOM     28  O   UNL     1      -2.049  11.422  23.552  0.00  0.00    +0.000 OA
ENDBRANCH  20  25
ENDBRANCH  18  20
ENDBRANCH   1  18
TORSDOF 6
ENDMDL
MODEL 8
REMARK VINA RESULT:      -8.0      1.876      3.048
REMARK  Name = 
REMARK  8 active torsions:
REMARK  status: ('A' for Active; 'I' for Inactive)
REMARK    1  A    between atoms: C_1  and  C_2
REMARK    2  A    between atoms: N_5  and  C_6
REMARK    3  A    between atoms: C_6  and  N_7
REMARK    4  A    between atoms: N_7  and  C_8
REMARK    5  A    between atoms: C_12  and  C_13
REMARK    6  A    between atoms: C_13  and  C_14
REMARK    7  A    between atoms: C_14  and  C_15
REMARK    8  A    between atoms: N_19  and  C_20
REMARK                            x       y       z     vdW  Elec       q    Type
REMARK                         _______ _______ _______ _____ _____    ______ ____
ROOT
ATOM      1  C   UNL     1       2.141   7.394  19.841  0.00  0.00    +0.000 A 
ATOM      2  C   UNL     1       2.055   8.308  18.798  0.00  0.00    +0.000 A 
ATOM      3  C   UNL     1       2.646   8.026  17.565  0.00  0.00    +0.000 A 
ATOM      4  C   UNL     1       3.365   6.841  17.379  0.00  0.00    +0.000 A 
ATOM      5  C   UNL     1       3.544   5.923  18.426  0.00  0.00    +0.000 A 
ATOM      6  C   UNL     1       2.886   6.227  19.634  0.00  0.00    +0.000 A 
ENDROOT
BRANCH   5   7
ATOM      7  C   UNL     1       4.532   4.673  18.351  0.00  0.00    +0.000 C 
ATOM      8  C   UNL     1       5.609   4.712  19.480  0.00  0.00    +0.000 C 
ATOM      9  O   UNL     1       6.632   4.266  18.550  0.00  0.00    +0.000 OA
ATOM     10  C   UNL     1       5.792   4.708  17.445  0.00  0.00    +0.000 C 
BRANCH   7  11
ATOM     11  C   UNL     1       3.792   3.322  18.323  0.00  0.00    +0.000 C 
BRANCH  11  12
ATOM     12  C   UNL     1       3.155   2.956  19.622  0.00  0.00    +0.000 A 
ATOM     13  N   UNL     1       3.787   2.666  20.739  0.00  0.00    +0.000 NA
ATOM     14  N   UNL     1       2.852   2.488  21.734  0.00  0.00    +0.000 NA
ATOM     15  C   UNL     1       1.668   2.665  21.200  0.00  0.00    +0.000 A 
ATOM     16  N   UNL     1       1.805   2.935  19.873  0.00  0.00    +0.000 N 
ATOM     17  C   UNL     1       0.723   3.176  18.953  0.00  0.00    +0.000 C 
ENDBRANCH  11  12
ENDBRANCH   7  11
ENDBRANCH   5   7
BRANCH   1  18
ATOM     18  N   UNL     1       1.612   7.574  21.113  0.00  0.00    +0.000 N 
ATOM     19  H   UNL     1       2.342   7.805  21.785  0.00  0.00    +0.000 HD
BRANCH  18  20
ATOM     20  C   UNL     1       0.444   8.397  21.329  0.00  0.00    +0.000 C 
BRANCH  20  25
ATOM     21  C   UNL     1      -2.829  12.903  22.865  0.00  0.00    +0.000 C 
ATOM     22  C   UNL     1      -2.187  11.619  23.277  0.00  0.00    +0.000 C 
ATOM     23  C   UNL     1      -1.003  11.178  22.831  0.00  0.00    +0.000 C 
ATOM     24  C   UNL     1      -0.364   9.853  23.079  0.00  0.00    +0.000 C 
ATOM     25  N   UNL     1       0.681   9.641  22.052  0.00  0.00    +0.000 NA
ATOM     26  C   UNL     1       0.701  10.805  21.147  0.00  0.00    +0.000 C 
ATOM     27  C   UNL     1      -0.139  11.843  21.834  0.00  0.00    +0.000 C 
ATOM     28  O   UNL     1      -0.157  13.038  21.566  0.00  0.00    +0.000 OA
ENDBRANCH  20  25
ENDBRANCH  18  20
ENDBRANCH   1  18
TORSDOF 6
ENDMDL
MODEL 9
REMARK VINA RESULT:      -7.9      1.466      1.805
REMARK  Name = 
REMARK  8 active torsions:
REMARK  status: ('A' for Active; 'I' for Inactive)
REMARK    1  A    between atoms: C_1  and  C_2
REMARK    2  A    between atoms: N_5  and  C_6
REMARK    3  A    between atoms: C_6  and  N_7
REMARK    4  A    between atoms: N_7  and  C_8
REMARK    5  A    between atoms: C_12  and  C_13
REMARK    6  A    between atoms: C_13  and  C_14
REMARK    7  A    between atoms: C_14  and  C_15
REMARK    8  A    between atoms: N_19  and  C_20
REMARK                            x       y       z     vdW  Elec       q    Type
REMARK                         _______ _______ _______ _____ _____    ______ ____
ROOT
ATOM      1  C   UNL     1       1.904   7.529  20.029  0.00  0.00    +0.000 A 
ATOM      2  C   UNL     1       2.210   8.377  18.971  0.00  0.00    +0.000 A 
ATOM      3  C   UNL     1       2.758   7.863  17.795  0.00  0.00    +0.000 A 
ATOM      4  C   UNL     1       3.042   6.500  17.682  0.00  0.00    +0.000 A 
ATOM      5  C   UNL     1       2.821   5.617  18.751  0.00  0.00    +0.000 A 
ATOM      6  C   UNL     1       2.221   6.172  19.898  0.00  0.00    +0.000 A 
ENDROOT
BRANCH   5   7
ATOM      7  C   UNL     1       3.328   4.104  18.772  0.00  0.00    +0.000 C 
ATOM      8  C   UNL     1       2.213   3.108  18.325  0.00  0.00    +0.000 C 
ATOM      9  O   UNL     1       2.602   2.171  19.364  0.00  0.00    +0.000 OA
ATOM     10  C   UNL     1       3.259   3.260  20.073  0.00  0.00    +0.000 C 
BRANCH   7  11
ATOM     11  C   UNL     1       4.627   3.893  17.971  0.00  0.00    +0.000 C 
BRANCH  11  12
ATOM     12  C   UNL     1       5.794   4.655  18.502  0.00  0.00    +0.000 A 
ATOM     13  N   UNL     1       6.122   4.784  19.770  0.00  0.00    +0.000 NA
ATOM     14  N   UNL     1       7.316   5.466  19.843  0.00  0.00    +0.000 NA
ATOM     15  C   UNL     1       7.687   5.747  18.618  0.00  0.00    +0.000 A 
ATOM     16  N   UNL     1       6.753   5.281  17.743  0.00  0.00    +0.000 N 
ATOM     17  C   UNL     1       6.811   5.413  16.310  0.00  0.00    +0.000 C 
ENDBRANCH  11  12
ENDBRANCH   7  11
ENDBRANCH   5   7
BRANCH   1  18
ATOM     18  N   UNL     1       1.377   7.927  21.251  0.00  0.00    +0.000 N 
ATOM     19  H   UNL     1       1.469   7.190  21.948  0.00  0.00    +0.000 HD
BRANCH  18  20
ATOM     20  C   UNL     1       1.703   9.213  21.825  0.00  0.00    +0.000 C 
BRANCH  20  25
ATOM     21  C   UNL     1      -1.660  10.987  17.476  0.00  0.00    +0.000 C 
ATOM     22  C   UNL     1      -1.547  10.176  18.726  0.00  0.00    +0.000 C 
ATOM     23  C   UNL     1      -0.797  10.506  19.786  0.00  0.00    +0.000 C 
ATOM     24  C   UNL     1      -0.518   9.691  21.003  0.00  0.00    +0.000 C 
ATOM     25  N   UNL     1       0.684  10.244  21.669  0.00  0.00    +0.000 NA
ATOM     26  C   UNL     1       1.180  11.388  20.881  0.00  0.00    +0.000 C 
ATOM     27  C   UNL     1       0.077  11.692  19.906  0.00  0.00    +0.000 C 
ATOM     28  O   UNL     1      -0.040  12.727  19.263  0.00  0.00    +0.000 OA
ENDBRANCH  20  25
ENDBRANCH  18  20
ENDBRANCH   1  18
TORSDOF 6
ENDMDL
