MODEL 1
REMARK VINA RESULT:      -9.5      0.000      0.000
REMARK  Name = 
REMARK  8 active torsions:
REMARK  status: ('A' for Active; 'I' for Inactive)
REMARK    1  A    between atoms: C_1  and  C_2
REMARK    2  A    between atoms: C_2  and  C_4
REMARK    3  A    between atoms: C_8  and  C_9
REMARK    4  A    between atoms: N_11  and  C_12
REMARK    5  A    between atoms: C_16  and  C_17
REMARK    6  A    between atoms: C_17  and  C_18
REMARK    7  A    between atoms: C_18  and  C_19
REMARK    8  A    between atoms: N_23  and  C_24
REMARK                            x       y       z     vdW  Elec       q    Type
REMARK                         _______ _______ _______ _____ _____    ______ ____
ROOT
ATOM      1  C   UNL     1       2.527   5.987  18.272  0.00  0.00    +0.000 A 
ATOM      2  C   UNL     1       1.717   4.894  17.965  0.00  0.00    +0.000 A 
ATOM      3  C   UNL     1       2.262   3.748  17.403  0.00  0.00    +0.000 A 
ATOM      4  C   UNL     1       3.618   3.710  17.105  0.00  0.00    +0.000 A 
ATOM      5  C   UNL     1       4.459   4.829  17.304  0.00  0.00    +0.000 A 
ATOM      6  C   UNL     1       3.882   5.948  17.933  0.00  0.00    +0.000 A 
ENDROOT
BRANCH   1   9
ATOM      7  C   UNL     1       1.978   8.411  18.347  0.00  0.00    +0.000 C 
ATOM      8  O   UNL     1       2.326   8.732  17.210  0.00  0.00    +0.000 OA
ATOM      9  N   UNL     1       2.032   7.147  18.898  0.00  0.00    +0.000 N 
ATOM     10  H   UNL     1       1.600   7.050  19.820  0.00  0.00    +0.000 HD
BRANCH   7  15
ATOM     11  C   UNL     1       0.346  10.128  21.281  0.00  0.00    +0.000 A 
ATOM     12  C   UNL     1       0.351  11.436  20.788  0.00  0.00    +0.000 A 
ATOM     13  C   UNL     1       0.884  11.682  19.531  0.00  0.00    +0.000 A 
ATOM     14  N   UNL     1       1.412  10.731  18.735  0.00  0.00    +0.000 NA
ATOM     15  C   UNL     1       1.406   9.465  19.233  0.00  0.00    +0.000 A 
ATOM     16  C   UNL     1       0.906   9.123  20.489  0.00  0.00    +0.000 A 
BRANCH  11  18
ATOM     17  C   UNL     1      -1.236  10.884  23.071  0.00  0.00    +0.000 C 
ATOM     18  C   UNL     1      -0.248   9.816  22.632  0.00  0.00    +0.000 C 
ATOM     19  F   UNL     1      -0.907   8.619  22.635  0.00  0.00    +0.000 F 
ENDBRANCH  11  18
ENDBRANCH   7  15
ENDBRANCH   1   9
BRANCH   5  20
ATOM     20  C   UNL     1       5.964   4.808  16.784  0.00  0.00    +0.000 C 
ATOM     21  C   UNL     1       7.001   4.449  17.894  0.00  0.00    +0.000 C 
ATOM     22  O   UNL     1       7.948   5.396  17.338  0.00  0.00    +0.000 OA
ATOM     23  C   UNL     1       6.831   6.100  16.713  0.00  0.00    +0.000 C 
BRANCH  20  24
ATOM     24  C   UNL     1       6.074   3.929  15.512  0.00  0.00    +0.000 C 
BRANCH  24  25
ATOM     25  C   UNL     1       6.806   4.556  14.362  0.00  0.00    +0.000 A 
ATOM     26  N   UNL     1       7.725   5.499  14.440  0.00  0.00    +0.000 NA
ATOM     27  N   UNL     1       8.209   5.751  13.177  0.00  0.00    +0.000 NA
ATOM     28  C   UNL     1       7.569   4.970  12.341  0.00  0.00    +0.000 A 
ATOM     29  N   UNL     1       6.678   4.202  13.034  0.00  0.00    +0.000 N 
ATOM     30  C   UNL     1       5.795   3.237  12.432  0.00  0.00    +0.000 C 
ENDBRANCH  24  25
ENDBRANCH  20  24
ENDBRANCH   5  20
TORSDOF 6
ENDMDL
MODEL 2
REMARK VINA RESULT:      -9.3      4.838      7.523
REMARK  Name = 
REMARK  8 active torsions:
REMARK  status: ('A' for Active; 'I' for Inactive)
REMARK    1  A    between atoms: C_1  and  C_2
REMARK    2  A    between atoms: C_2  and  C_4
REMARK    3  A    between atoms: C_8  and  C_9
REMARK    4  A    between atoms: N_11  and  C_12
REMARK    5  A    between atoms: C_16  and  C_17
REMARK    6  A    between atoms: C_17  and  C_18
REMARK    7  A    between atoms: C_18  and  C_19
REMARK    8  A    between atoms: N_23  and  C_24
REMARK                            x       y       z     vdW  Elec       q    Type
REMARK                         _______ _______ _______ _____ _____    ______ ____
ROOT
ATOM      1  C   UNL     1       6.367   6.634  16.837  0.00  0.00    +0.000 A 
ATOM      2  C   UNL     1       6.955   5.713  15.969  0.00  0.00    +0.000 A 
ATOM      3  C   UNL     1       6.301   4.533  15.644  0.00  0.00    +0.000 A 
ATOM      4  C   UNL     1       5.070   4.251  16.222  0.00  0.00    +0.000 A 
ATOM      5  C   UNL     1       4.482   5.105  17.184  0.00  0.00    +0.000 A 
ATOM      6  C   UNL     1       5.146   6.319  17.440  0.00  0.00    +0.000 A 
ENDROOT
BRANCH   1   9
ATOM      7  C   UNL     1       7.950   8.085  18.089  0.00  0.00    +0.000 C 
ATOM      8  O   UNL     1       8.495   7.231  18.789  0.00  0.00    +0.000 OA
ATOM      9  N   UNL     1       6.963   7.870  17.149  0.00  0.00    +0.000 N 
ATOM     10  H   UNL     1       6.706   8.685  16.588  0.00  0.00    +0.000 HD
BRANCH   7  15
ATOM     11  C   UNL     1       9.751  11.175  19.284  0.00  0.00    +0.000 A 
ATOM     12  C   UNL     1       9.163  12.107  18.425  0.00  0.00    +0.000 A 
ATOM     13  C   UNL     1       8.214  11.675  17.509  0.00  0.00    +0.000 A 
ATOM     14  N   UNL     1       7.814  10.394  17.382  0.00  0.00    +0.000 NA
ATOM     15  C   UNL     1       8.403   9.499  18.221  0.00  0.00    +0.000 A 
ATOM     16  C   UNL     1       9.375   9.835  19.163  0.00  0.00    +0.000 A 
BRANCH  11  18
ATOM     17  C   UNL     1      12.147  11.784  19.696  0.00  0.00    +0.000 C 
ATOM     18  C   UNL     1      10.768  11.608  20.311  0.00  0.00    +0.000 C 
ATOM     19  F   UNL     1      10.425  12.794  20.898  0.00  0.00    +0.000 F 
ENDBRANCH  11  18
ENDBRANCH   7  15
ENDBRANCH   1   9
BRANCH   5  20
ATOM     20  C   UNL     1       3.163   4.660  17.956  0.00  0.00    +0.000 C 
ATOM     21  C   UNL     1       2.584   3.296  17.465  0.00  0.00    +0.000 C 
ATOM     22  O   UNL     1       1.231   3.791  17.633  0.00  0.00    +0.000 OA
ATOM     23  C   UNL     1       1.749   5.153  17.527  0.00  0.00    +0.000 C 
BRANCH  20  24
ATOM     24  C   UNL     1       3.394   4.730  19.487  0.00  0.00    +0.000 C 
BRANCH  24  25
ATOM     25  C   UNL     1       3.809   3.440  20.131  0.00  0.00    +0.000 A 
ATOM     26  N   UNL     1       4.975   2.837  19.996  0.00  0.00    +0.000 NA
ATOM     27  N   UNL     1       4.993   1.724  20.803  0.00  0.00    +0.000 NA
ATOM     28  C   UNL     1       3.834   1.651  21.411  0.00  0.00    +0.000 A 
ATOM     29  N   UNL     1       3.056   2.703  21.023  0.00  0.00    +0.000 N 
ATOM     30  C   UNL     1       1.711   2.934  21.484  0.00  0.00    +0.000 C 
ENDBRANCH  24  25
ENDBRANCH  20  24
ENDBRANCH   5  20
TORSDOF 6
ENDMDL
MODEL 3
REMARK VINA RESULT:      -9.3      4.238      7.337
REMARK  Name = 
REMARK  8 active torsions:
REMARK  status: ('A' for Active; 'I' for Inactive)
REMARK    1  A    between atoms: C_1  and  C_2
REMARK    2  A    between atoms: C_2  and  C_4
REMARK    3  A    between atoms: C_8  and  C_9
REMARK    4  A    between atoms: N_11  and  C_12
REMARK    5  A    between atoms: C_16  and  C_17
REMARK    6  A    between atoms: C_17  and  C_18
REMARK    7  A    between atoms: C_18  and  C_19
REMARK    8  A    between atoms: N_23  and  C_24
REMARK                            x       y       z     vdW  Elec       q    Type
REMARK                         _______ _______ _______ _____ _____    ______ ____
ROOT
ATOM      1  C   UNL     1       6.602   6.248  16.511  0.00  0.00    +0.000 A 
ATOM      2  C   UNL     1       7.089   5.545  15.408  0.00  0.00    +0.000 A 
ATOM      3  C   UNL     1       6.514   4.340  15.029  0.00  0.00    +0.000 A 
ATOM      4  C   UNL     1       5.473   3.813  15.782  0.00  0.00    +0.000 A 
ATOM      5  C   UNL     1       5.013   4.437  16.964  0.00  0.00    +0.000 A 
ATOM      6  C   UNL     1       5.579   5.686  17.280  0.00  0.00    +0.000 A 
ENDROOT
BRANCH   1   9
ATOM      7  C   UNL     1       7.909   7.754  17.996  0.00  0.00    +0.000 C 
ATOM      8  O   UNL     1       8.330   6.925  18.804  0.00  0.00    +0.000 OA
ATOM      9  N   UNL     1       7.113   7.502  16.898  0.00  0.00    +0.000 N 
ATOM     10  H   UNL     1       6.950   8.300  16.280  0.00  0.00    +0.000 HD
BRANCH   7  15
ATOM     11  C   UNL     1       9.569  10.872  19.317  0.00  0.00    +0.000 A 
ATOM     12  C   UNL     1       8.972  11.805  18.465  0.00  0.00    +0.000 A 
ATOM     13  C   UNL     1       8.063  11.365  17.512  0.00  0.00    +0.000 A 
ATOM     14  N   UNL     1       7.711  10.075  17.343  0.00  0.00    +0.000 NA
ATOM     15  C   UNL     1       8.308   9.179  18.175  0.00  0.00    +0.000 A 
ATOM     16  C   UNL     1       9.242   9.524  19.152  0.00  0.00    +0.000 A 
BRANCH  11  18
ATOM     17  C   UNL     1      11.772  11.972  19.780  0.00  0.00    +0.000 C 
ATOM     18  C   UNL     1      10.541  11.313  20.382  0.00  0.00    +0.000 C 
ATOM     19  F   UNL     1       9.977  12.208  21.247  0.00  0.00    +0.000 F 
ENDBRANCH  11  18
ENDBRANCH   7  15
ENDBRANCH   1   9
BRANCH   5  20
ATOM     20  C   UNL     1       3.945   3.711  17.895  0.00  0.00    +0.000 C 
ATOM     21  C   UNL     1       4.451   3.471  19.352  0.00  0.00    +0.000 C 
ATOM     22  O   UNL     1       3.772   2.190  19.395  0.00  0.00    +0.000 OA
ATOM     23  C   UNL     1       3.803   2.160  17.934  0.00  0.00    +0.000 C 
BRANCH  20  24
ATOM     24  C   UNL     1       2.583   4.447  17.816  0.00  0.00    +0.000 C 
BRANCH  24  25
ATOM     25  C   UNL     1       2.332   5.447  18.906  0.00  0.00    +0.000 A 
ATOM     26  N   UNL     1       2.692   6.716  18.902  0.00  0.00    +0.000 NA
ATOM     27  N   UNL     1       2.213   7.316  20.043  0.00  0.00    +0.000 NA
ATOM     28  C   UNL     1       1.579   6.403  20.739  0.00  0.00    +0.000 A 
ATOM     29  N   UNL     1       1.625   5.215  20.069  0.00  0.00    +0.000 N 
ATOM     30  C   UNL     1       1.041   3.988  20.547  0.00  0.00    +0.000 C 
ENDBRANCH  24  25
ENDBRANCH  20  24
ENDBRANCH   5  20
TORSDOF 6
ENDMDL
MODEL 4
REMARK VINA RESULT:      -9.1      1.783      2.909
REMARK  Name = 
REMARK  8 active torsions:
REMARK  status: ('A' for Active; 'I' for Inactive)
REMARK    1  A    between atoms: C_1  and  C_2
REMARK    2  A    between atoms: C_2  and  C_4
REMARK    3  A    between atoms: C_8  and  C_9
REMARK    4  A    between atoms: N_11  and  C_12
REMARK    5  A    between atoms: C_16  and  C_17
REMARK    6  A    between atoms: C_17  and  C_18
REMARK    7  A    between atoms: C_18  and  C_19
REMARK    8  A    between atoms: N_23  and  C_24
REMARK                            x       y       z     vdW  Elec       q    Type
REMARK                         _______ _______ _______ _____ _____    ______ ____
ROOT
ATOM      1  C   UNL     1       2.557   5.823  18.315  0.00  0.00    +0.000 A 
ATOM      2  C   UNL     1       1.835   4.641  18.482  0.00  0.00    +0.000 A 
ATOM      3  C   UNL     1       2.350   3.431  18.037  0.00  0.00    +0.000 A 
ATOM      4  C   UNL     1       3.574   3.408  17.382  0.00  0.00    +0.000 A 
ATOM      5  C   UNL     1       4.294   4.591  17.100  0.00  0.00    +0.000 A 
ATOM      6  C   UNL     1       3.770   5.789  17.621  0.00  0.00    +0.000 A 
ENDROOT
BRANCH   1   9
ATOM      7  C   UNL     1       2.168   8.272  18.138  0.00  0.00    +0.000 C 
ATOM      8  O   UNL     1       2.600   8.464  17.001  0.00  0.00    +0.000 OA
ATOM      9  N   UNL     1       2.106   7.064  18.802  0.00  0.00    +0.000 N 
ATOM     10  H   UNL     1       1.617   7.080  19.700  0.00  0.00    +0.000 HD
BRANCH   7  15
ATOM     11  C   UNL     1       0.373  10.340  20.731  0.00  0.00    +0.000 A 
ATOM     12  C   UNL     1       0.618  11.608  20.195  0.00  0.00    +0.000 A 
ATOM     13  C   UNL     1       1.351  11.715  19.022  0.00  0.00    +0.000 A 
ATOM     14  N   UNL     1       1.859  10.662  18.350  0.00  0.00    +0.000 NA
ATOM     15  C   UNL     1       1.617   9.437  18.890  0.00  0.00    +0.000 A 
ATOM     16  C   UNL     1       0.904   9.231  20.070  0.00  0.00    +0.000 A 
BRANCH  11  18
ATOM     17  C   UNL     1       0.300   9.371  23.040  0.00  0.00    +0.000 C 
ATOM     18  C   UNL     1      -0.443  10.181  21.990  0.00  0.00    +0.000 C 
ATOM     19  F   UNL     1      -0.759  11.387  22.549  0.00  0.00    +0.000 F 
ENDBRANCH  11  18
ENDBRANCH   7  15
ENDBRANCH   1   9
BRANCH   5  20
ATOM     20  C   UNL     1       5.601   4.541  16.191  0.00  0.00    +0.000 C 
ATOM     21  C   UNL     1       5.608   5.610  15.054  0.00  0.00    +0.000 C 
ATOM     22  O   UNL     1       6.242   4.668  14.151  0.00  0.00    +0.000 OA
ATOM     23  C   UNL     1       5.723   3.578  14.973  0.00  0.00    +0.000 C 
BRANCH  20  24
ATOM     24  C   UNL     1       6.869   4.562  17.082  0.00  0.00    +0.000 C 
BRANCH  24  25
ATOM     25  C   UNL     1       7.399   5.927  17.409  0.00  0.00    +0.000 A 
ATOM     26  N   UNL     1       7.484   6.952  16.582  0.00  0.00    +0.000 NA
ATOM     27  N   UNL     1       7.949   8.044  17.278  0.00  0.00    +0.000 NA
ATOM     28  C   UNL     1       8.155   7.670  18.518  0.00  0.00    +0.000 A 
ATOM     29  N   UNL     1       7.826   6.352  18.651  0.00  0.00    +0.000 N 
ATOM     30  C   UNL     1       7.939   5.605  19.877  0.00  0.00    +0.000 C 
ENDBRANCH  24  25
ENDBRANCH  20  24
ENDBRANCH   5  20
TORSDOF 6
ENDMDL
MODEL 5
REMARK VINA RESULT:      -9.0      0.935      1.012
REMARK  Name = 
REMARK  8 active torsions:
REMARK  status: ('A' for Active; 'I' for Inactive)
REMARK    1  A    between atoms: C_1  and  C_2
REMARK    2  A    between atoms: C_2  and  C_4
REMARK    3  A    between atoms: C_8  and  C_9
REMARK    4  A    between atoms: N_11  and  C_12
REMARK    5  A    between atoms: C_16  and  C_17
REMARK    6  A    between atoms: C_17  and  C_18
REMARK    7  A    between atoms: C_18  and  C_19
REMARK    8  A    between atoms: N_23  and  C_24
REMARK                            x       y       z     vdW  Elec       q    Type
REMARK                         _______ _______ _______ _____ _____    ______ ____
ROOT
ATOM      1  C   UNL     1       2.717   6.610  18.581  0.00  0.00    +0.000 A 
ATOM      2  C   UNL     1       2.033   5.494  18.098  0.00  0.00    +0.000 A 
ATOM      3  C   UNL     1       2.729   4.393  17.619  0.00  0.00    +0.000 A 
ATOM      4  C   UNL     1       4.117   4.423  17.584  0.00  0.00    +0.000 A 
ATOM      5  C   UNL     1       4.850   5.570  17.967  0.00  0.00    +0.000 A 
ATOM      6  C   UNL     1       4.112   6.641  18.504  0.00  0.00    +0.000 A 
ENDROOT
BRANCH   1   9
ATOM      7  C   UNL     1       1.752   8.899  18.473  0.00  0.00    +0.000 C 
ATOM      8  O   UNL     1       1.977   9.157  17.290  0.00  0.00    +0.000 OA
ATOM      9  N   UNL     1       2.058   7.726  19.132  0.00  0.00    +0.000 N 
ATOM     10  H   UNL     1       1.699   7.651  20.086  0.00  0.00    +0.000 HD
BRANCH   7  15
ATOM     11  C   UNL     1      -0.007  10.598  21.343  0.00  0.00    +0.000 A 
ATOM     12  C   UNL     1      -0.255  11.833  20.736  0.00  0.00    +0.000 A 
ATOM     13  C   UNL     1       0.163  12.039  19.429  0.00  0.00    +0.000 A 
ATOM     14  N   UNL     1       0.809  11.116  18.688  0.00  0.00    +0.000 NA
ATOM     15  C   UNL     1       1.049   9.924  19.297  0.00  0.00    +0.000 A 
ATOM     16  C   UNL     1       0.680   9.629  20.609  0.00  0.00    +0.000 A 
BRANCH  11  18
ATOM     17  C   UNL     1      -1.619  11.237  23.151  0.00  0.00    +0.000 C 
ATOM     18  C   UNL     1      -0.469  10.327  22.753  0.00  0.00    +0.000 C 
ATOM     19  F   UNL     1      -0.891   9.037  22.911  0.00  0.00    +0.000 F 
ENDBRANCH  11  18
ENDBRANCH   7  15
ENDBRANCH   1   9
BRANCH   5  20
ATOM     20  C   UNL     1       6.426   5.631  17.741  0.00  0.00    +0.000 C 
ATOM     21  C   UNL     1       7.240   5.748  19.067  0.00  0.00    +0.000 C 
ATOM     22  O   UNL     1       8.190   6.636  18.424  0.00  0.00    +0.000 OA
ATOM     23  C   UNL     1       7.165   6.968  17.437  0.00  0.00    +0.000 C 
BRANCH  20  24
ATOM     24  C   UNL     1       6.877   4.463  16.827  0.00  0.00    +0.000 C 
BRANCH  24  25
ATOM     25  C   UNL     1       7.117   4.829  15.392  0.00  0.00    +0.000 A 
ATOM     26  N   UNL     1       8.112   5.559  14.927  0.00  0.00    +0.000 NA
ATOM     27  N   UNL     1       8.025   5.603  13.555  0.00  0.00    +0.000 NA
ATOM     28  C   UNL     1       6.969   4.911  13.199  0.00  0.00    +0.000 A 
ATOM     29  N   UNL     1       6.366   4.406  14.314  0.00  0.00    +0.000 N 
ATOM     30  C   UNL     1       5.169   3.605  14.300  0.00  0.00    +0.000 C 
ENDBRANCH  24  25
ENDBRANCH  20  24
ENDBRANCH   5  20
TORSDOF 6
ENDMDL
MODEL 6
REMARK VINA RESULT:      -8.9      2.322      3.574
REMARK  Name = 
REMARK  8 active torsions:
REMARK  status: ('A' for Active; 'I' for Inactive)
REMARK    1  A    between atoms: C_1  and  C_2
REMARK    2  A    between atoms: C_2  and  C_4
REMARK    3  A    between atoms: C_8  and  C_9
REMARK    4  A    between atoms: N_11  and  C_12
REMARK    5  A    between atoms: C_16  and  C_17
REMARK    6  A    between atoms: C_17  and  C_18
REMARK    7  A    between atoms: C_18  and  C_19
REMARK    8  A    between atoms: N_23  and  C_24
REMARK                            x       y       z     vdW  Elec       q    Type
REMARK                         _______ _______ _______ _____ _____    ______ ____
ROOT
ATOM      1  C   UNL     1       2.568   5.575  18.152  0.00  0.00    +0.000 A 
ATOM      2  C   UNL     1       1.797   4.415  18.078  0.00  0.00    +0.000 A 
ATOM      3  C   UNL     1       2.303   3.267  17.483  0.00  0.00    +0.000 A 
ATOM      4  C   UNL     1       3.572   3.292  16.921  0.00  0.00    +0.000 A 
ATOM      5  C   UNL     1       4.351   4.471  16.882  0.00  0.00    +0.000 A 
ATOM      6  C   UNL     1       3.829   5.595  17.549  0.00  0.00    +0.000 A 
ENDROOT
BRANCH   1   9
ATOM      7  C   UNL     1       1.839   6.875  20.141  0.00  0.00    +0.000 C 
ATOM      8  O   UNL     1       1.956   6.005  21.005  0.00  0.00    +0.000 OA
ATOM      9  N   UNL     1       2.122   6.744  18.797  0.00  0.00    +0.000 N 
ATOM     10  H   UNL     1       2.066   7.605  18.250  0.00  0.00    +0.000 HD
BRANCH   7  15
ATOM     11  C   UNL     1       0.794  10.497  20.040  0.00  0.00    +0.000 A 
ATOM     12  C   UNL     1       0.563  10.688  21.405  0.00  0.00    +0.000 A 
ATOM     13  C   UNL     1       0.763   9.628  22.278  0.00  0.00    +0.000 A 
ATOM     14  N   UNL     1       1.167   8.400  21.896  0.00  0.00    +0.000 NA
ATOM     15  C   UNL     1       1.379   8.230  20.562  0.00  0.00    +0.000 A 
ATOM     16  C   UNL     1       1.192   9.230  19.609  0.00  0.00    +0.000 A 
BRANCH  11  18
ATOM     17  C   UNL     1       1.939  12.068  18.458  0.00  0.00    +0.000 C 
ATOM     18  C   UNL     1       0.613  11.632  19.062  0.00  0.00    +0.000 C 
ATOM     19  F   UNL     1      -0.216  11.289  18.031  0.00  0.00    +0.000 F 
ENDBRANCH  11  18
ENDBRANCH   7  15
ENDBRANCH   1   9
BRANCH   5  20
ATOM     20  C   UNL     1       5.721   4.506  16.070  0.00  0.00    +0.000 C 
ATOM     21  C   UNL     1       5.766   5.615  14.973  0.00  0.00    +0.000 C 
ATOM     22  O   UNL     1       6.502   4.733  14.088  0.00  0.00    +0.000 OA
ATOM     23  C   UNL     1       5.970   3.593  14.833  0.00  0.00    +0.000 C 
BRANCH  20  24
ATOM     24  C   UNL     1       6.920   4.543  17.052  0.00  0.00    +0.000 C 
BRANCH  24  25
ATOM     25  C   UNL     1       7.418   5.914  17.402  0.00  0.00    +0.000 A 
ATOM     26  N   UNL     1       7.486   6.952  16.591  0.00  0.00    +0.000 NA
ATOM     27  N   UNL     1       7.923   8.043  17.305  0.00  0.00    +0.000 NA
ATOM     28  C   UNL     1       8.130   7.656  18.540  0.00  0.00    +0.000 A 
ATOM     29  N   UNL     1       7.828   6.330  18.652  0.00  0.00    +0.000 N 
ATOM     30  C   UNL     1       7.951   5.568  19.868  0.00  0.00    +0.000 C 
ENDBRANCH  24  25
ENDBRANCH  20  24
ENDBRANCH   5  20
TORSDOF 6
ENDMDL
MODEL 7
REMARK VINA RESULT:      -8.8      2.763      4.102
REMARK  Name = 
REMARK  8 active torsions:
REMARK  status: ('A' for Active; 'I' for Inactive)
REMARK    1  A    between atoms: C_1  and  C_2
REMARK    2  A    between atoms: C_2  and  C_4
REMARK    3  A    between atoms: C_8  and  C_9
REMARK    4  A    between atoms: N_11  and  C_12
REMARK    5  A    between atoms: C_16  and  C_17
REMARK    6  A    between atoms: C_17  and  C_18
REMARK    7  A    between atoms: C_18  and  C_19
REMARK    8  A    between atoms: N_23  and  C_24
REMARK                            x       y       z     vdW  Elec       q    Type
REMARK                         _______ _______ _______ _____ _____    ______ ____
ROOT
ATOM      1  C   UNL     1       2.191   7.715  19.157  0.00  0.00    +0.000 A 
ATOM      2  C   UNL     1       2.861   8.307  18.087  0.00  0.00    +0.000 A 
ATOM      3  C   UNL     1       3.558   7.528  17.173  0.00  0.00    +0.000 A 
ATOM      4  C   UNL     1       3.620   6.153  17.353  0.00  0.00    +0.000 A 
ATOM      5  C   UNL     1       3.043   5.519  18.478  0.00  0.00    +0.000 A 
ATOM      6  C   UNL     1       2.295   6.334  19.347  0.00  0.00    +0.000 A 
ENDROOT
BRANCH   1   9
ATOM      7  C   UNL     1       0.546   9.477  19.768  0.00  0.00    +0.000 C 
ATOM      8  O   UNL     1       0.268   9.892  18.643  0.00  0.00    +0.000 OA
ATOM      9  N   UNL     1       1.422   8.456  20.075  0.00  0.00    +0.000 N 
ATOM     10  H   UNL     1       1.447   8.178  21.059  0.00  0.00    +0.000 HD
BRANCH   7  15
ATOM     11  C   UNL     1      -1.475  11.843  21.898  0.00  0.00    +0.000 A 
ATOM     12  C   UNL     1      -1.344  11.186  23.124  0.00  0.00    +0.000 A 
ATOM     13  C   UNL     1      -0.605  10.013  23.187  0.00  0.00    +0.000 A 
ATOM     14  N   UNL     1       0.005   9.447  22.126  0.00  0.00    +0.000 NA
ATOM     15  C   UNL     1      -0.140  10.096  20.939  0.00  0.00    +0.000 A 
ATOM     16  C   UNL     1      -0.873  11.270  20.775  0.00  0.00    +0.000 A 
BRANCH  11  18
ATOM     17  C   UNL     1      -3.663  12.985  22.328  0.00  0.00    +0.000 C 
ATOM     18  C   UNL     1      -2.248  13.135  21.794  0.00  0.00    +0.000 C 
ATOM     19  F   UNL     1      -1.648  14.145  22.493  0.00  0.00    +0.000 F 
ENDBRANCH  11  18
ENDBRANCH   7  15
ENDBRANCH   1   9
BRANCH   5  20
ATOM     20  C   UNL     1       3.291   3.969  18.743  0.00  0.00    +0.000 C 
ATOM     21  C   UNL     1       2.102   3.063  18.296  0.00  0.00    +0.000 C 
ATOM     22  O   UNL     1       2.307   2.198  19.442  0.00  0.00    +0.000 OA
ATOM     23  C   UNL     1       2.979   3.307  20.118  0.00  0.00    +0.000 C 
BRANCH  20  24
ATOM     24  C   UNL     1       4.662   3.542  18.158  0.00  0.00    +0.000 C 
BRANCH  24  25
ATOM     25  C   UNL     1       5.830   4.379  18.589  0.00  0.00    +0.000 A 
ATOM     26  N   UNL     1       6.085   4.794  19.815  0.00  0.00    +0.000 NA
ATOM     27  N   UNL     1       7.285   5.468  19.813  0.00  0.00    +0.000 NA
ATOM     28  C   UNL     1       7.741   5.468  18.583  0.00  0.00    +0.000 A 
ATOM     29  N   UNL     1       6.866   4.799  17.779  0.00  0.00    +0.000 N 
ATOM     30  C   UNL     1       7.042   4.614  16.361  0.00  0.00    +0.000 C 
ENDBRANCH  24  25
ENDBRANCH  20  24
ENDBRANCH   5  20
TORSDOF 6
ENDMDL
MODEL 8
REMARK VINA RESULT:      -8.8      1.461      2.090
REMARK  Name = 
REMARK  8 active torsions:
REMARK  status: ('A' for Active; 'I' for Inactive)
REMARK    1  A    between atoms: C_1  and  C_2
REMARK    2  A    between atoms: C_2  and  C_4
REMARK    3  A    between atoms: C_8  and  C_9
REMARK    4  A    between atoms: N_11  and  C_12
REMARK    5  A    between atoms: C_16  and  C_17
REMARK    6  A    between atoms: C_17  and  C_18
REMARK    7  A    between atoms: C_18  and  C_19
REMARK    8  A    between atoms: N_23  and  C_24
REMARK                            x       y       z     vdW  Elec       q    Type
REMARK                         _______ _______ _______ _____ _____    ______ ____
ROOT
ATOM      1  C   UNL     1       2.570   6.095  18.335  0.00  0.00    +0.000 A 
ATOM      2  C   UNL     1       1.761   5.014  17.984  0.00  0.00    +0.000 A 
ATOM      3  C   UNL     1       2.314   3.870  17.425  0.00  0.00    +0.000 A 
ATOM      4  C   UNL     1       3.679   3.823  17.175  0.00  0.00    +0.000 A 
ATOM      5  C   UNL     1       4.523   4.930  17.419  0.00  0.00    +0.000 A 
ATOM      6  C   UNL     1       3.936   6.047  18.042  0.00  0.00    +0.000 A 
ENDROOT
BRANCH   1   9
ATOM      7  C   UNL     1       1.897   8.488  18.370  0.00  0.00    +0.000 C 
ATOM      8  O   UNL     1       2.132   8.781  17.197  0.00  0.00    +0.000 OA
ATOM      9  N   UNL     1       2.065   7.251  18.959  0.00  0.00    +0.000 N 
ATOM     10  H   UNL     1       1.716   7.169  19.916  0.00  0.00    +0.000 HD
BRANCH   7  15
ATOM     11  C   UNL     1       0.652  11.810  19.648  0.00  0.00    +0.000 A 
ATOM     12  C   UNL     1       0.351  11.432  20.960  0.00  0.00    +0.000 A 
ATOM     13  C   UNL     1       0.572  10.118  21.351  0.00  0.00    +0.000 A 
ATOM     14  N   UNL     1       1.062   9.161  20.539  0.00  0.00    +0.000 NA
ATOM     15  C   UNL     1       1.342   9.545  19.264  0.00  0.00    +0.000 A 
ATOM     16  C   UNL     1       1.141  10.835  18.776  0.00  0.00    +0.000 A 
BRANCH  11  18
ATOM     17  C   UNL     1       1.770  13.979  19.079  0.00  0.00    +0.000 C 
ATOM     18  C   UNL     1       0.450  13.234  19.192  0.00  0.00    +0.000 C 
ATOM     19  F   UNL     1      -0.164  13.296  17.972  0.00  0.00    +0.000 F 
ENDBRANCH  11  18
ENDBRANCH   7  15
ENDBRANCH   1   9
BRANCH   5  20
ATOM     20  C   UNL     1       6.045   4.901  16.951  0.00  0.00    +0.000 C 
ATOM     21  C   UNL     1       7.047   4.607  18.111  0.00  0.00    +0.000 C 
ATOM     22  O   UNL     1       8.004   5.536  17.542  0.00  0.00    +0.000 OA
ATOM     23  C   UNL     1       6.902   6.198  16.846  0.00  0.00    +0.000 C 
BRANCH  20  24
ATOM     24  C   UNL     1       6.207   3.962  15.728  0.00  0.00    +0.000 C 
BRANCH  24  25
ATOM     25  C   UNL     1       6.869   4.580  14.531  0.00  0.00    +0.000 A 
ATOM     26  N   UNL     1       7.832   5.482  14.547  0.00  0.00    +0.000 NA
ATOM     27  N   UNL     1       8.221   5.736  13.253  0.00  0.00    +0.000 NA
ATOM     28  C   UNL     1       7.482   4.998  12.460  0.00  0.00    +0.000 A 
ATOM     29  N   UNL     1       6.619   4.256  13.213  0.00  0.00    +0.000 N 
ATOM     30  C   UNL     1       5.649   3.340  12.671  0.00  0.00    +0.000 C 
ENDBRANCH  24  25
ENDBRANCH  20  24
ENDBRANCH   5  20
TORSDOF 6
ENDMDL
MODEL 9
REMARK VINA RESULT:      -8.8      2.012      2.487
REMARK  Name = 
REMARK  8 active torsions:
REMARK  status: ('A' for Active; 'I' for Inactive)
REMARK    1  A    between atoms: C_1  and  C_2
REMARK    2  A    between atoms: C_2  and  C_4
REMARK    3  A    between atoms: C_8  and  C_9
REMARK    4  A    between atoms: N_11  and  C_12
REMARK    5  A    between atoms: C_16  and  C_17
REMARK    6  A    between atoms: C_17  and  C_18
REMARK    7  A    between atoms: C_18  and  C_19
REMARK    8  A    between atoms: N_23  and  C_24
REMARK                            x       y       z     vdW  Elec       q    Type
REMARK                         _______ _______ _______ _____ _____    ______ ____
ROOT
ATOM      1  C   UNL     1       2.747   6.267  18.361  0.00  0.00    +0.000 A 
ATOM      2  C   UNL     1       2.256   4.970  18.205  0.00  0.00    +0.000 A 
ATOM      3  C   UNL     1       3.127   3.894  18.097  0.00  0.00    +0.000 A 
ATOM      4  C   UNL     1       4.497   4.120  18.103  0.00  0.00    +0.000 A 
ATOM      5  C   UNL     1       5.040   5.424  18.157  0.00  0.00    +0.000 A 
ATOM      6  C   UNL     1       4.127   6.482  18.327  0.00  0.00    +0.000 A 
ENDROOT
BRANCH   1   9
ATOM      7  C   UNL     1       1.994   8.583  17.861  0.00  0.00    +0.000 C 
ATOM      8  O   UNL     1       2.803   8.872  16.978  0.00  0.00    +0.000 OA
ATOM      9  N   UNL     1       1.905   7.382  18.534  0.00  0.00    +0.000 N 
ATOM     10  H   UNL     1       1.102   7.287  19.160  0.00  0.00    +0.000 HD
BRANCH   7  15
ATOM     11  C   UNL     1      -1.251  10.490  18.092  0.00  0.00    +0.000 A 
ATOM     12  C   UNL     1      -0.836  11.507  18.957  0.00  0.00    +0.000 A 
ATOM     13  C   UNL     1       0.475  11.512  19.413  0.00  0.00    +0.000 A 
ATOM     14  N   UNL     1       1.395  10.586  19.078  0.00  0.00    +0.000 NA
ATOM     15  C   UNL     1       0.972   9.600  18.242  0.00  0.00    +0.000 A 
ATOM     16  C   UNL     1      -0.327   9.503  17.744  0.00  0.00    +0.000 A 
BRANCH  11  18
ATOM     17  C   UNL     1      -2.689  10.658  16.047  0.00  0.00    +0.000 C 
ATOM     18  C   UNL     1      -2.660  10.464  17.554  0.00  0.00    +0.000 C 
ATOM     19  F   UNL     1      -3.288   9.282  17.829  0.00  0.00    +0.000 F 
ENDBRANCH  11  18
ENDBRANCH   7  15
ENDBRANCH   1   9
BRANCH   5  20
ATOM     20  C   UNL     1       6.606   5.652  17.978  0.00  0.00    +0.000 C 
ATOM     21  C   UNL     1       7.360   5.873  19.327  0.00  0.00    +0.000 C 
ATOM     22  O   UNL     1       8.229   6.851  18.700  0.00  0.00    +0.000 OA
ATOM     23  C   UNL     1       7.206   7.058  17.677  0.00  0.00    +0.000 C 
BRANCH  20  24
ATOM     24  C   UNL     1       7.210   4.529  17.097  0.00  0.00    +0.000 C 
BRANCH  24  25
ATOM     25  C   UNL     1       7.136   4.768  15.617  0.00  0.00    +0.000 A 
ATOM     26  N   UNL     1       7.894   5.590  14.918  0.00  0.00    +0.000 NA
ATOM     27  N   UNL     1       7.570   5.467  13.587  0.00  0.00    +0.000 NA
ATOM     28  C   UNL     1       6.607   4.582  13.490  0.00  0.00    +0.000 A 
ATOM     29  N   UNL     1       6.299   4.115  14.735  0.00  0.00    +0.000 N 
ATOM     30  C   UNL     1       5.276   3.138  15.007  0.00  0.00    +0.000 C 
ENDBRANCH  24  25
ENDBRANCH  20  24
ENDBRANCH   5  20
TORSDOF 6
ENDMDL
