MODEL 1
REMARK VINA RESULT:      -8.7      0.000      0.000
REMARK  Name = 
REMARK  5 active torsions:
REMARK  status: ('A' for Active; 'I' for Inactive)
REMARK    1  A    between atoms: C_2  and  C_19
REMARK    2  A    between atoms: N_3  and  C_4
REMARK    3  A    between atoms: C_8  and  O_9
REMARK    4  A    between atoms: O_9  and  C_10
REMARK    5  A    between atoms: C_10  and  C_11
REMARK                            x       y       z     vdW  Elec       q    Type
REMARK                         _______ _______ _______ _____ _____    ______ ____
ROOT
ATOM      1  C   UNL     1       1.975   5.163  20.505  0.00  0.00    +0.000 A 
ATOM      2  C   UNL     1       1.131   4.059  20.396  0.00  0.00    +0.000 A 
ATOM      3  C   UNL     1       1.632   2.822  19.983  0.00  0.00    +0.000 A 
ATOM      4  C   UNL     1       2.978   2.688  19.648  0.00  0.00    +0.000 A 
ATOM      5  C   UNL     1       3.821   3.797  19.699  0.00  0.00    +0.000 A 
ATOM      6  C   UNL     1       3.323   5.024  20.155  0.00  0.00    +0.000 A 
ENDROOT
BRANCH   1   9
ATOM      7  O   UNL     1       2.134   7.774  19.134  0.00  0.00    +0.000 OA
ATOM      8  C   UNL     1       1.660   7.629  20.256  0.00  0.00    +0.000 C 
ATOM      9  N   UNL     1       1.551   6.435  20.940  0.00  0.00    +0.000 N 
ATOM     10  H   UNL     1       1.059   6.484  21.830  0.00  0.00    +0.000 HD
BRANCH   8  11
ATOM     11  C   UNL     1       1.110   8.773  20.961  0.00  0.00    +0.000 A 
ATOM     12  C   UNL     1       1.330   9.104  22.314  0.00  0.00    +0.000 A 
ATOM     13  N   UNL     1       0.718  10.226  22.689  0.00  0.00    +0.000 NA
ATOM     14  N   UNL     1       0.088  10.652  21.571  0.00  0.00    +0.000 N 
ATOM     15  C   UNL     1      -0.667  11.809  21.415  0.00  0.00    +0.000 A 
ATOM     16  C   UNL     1      -1.235  12.093  20.236  0.00  0.00    +0.000 A 
ATOM     17  C   UNL     1      -0.999  11.089  19.162  0.00  0.00    +0.000 A 
ATOM     18  N   UNL     1      -0.286  10.004  19.261  0.00  0.00    +0.000 NA
ATOM     19  C   UNL     1       0.282   9.777  20.492  0.00  0.00    +0.000 A 
ENDBRANCH   8  11
ENDBRANCH   1   9
BRANCH   5  20
ATOM     20  O   UNL     1       5.109   3.582  19.279  0.00  0.00    +0.000 OA
BRANCH  20  21
ATOM     21  C   UNL     1       5.752   4.739  18.739  0.00  0.00    +0.000 C 
BRANCH  21  22
ATOM     22  C   UNL     1       6.014   4.597  17.259  0.00  0.00    +0.000 A 
ATOM     23  C   UNL     1       4.952   4.225  16.414  0.00  0.00    +0.000 A 
ATOM     24  C   UNL     1       5.141   4.143  15.035  0.00  0.00    +0.000 A 
ATOM     25  C   UNL     1       6.383   4.441  14.498  0.00  0.00    +0.000 A 
ATOM     26  F   UNL     1       6.559   4.372  13.172  0.00  0.00    +0.000 F 
ATOM     27  C   UNL     1       7.446   4.819  15.312  0.00  0.00    +0.000 A 
ATOM     28  C   UNL     1       7.261   4.901  16.693  0.00  0.00    +0.000 A 
ENDBRANCH  21  22
ENDBRANCH  20  21
ENDBRANCH   5  20
TORSDOF 5
ENDMDL
MODEL 2
REMARK VINA RESULT:      -8.6      1.874      2.301
REMARK  Name = 
REMARK  5 active torsions:
REMARK  status: ('A' for Active; 'I' for Inactive)
REMARK    1  A    between atoms: C_2  and  C_19
REMARK    2  A    between atoms: N_3  and  C_4
REMARK    3  A    between atoms: C_8  and  O_9
REMARK    4  A    between atoms: O_9  and  C_10
REMARK    5  A    between atoms: C_10  and  C_11
REMARK                            x       y       z     vdW  Elec       q    Type
REMARK                         _______ _______ _______ _____ _____    ______ ____
ROOT
ATOM      1  C   UNL     1       2.291   5.524  20.220  0.00  0.00    +0.000 A 
ATOM      2  C   UNL     1       2.337   4.275  20.837  0.00  0.00    +0.000 A 
ATOM      3  C   UNL     1       2.932   3.188  20.194  0.00  0.00    +0.000 A 
ATOM      4  C   UNL     1       3.461   3.336  18.913  0.00  0.00    +0.000 A 
ATOM      5  C   UNL     1       3.373   4.564  18.262  0.00  0.00    +0.000 A 
ATOM      6  C   UNL     1       2.814   5.662  18.929  0.00  0.00    +0.000 A 
ENDROOT
BRANCH   1   9
ATOM      7  O   UNL     1       2.040   8.266  19.153  0.00  0.00    +0.000 OA
ATOM      8  C   UNL     1       1.652   7.938  20.269  0.00  0.00    +0.000 C 
ATOM      9  N   UNL     1       1.734   6.673  20.815  0.00  0.00    +0.000 N 
ATOM     10  H   UNL     1       1.291   6.560  21.725  0.00  0.00    +0.000 HD
BRANCH   8  11
ATOM     11  C   UNL     1       1.002   8.917  21.123  0.00  0.00    +0.000 A 
ATOM     12  C   UNL     1       1.186   9.064  22.514  0.00  0.00    +0.000 A 
ATOM     13  N   UNL     1       0.477  10.063  23.037  0.00  0.00    +0.000 NA
ATOM     14  N   UNL     1      -0.183  10.592  21.982  0.00  0.00    +0.000 N 
ATOM     15  C   UNL     1      -1.036  11.689  21.983  0.00  0.00    +0.000 A 
ATOM     16  C   UNL     1      -1.621  12.092  20.848  0.00  0.00    +0.000 A 
ATOM     17  C   UNL     1      -1.295  11.280  19.644  0.00  0.00    +0.000 A 
ATOM     18  N   UNL     1      -0.490  10.258  19.597  0.00  0.00    +0.000 NA
ATOM     19  C   UNL     1       0.091   9.904  20.791  0.00  0.00    +0.000 A 
ENDBRANCH   8  11
ENDBRANCH   1   9
BRANCH   5  20
ATOM     20  O   UNL     1       3.853   4.591  16.977  0.00  0.00    +0.000 OA
BRANCH  20  21
ATOM     21  C   UNL     1       5.199   4.127  16.843  0.00  0.00    +0.000 C 
BRANCH  21  22
ATOM     22  C   UNL     1       6.196   5.139  17.355  0.00  0.00    +0.000 A 
ATOM     23  C   UNL     1       6.219   6.421  16.777  0.00  0.00    +0.000 A 
ATOM     24  C   UNL     1       7.085   7.401  17.265  0.00  0.00    +0.000 A 
ATOM     25  C   UNL     1       7.916   7.105  18.334  0.00  0.00    +0.000 A 
ATOM     26  F   UNL     1       8.738   8.050  18.808  0.00  0.00    +0.000 F 
ATOM     27  C   UNL     1       7.905   5.847  18.926  0.00  0.00    +0.000 A 
ATOM     28  C   UNL     1       7.041   4.863  18.440  0.00  0.00    +0.000 A 
ENDBRANCH  21  22
ENDBRANCH  20  21
ENDBRANCH   5  20
TORSDOF 5
ENDMDL
MODEL 3
REMARK VINA RESULT:      -8.5      2.873      4.752
REMARK  Name = 
REMARK  5 active torsions:
REMARK  status: ('A' for Active; 'I' for Inactive)
REMARK    1  A    between atoms: C_2  and  C_19
REMARK    2  A    between atoms: N_3  and  C_4
REMARK    3  A    between atoms: C_8  and  O_9
REMARK    4  A    between atoms: O_9  and  C_10
REMARK    5  A    between atoms: C_10  and  C_11
REMARK                            x       y       z     vdW  Elec       q    Type
REMARK                         _______ _______ _______ _____ _____    ______ ____
ROOT
ATOM      1  C   UNL     1       3.212   6.930  18.115  0.00  0.00    +0.000 A 
ATOM      2  C   UNL     1       4.537   7.266  17.841  0.00  0.00    +0.000 A 
ATOM      3  C   UNL     1       5.377   6.361  17.189  0.00  0.00    +0.000 A 
ATOM      4  C   UNL     1       4.905   5.100  16.832  0.00  0.00    +0.000 A 
ATOM      5  C   UNL     1       3.599   4.730  17.149  0.00  0.00    +0.000 A 
ATOM      6  C   UNL     1       2.748   5.657  17.764  0.00  0.00    +0.000 A 
ENDROOT
BRANCH   1   9
ATOM      7  O   UNL     1       2.123   9.513  17.188  0.00  0.00    +0.000 OA
ATOM      8  C   UNL     1       1.829   9.005  18.264  0.00  0.00    +0.000 C 
ATOM      9  N   UNL     1       2.297   7.798  18.744  0.00  0.00    +0.000 N 
ATOM     10  H   UNL     1       1.888   7.489  19.623  0.00  0.00    +0.000 HD
BRANCH   8  11
ATOM     11  C   UNL     1       0.874   9.665  19.136  0.00  0.00    +0.000 A 
ATOM     12  C   UNL     1      -0.155  10.542  18.735  0.00  0.00    +0.000 A 
ATOM     13  N   UNL     1      -0.899  10.981  19.749  0.00  0.00    +0.000 NA
ATOM     14  N   UNL     1      -0.364  10.386  20.838  0.00  0.00    +0.000 N 
ATOM     15  C   UNL     1      -0.798  10.485  22.154  0.00  0.00    +0.000 A 
ATOM     16  C   UNL     1      -0.155   9.832  23.131  0.00  0.00    +0.000 A 
ATOM     17  C   UNL     1       1.025   9.038  22.690  0.00  0.00    +0.000 A 
ATOM     18  N   UNL     1       1.454   8.906  21.468  0.00  0.00    +0.000 NA
ATOM     19  C   UNL     1       0.742   9.588  20.511  0.00  0.00    +0.000 A 
ENDBRANCH   8  11
ENDBRANCH   1   9
BRANCH   5  20
ATOM     20  O   UNL     1       3.251   3.443  16.825  0.00  0.00    +0.000 OA
BRANCH  20  21
ATOM     21  C   UNL     1       3.685   2.461  17.768  0.00  0.00    +0.000 C 
BRANCH  21  22
ATOM     22  C   UNL     1       2.926   2.557  19.069  0.00  0.00    +0.000 A 
ATOM     23  C   UNL     1       1.519   2.522  19.039  0.00  0.00    +0.000 A 
ATOM     24  C   UNL     1       0.786   2.548  20.226  0.00  0.00    +0.000 A 
ATOM     25  C   UNL     1       1.454   2.597  21.439  0.00  0.00    +0.000 A 
ATOM     26  F   UNL     1       0.747   2.611  22.577  0.00  0.00    +0.000 F 
ATOM     27  C   UNL     1       2.843   2.625  21.494  0.00  0.00    +0.000 A 
ATOM     28  C   UNL     1       3.581   2.601  20.309  0.00  0.00    +0.000 A 
ENDBRANCH  21  22
ENDBRANCH  20  21
ENDBRANCH   5  20
TORSDOF 5
ENDMDL
MODEL 4
REMARK VINA RESULT:      -8.5      0.593      1.103
REMARK  Name = 
REMARK  5 active torsions:
REMARK  status: ('A' for Active; 'I' for Inactive)
REMARK    1  A    between atoms: C_2  and  C_19
REMARK    2  A    between atoms: N_3  and  C_4
REMARK    3  A    between atoms: C_8  and  O_9
REMARK    4  A    between atoms: O_9  and  C_10
REMARK    5  A    between atoms: C_10  and  C_11
REMARK                            x       y       z     vdW  Elec       q    Type
REMARK                         _______ _______ _______ _____ _____    ______ ____
ROOT
ATOM      1  C   UNL     1       1.962   5.249  20.602  0.00  0.00    +0.000 A 
ATOM      2  C   UNL     1       1.086   4.166  20.538  0.00  0.00    +0.000 A 
ATOM      3  C   UNL     1       1.547   2.903  20.159  0.00  0.00    +0.000 A 
ATOM      4  C   UNL     1       2.884   2.721  19.814  0.00  0.00    +0.000 A 
ATOM      5  C   UNL     1       3.759   3.806  19.820  0.00  0.00    +0.000 A 
ATOM      6  C   UNL     1       3.301   5.060  20.242  0.00  0.00    +0.000 A 
ENDROOT
BRANCH   1   9
ATOM      7  O   UNL     1       2.023   7.782  19.087  0.00  0.00    +0.000 OA
ATOM      8  C   UNL     1       1.638   7.700  20.248  0.00  0.00    +0.000 C 
ATOM      9  N   UNL     1       1.578   6.545  21.001  0.00  0.00    +0.000 N 
ATOM     10  H   UNL     1       1.159   6.645  21.923  0.00  0.00    +0.000 HD
BRANCH   8  11
ATOM     11  C   UNL     1       1.151   8.885  20.932  0.00  0.00    +0.000 A 
ATOM     12  C   UNL     1       0.895   9.004  22.314  0.00  0.00    +0.000 A 
ATOM     13  N   UNL     1       0.476  10.218  22.670  0.00  0.00    +0.000 NA
ATOM     14  N   UNL     1       0.458  10.917  21.513  0.00  0.00    +0.000 N 
ATOM     15  C   UNL     1       0.128  12.256  21.340  0.00  0.00    +0.000 A 
ATOM     16  C   UNL     1       0.155  12.808  20.120  0.00  0.00    +0.000 A 
ATOM     17  C   UNL     1       0.543  11.887  19.017  0.00  0.00    +0.000 A 
ATOM     18  N   UNL     1       0.875  10.634  19.138  0.00  0.00    +0.000 NA
ATOM     19  C   UNL     1       0.842  10.131  20.417  0.00  0.00    +0.000 A 
ENDBRANCH   8  11
ENDBRANCH   1   9
BRANCH   5  20
ATOM     20  O   UNL     1       5.035   3.542  19.393  0.00  0.00    +0.000 OA
BRANCH  20  21
ATOM     21  C   UNL     1       5.733   4.681  18.885  0.00  0.00    +0.000 C 
BRANCH  21  22
ATOM     22  C   UNL     1       5.924   4.601  17.389  0.00  0.00    +0.000 A 
ATOM     23  C   UNL     1       7.174   4.951  16.844  0.00  0.00    +0.000 A 
ATOM     24  C   UNL     1       7.406   4.831  15.474  0.00  0.00    +0.000 A 
ATOM     25  C   UNL     1       6.399   4.353  14.651  0.00  0.00    +0.000 A 
ATOM     26  F   UNL     1       6.629   4.229  13.337  0.00  0.00    +0.000 F 
ATOM     27  C   UNL     1       5.159   3.994  15.167  0.00  0.00    +0.000 A 
ATOM     28  C   UNL     1       4.921   4.113  16.538  0.00  0.00    +0.000 A 
ENDBRANCH  21  22
ENDBRANCH  20  21
ENDBRANCH   5  20
TORSDOF 5
ENDMDL
MODEL 5
REMARK VINA RESULT:      -8.5      2.184      2.890
REMARK  Name = 
REMARK  5 active torsions:
REMARK  status: ('A' for Active; 'I' for Inactive)
REMARK    1  A    between atoms: C_2  and  C_19
REMARK    2  A    between atoms: N_3  and  C_4
REMARK    3  A    between atoms: C_8  and  O_9
REMARK    4  A    between atoms: O_9  and  C_10
REMARK    5  A    between atoms: C_10  and  C_11
REMARK                            x       y       z     vdW  Elec       q    Type
REMARK                         _______ _______ _______ _____ _____    ______ ____
ROOT
ATOM      1  C   UNL     1       2.429   6.171  19.580  0.00  0.00    +0.000 A 
ATOM      2  C   UNL     1       2.346   5.072  20.435  0.00  0.00    +0.000 A 
ATOM      3  C   UNL     1       2.923   3.851  20.078  0.00  0.00    +0.000 A 
ATOM      4  C   UNL     1       3.564   3.713  18.849  0.00  0.00    +0.000 A 
ATOM      5  C   UNL     1       3.607   4.786  17.962  0.00  0.00    +0.000 A 
ATOM      6  C   UNL     1       3.065   6.020  18.342  0.00  0.00    +0.000 A 
ENDROOT
BRANCH   1   9
ATOM      7  O   UNL     1       1.901   8.464  17.797  0.00  0.00    +0.000 OA
ATOM      8  C   UNL     1       1.681   8.483  19.003  0.00  0.00    +0.000 C 
ATOM      9  N   UNL     1       1.897   7.440  19.881  0.00  0.00    +0.000 N 
ATOM     10  H   UNL     1       1.584   7.601  20.837  0.00  0.00    +0.000 HD
BRANCH   8  11
ATOM     11  C   UNL     1       1.099   9.666  19.612  0.00  0.00    +0.000 A 
ATOM     12  C   UNL     1       1.048  10.956  19.045  0.00  0.00    +0.000 A 
ATOM     13  N   UNL     1       0.432  11.849  19.819  0.00  0.00    +0.000 NA
ATOM     14  N   UNL     1       0.063  11.144  20.912  0.00  0.00    +0.000 N 
ATOM     15  C   UNL     1      -0.650  11.604  22.013  0.00  0.00    +0.000 A 
ATOM     16  C   UNL     1      -0.938  10.777  23.026  0.00  0.00    +0.000 A 
ATOM     17  C   UNL     1      -0.432   9.385  22.871  0.00  0.00    +0.000 A 
ATOM     18  N   UNL     1       0.223   8.911  21.851  0.00  0.00    +0.000 NA
ATOM     19  C   UNL     1       0.474   9.805  20.838  0.00  0.00    +0.000 A 
ENDBRANCH   8  11
ENDBRANCH   1   9
BRANCH   5  20
ATOM     20  O   UNL     1       4.193   4.531  16.748  0.00  0.00    +0.000 OA
BRANCH  20  21
ATOM     21  C   UNL     1       5.548   4.083  16.832  0.00  0.00    +0.000 C 
BRANCH  21  22
ATOM     22  C   UNL     1       6.462   5.157  17.369  0.00  0.00    +0.000 A 
ATOM     23  C   UNL     1       6.517   6.397  16.705  0.00  0.00    +0.000 A 
ATOM     24  C   UNL     1       7.303   7.434  17.208  0.00  0.00    +0.000 A 
ATOM     25  C   UNL     1       8.025   7.238  18.375  0.00  0.00    +0.000 A 
ATOM     26  F   UNL     1       8.771   8.239  18.861  0.00  0.00    +0.000 F 
ATOM     27  C   UNL     1       7.981   6.024  19.052  0.00  0.00    +0.000 A 
ATOM     28  C   UNL     1       7.196   4.983  18.552  0.00  0.00    +0.000 A 
ENDBRANCH  21  22
ENDBRANCH  20  21
ENDBRANCH   5  20
TORSDOF 5
ENDMDL
MODEL 6
REMARK VINA RESULT:      -8.4      1.777      2.231
REMARK  Name = 
REMARK  5 active torsions:
REMARK  status: ('A' for Active; 'I' for Inactive)
REMARK    1  A    between atoms: C_2  and  C_19
REMARK    2  A    between atoms: N_3  and  C_4
REMARK    3  A    between atoms: C_8  and  O_9
REMARK    4  A    between atoms: O_9  and  C_10
REMARK    5  A    between atoms: C_10  and  C_11
REMARK                            x       y       z     vdW  Elec       q    Type
REMARK                         _______ _______ _______ _____ _____    ______ ____
ROOT
ATOM      1  C   UNL     1       2.065   5.007  20.427  0.00  0.00    +0.000 A 
ATOM      2  C   UNL     1       1.531   3.840  20.971  0.00  0.00    +0.000 A 
ATOM      3  C   UNL     1       2.002   2.589  20.566  0.00  0.00    +0.000 A 
ATOM      4  C   UNL     1       2.994   2.497  19.591  0.00  0.00    +0.000 A 
ATOM      5  C   UNL     1       3.497   3.654  19.000  0.00  0.00    +0.000 A 
ATOM      6  C   UNL     1       3.052   4.906  19.441  0.00  0.00    +0.000 A 
ENDROOT
BRANCH   1   9
ATOM      7  O   UNL     1       2.467   7.584  19.044  0.00  0.00    +0.000 OA
ATOM      8  C   UNL     1       1.887   7.480  20.118  0.00  0.00    +0.000 C 
ATOM      9  N   UNL     1       1.661   6.304  20.805  0.00  0.00    +0.000 N 
ATOM     10  H   UNL     1       1.093   6.390  21.645  0.00  0.00    +0.000 HD
BRANCH   8  11
ATOM     11  C   UNL     1       1.328   8.660  20.755  0.00  0.00    +0.000 A 
ATOM     12  C   UNL     1       1.390   8.975  22.128  0.00  0.00    +0.000 A 
ATOM     13  N   UNL     1       0.812  10.137  22.428  0.00  0.00    +0.000 NA
ATOM     14  N   UNL     1       0.364  10.604  21.241  0.00  0.00    +0.000 N 
ATOM     15  C   UNL     1      -0.284  11.809  20.998  0.00  0.00    +0.000 A 
ATOM     16  C   UNL     1      -0.672  12.130  19.757  0.00  0.00    +0.000 A 
ATOM     17  C   UNL     1      -0.366  11.112  18.715  0.00  0.00    +0.000 A 
ATOM     18  N   UNL     1       0.253   9.981  18.897  0.00  0.00    +0.000 NA
ATOM     19  C   UNL     1       0.638   9.717  20.190  0.00  0.00    +0.000 A 
ENDBRANCH   8  11
ENDBRANCH   1   9
BRANCH   5  20
ATOM     20  O   UNL     1       4.415   3.458  17.999  0.00  0.00    +0.000 OA
BRANCH  20  21
ATOM     21  C   UNL     1       4.569   4.571  17.116  0.00  0.00    +0.000 C 
BRANCH  21  22
ATOM     22  C   UNL     1       5.677   5.494  17.564  0.00  0.00    +0.000 A 
ATOM     23  C   UNL     1       6.645   5.007  18.461  0.00  0.00    +0.000 A 
ATOM     24  C   UNL     1       7.717   5.811  18.850  0.00  0.00    +0.000 A 
ATOM     25  C   UNL     1       7.828   7.094  18.336  0.00  0.00    +0.000 A 
ATOM     26  F   UNL     1       8.864   7.860  18.703  0.00  0.00    +0.000 F 
ATOM     27  C   UNL     1       6.888   7.594  17.442  0.00  0.00    +0.000 A 
ATOM     28  C   UNL     1       5.813   6.793  17.052  0.00  0.00    +0.000 A 
ENDBRANCH  21  22
ENDBRANCH  20  21
ENDBRANCH   5  20
TORSDOF 5
ENDMDL
MODEL 7
REMARK VINA RESULT:      -8.3      6.352      8.291
REMARK  Name = 
REMARK  5 active torsions:
REMARK  status: ('A' for Active; 'I' for Inactive)
REMARK    1  A    between atoms: C_2  and  C_19
REMARK    2  A    between atoms: N_3  and  C_4
REMARK    3  A    between atoms: C_8  and  O_9
REMARK    4  A    between atoms: O_9  and  C_10
REMARK    5  A    between atoms: C_10  and  C_11
REMARK                            x       y       z     vdW  Elec       q    Type
REMARK                         _______ _______ _______ _____ _____    ______ ____
ROOT
ATOM      1  C   UNL     1       7.454   7.794  17.832  0.00  0.00    +0.000 A 
ATOM      2  C   UNL     1       8.188   6.828  18.518  0.00  0.00    +0.000 A 
ATOM      3  C   UNL     1       7.717   5.516  18.614  0.00  0.00    +0.000 A 
ATOM      4  C   UNL     1       6.492   5.169  18.048  0.00  0.00    +0.000 A 
ATOM      5  C   UNL     1       5.723   6.138  17.407  0.00  0.00    +0.000 A 
ATOM      6  C   UNL     1       6.219   7.441  17.276  0.00  0.00    +0.000 A 
ENDROOT
BRANCH   1   9
ATOM      7  O   UNL     1       9.239   9.427  19.525  0.00  0.00    +0.000 OA
ATOM      8  C   UNL     1       8.708   9.848  18.503  0.00  0.00    +0.000 C 
ATOM      9  N   UNL     1       7.876   9.129  17.669  0.00  0.00    +0.000 N 
ATOM     10  H   UNL     1       7.586   9.611  16.820  0.00  0.00    +0.000 HD
BRANCH   8  11
ATOM     11  C   UNL     1       8.976  11.203  18.056  0.00  0.00    +0.000 A 
ATOM     12  C   UNL     1       8.034  12.107  17.523  0.00  0.00    +0.000 A 
ATOM     13  N   UNL     1       8.556  13.295  17.219  0.00  0.00    +0.000 NA
ATOM     14  N   UNL     1       9.860  13.183  17.560  0.00  0.00    +0.000 N 
ATOM     15  C   UNL     1      10.842  14.163  17.476  0.00  0.00    +0.000 A 
ATOM     16  C   UNL     1      12.099  13.896  17.853  0.00  0.00    +0.000 A 
ATOM     17  C   UNL     1      12.333  12.507  18.334  0.00  0.00    +0.000 A 
ATOM     18  N   UNL     1      11.440  11.566  18.443  0.00  0.00    +0.000 NA
ATOM     19  C   UNL     1      10.167  11.908  18.055  0.00  0.00    +0.000 A 
ENDBRANCH   8  11
ENDBRANCH   1   9
BRANCH   5  20
ATOM     20  O   UNL     1       4.500   5.717  16.948  0.00  0.00    +0.000 OA
BRANCH  20  21
ATOM     21  C   UNL     1       3.384   6.321  17.606  0.00  0.00    +0.000 C 
BRANCH  21  22
ATOM     22  C   UNL     1       2.714   5.367  18.565  0.00  0.00    +0.000 A 
ATOM     23  C   UNL     1       2.309   5.843  19.826  0.00  0.00    +0.000 A 
ATOM     24  C   UNL     1       1.632   5.007  20.714  0.00  0.00    +0.000 A 
ATOM     25  C   UNL     1       1.351   3.702  20.341  0.00  0.00    +0.000 A 
ATOM     26  F   UNL     1       0.691   2.905  21.192  0.00  0.00    +0.000 F 
ATOM     27  C   UNL     1       1.734   3.211  19.098  0.00  0.00    +0.000 A 
ATOM     28  C   UNL     1       2.413   4.044  18.207  0.00  0.00    +0.000 A 
ENDBRANCH  21  22
ENDBRANCH  20  21
ENDBRANCH   5  20
TORSDOF 5
ENDMDL
MODEL 8
REMARK VINA RESULT:      -8.2      1.926      2.705
REMARK  Name = 
REMARK  5 active torsions:
REMARK  status: ('A' for Active; 'I' for Inactive)
REMARK    1  A    between atoms: C_2  and  C_19
REMARK    2  A    between atoms: N_3  and  C_4
REMARK    3  A    between atoms: C_8  and  O_9
REMARK    4  A    between atoms: O_9  and  C_10
REMARK    5  A    between atoms: C_10  and  C_11
REMARK                            x       y       z     vdW  Elec       q    Type
REMARK                         _______ _______ _______ _____ _____    ______ ____
ROOT
ATOM      1  C   UNL     1       2.029   5.334  20.112  0.00  0.00    +0.000 A 
ATOM      2  C   UNL     1       1.490   4.304  20.882  0.00  0.00    +0.000 A 
ATOM      3  C   UNL     1       2.000   3.007  20.788  0.00  0.00    +0.000 A 
ATOM      4  C   UNL     1       3.036   2.725  19.900  0.00  0.00    +0.000 A 
ATOM      5  C   UNL     1       3.546   3.733  19.084  0.00  0.00    +0.000 A 
ATOM      6  C   UNL     1       3.061   5.040  19.213  0.00  0.00    +0.000 A 
ENDROOT
BRANCH   1   9
ATOM      7  O   UNL     1       2.824   7.656  18.471  0.00  0.00    +0.000 OA
ATOM      8  C   UNL     1       2.004   7.722  19.380  0.00  0.00    +0.000 C 
ATOM      9  N   UNL     1       1.587   6.671  20.171  0.00  0.00    +0.000 N 
ATOM     10  H   UNL     1       0.840   6.888  20.828  0.00  0.00    +0.000 HD
BRANCH   8  11
ATOM     11  C   UNL     1       1.347   8.985  19.669  0.00  0.00    +0.000 A 
ATOM     12  C   UNL     1       1.165  10.055  18.770  0.00  0.00    +0.000 A 
ATOM     13  N   UNL     1       0.505  11.084  19.300  0.00  0.00    +0.000 NA
ATOM     14  N   UNL     1       0.238  10.691  20.566  0.00  0.00    +0.000 N 
ATOM     15  C   UNL     1      -0.469  11.391  21.537  0.00  0.00    +0.000 A 
ATOM     16  C   UNL     1      -0.647  10.866  22.755  0.00  0.00    +0.000 A 
ATOM     17  C   UNL     1      -0.031   9.527  22.964  0.00  0.00    +0.000 A 
ATOM     18  N   UNL     1       0.623   8.831  22.079  0.00  0.00    +0.000 NA
ATOM     19  C   UNL     1       0.759   9.419  20.843  0.00  0.00    +0.000 A 
ENDBRANCH   8  11
ENDBRANCH   1   9
BRANCH   5  20
ATOM     20  O   UNL     1       4.511   3.341  18.190  0.00  0.00    +0.000 OA
BRANCH  20  21
ATOM     21  C   UNL     1       4.776   4.292  17.156  0.00  0.00    +0.000 C 
BRANCH  21  22
ATOM     22  C   UNL     1       5.813   5.306  17.578  0.00  0.00    +0.000 A 
ATOM     23  C   UNL     1       6.788   4.928  18.520  0.00  0.00    +0.000 A 
ATOM     24  C   UNL     1       7.798   5.817  18.887  0.00  0.00    +0.000 A 
ATOM     25  C   UNL     1       7.841   7.076  18.310  0.00  0.00    +0.000 A 
ATOM     26  F   UNL     1       8.818   7.925  18.657  0.00  0.00    +0.000 F 
ATOM     27  C   UNL     1       6.893   7.470  17.372  0.00  0.00    +0.000 A 
ATOM     28  C   UNL     1       5.880   6.583  17.002  0.00  0.00    +0.000 A 
ENDBRANCH  21  22
ENDBRANCH  20  21
ENDBRANCH   5  20
TORSDOF 5
ENDMDL
MODEL 9
REMARK VINA RESULT:      -8.2      1.477      2.164
REMARK  Name = 
REMARK  5 active torsions:
REMARK  status: ('A' for Active; 'I' for Inactive)
REMARK    1  A    between atoms: C_2  and  C_19
REMARK    2  A    between atoms: N_3  and  C_4
REMARK    3  A    between atoms: C_8  and  O_9
REMARK    4  A    between atoms: O_9  and  C_10
REMARK    5  A    between atoms: C_10  and  C_11
REMARK                            x       y       z     vdW  Elec       q    Type
REMARK                         _______ _______ _______ _____ _____    ______ ____
ROOT
ATOM      1  C   UNL     1       2.745   6.123  19.203  0.00  0.00    +0.000 A 
ATOM      2  C   UNL     1       2.142   4.985  18.670  0.00  0.00    +0.000 A 
ATOM      3  C   UNL     1       2.890   3.827  18.443  0.00  0.00    +0.000 A 
ATOM      4  C   UNL     1       4.255   3.809  18.723  0.00  0.00    +0.000 A 
ATOM      5  C   UNL     1       4.881   4.957  19.205  0.00  0.00    +0.000 A 
ATOM      6  C   UNL     1       4.118   6.101  19.471  0.00  0.00    +0.000 A 
ENDROOT
BRANCH   1   9
ATOM      7  O   UNL     1       2.384   8.531  17.533  0.00  0.00    +0.000 OA
ATOM      8  C   UNL     1       1.925   8.420  18.664  0.00  0.00    +0.000 C 
ATOM      9  N   UNL     1       2.052   7.318  19.485  0.00  0.00    +0.000 N 
ATOM     10  H   UNL     1       1.540   7.365  20.364  0.00  0.00    +0.000 HD
BRANCH   8  11
ATOM     11  C   UNL     1       1.130   9.497  19.229  0.00  0.00    +0.000 A 
ATOM     12  C   UNL     1       0.641  10.624  18.537  0.00  0.00    +0.000 A 
ATOM     13  N   UNL     1      -0.083  11.440  19.303  0.00  0.00    +0.000 NA
ATOM     14  N   UNL     1      -0.080  10.847  20.518  0.00  0.00    +0.000 N 
ATOM     15  C   UNL     1      -0.727  11.278  21.670  0.00  0.00    +0.000 A 
ATOM     16  C   UNL     1      -0.625  10.577  22.806  0.00  0.00    +0.000 A 
ATOM     17  C   UNL     1       0.220   9.355  22.722  0.00  0.00    +0.000 A 
ATOM     18  N   UNL     1       0.829   8.908  21.661  0.00  0.00    +0.000 NA
ATOM     19  C   UNL     1       0.673   9.664  20.524  0.00  0.00    +0.000 A 
ENDBRANCH   8  11
ENDBRANCH   1   9
BRANCH   5  20
ATOM     20  O   UNL     1       6.239   4.864  19.378  0.00  0.00    +0.000 OA
BRANCH  20  21
ATOM     21  C   UNL     1       7.005   5.619  18.437  0.00  0.00    +0.000 C 
BRANCH  21  22
ATOM     22  C   UNL     1       6.587   5.332  17.014  0.00  0.00    +0.000 A 
ATOM     23  C   UNL     1       7.014   4.135  16.409  0.00  0.00    +0.000 A 
ATOM     24  C   UNL     1       6.598   3.807  15.119  0.00  0.00    +0.000 A 
ATOM     25  C   UNL     1       5.750   4.666  14.438  0.00  0.00    +0.000 A 
ATOM     26  F   UNL     1       5.343   4.344  13.203  0.00  0.00    +0.000 F 
ATOM     27  C   UNL     1       5.308   5.850  15.018  0.00  0.00    +0.000 A 
ATOM     28  C   UNL     1       5.724   6.183  16.309  0.00  0.00    +0.000 A 
ENDBRANCH  21  22
ENDBRANCH  20  21
ENDBRANCH   5  20
TORSDOF 5
ENDMDL
