MODEL 1
REMARK VINA RESULT:      -8.2      0.000      0.000
REMARK  Name = 
REMARK  6 active torsions:
REMARK  status: ('A' for Active; 'I' for Inactive)
REMARK    1  A    between atoms: C_1  and  C_2
REMARK    2  A    between atoms: C_7  and  S_8
REMARK    3  A    between atoms: S_8  and  C_9
REMARK    4  A    between atoms: C_9  and  C_10
REMARK    5  A    between atoms: C_15  and  C_16
REMARK    6  A    between atoms: C_22  and  C_23
REMARK                            x       y       z     vdW  Elec       q    Type
REMARK                         _______ _______ _______ _____ _____    ______ ____
ROOT
ATOM      1  C   UNL     1       0.618  10.221  18.826  0.00  0.00    +0.000 C 
ATOM      2  O   UNL     1       0.180  11.356  18.615  0.00  0.00    +0.000 OA
ATOM      3  N   UNL     1       1.668   9.799  18.045  0.00  0.00    +0.000 N 
ATOM      4  C   UNL     1       2.205   8.547  18.110  0.00  0.00    +0.000 A 
ATOM      5  N   UNL     1       1.720   7.542  18.771  0.00  0.00    +0.000 NA
ATOM      6  C   UNL     1       2.560   6.453  18.688  0.00  0.00    +0.000 A 
ATOM      7  C   UNL     1       3.711   6.656  17.922  0.00  0.00    +0.000 A 
ATOM      8  S   UNL     1       3.642   8.267  17.257  0.00  0.00    +0.000 S 
ATOM      9  H   UNL     1       2.056  10.467  17.395  0.00  0.00    +0.000 HD
ENDROOT
BRANCH   6  10
ATOM     10  C   UNL     1       2.135   5.229  19.358  0.00  0.00    +0.000 A 
ATOM     11  C   UNL     1       1.621   4.182  18.577  0.00  0.00    +0.000 A 
ATOM     12  C   UNL     1       1.307   2.951  19.151  0.00  0.00    +0.000 A 
ATOM     13  C   UNL     1       1.502   2.754  20.515  0.00  0.00    +0.000 A 
ATOM     14  C   UNL     1       1.954   3.805  21.311  0.00  0.00    +0.000 A 
ATOM     15  C   UNL     1       2.232   5.049  20.741  0.00  0.00    +0.000 A 
ENDBRANCH   6  10
BRANCH   7  16
ATOM     16  C   UNL     1       4.853   5.776  17.609  0.00  0.00    +0.000 A 
ATOM     17  C   UNL     1       5.913   5.632  18.520  0.00  0.00    +0.000 A 
ATOM     18  C   UNL     1       7.087   4.967  18.165  0.00  0.00    +0.000 A 
ATOM     19  C   UNL     1       7.192   4.358  16.919  0.00  0.00    +0.000 A 
ATOM     20  C   UNL     1       6.122   4.420  16.029  0.00  0.00    +0.000 A 
ATOM     21  C   UNL     1       4.968   5.135  16.365  0.00  0.00    +0.000 A 
ENDBRANCH   7  16
BRANCH   1  22
ATOM     22  C   UNL     1       0.081   9.291  19.927  0.00  0.00    +0.000 C 
BRANCH  22  23
ATOM     23  S   UNL     1       0.813   9.631  21.545  0.00  0.00    +0.000 S 
BRANCH  23  30
ATOM     24  C   UNL     1       0.148  14.739  21.851  0.00  0.00    +0.000 C 
ATOM     25  C   UNL     1      -0.353  13.351  22.155  0.00  0.00    +0.000 A 
ATOM     26  C   UNL     1      -1.517  13.187  22.800  0.00  0.00    +0.000 A 
ATOM     27  C   UNL     1      -1.971  11.823  23.070  0.00  0.00    +0.000 A 
ATOM     28  O   UNL     1      -3.018  11.611  23.659  0.00  0.00    +0.000 OA
ATOM     29  N   UNL     1      -1.150  10.840  22.625  0.00  0.00    +0.000 N 
ATOM     30  C   UNL     1       0.014  11.110  21.982  0.00  0.00    +0.000 A 
ATOM     31  N   UNL     1       0.447  12.302  21.730  0.00  0.00    +0.000 NA
ATOM     32  H   UNL     1      -1.415   9.882  22.783  0.00  0.00    +0.000 HD
ENDBRANCH  23  30
ENDBRANCH  22  23
ENDBRANCH   1  22
TORSDOF 5
ENDMDL
MODEL 2
REMARK VINA RESULT:      -8.2      0.958      1.756
REMARK  Name = 
REMARK  6 active torsions:
REMARK  status: ('A' for Active; 'I' for Inactive)
REMARK    1  A    between atoms: C_1  and  C_2
REMARK    2  A    between atoms: C_7  and  S_8
REMARK    3  A    between atoms: S_8  and  C_9
REMARK    4  A    between atoms: C_9  and  C_10
REMARK    5  A    between atoms: C_15  and  C_16
REMARK    6  A    between atoms: C_22  and  C_23
REMARK                            x       y       z     vdW  Elec       q    Type
REMARK                         _______ _______ _______ _____ _____    ______ ____
ROOT
ATOM      1  C   UNL     1       0.709  10.125  19.024  0.00  0.00    +0.000 C 
ATOM      2  O   UNL     1       0.271  11.268  18.860  0.00  0.00    +0.000 OA
ATOM      3  N   UNL     1       1.732   9.721  18.200  0.00  0.00    +0.000 N 
ATOM      4  C   UNL     1       2.264   8.465  18.212  0.00  0.00    +0.000 A 
ATOM      5  N   UNL     1       1.795   7.444  18.860  0.00  0.00    +0.000 NA
ATOM      6  C   UNL     1       2.627   6.354  18.720  0.00  0.00    +0.000 A 
ATOM      7  C   UNL     1       3.755   6.573  17.925  0.00  0.00    +0.000 A 
ATOM      8  S   UNL     1       3.673   8.203  17.308  0.00  0.00    +0.000 S 
ATOM      9  H   UNL     1       2.105  10.405  17.558  0.00  0.00    +0.000 HD
ENDROOT
BRANCH   6  10
ATOM     10  C   UNL     1       2.215   5.114  19.368  0.00  0.00    +0.000 A 
ATOM     11  C   UNL     1       2.504   4.942  20.731  0.00  0.00    +0.000 A 
ATOM     12  C   UNL     1       2.033   3.829  21.426  0.00  0.00    +0.000 A 
ATOM     13  C   UNL     1       1.270   2.872  20.763  0.00  0.00    +0.000 A 
ATOM     14  C   UNL     1       1.029   3.000  19.397  0.00  0.00    +0.000 A 
ATOM     15  C   UNL     1       1.532   4.097  18.694  0.00  0.00    +0.000 A 
ENDBRANCH   6  10
BRANCH   7  16
ATOM     16  C   UNL     1       4.882   5.698  17.552  0.00  0.00    +0.000 A 
ATOM     17  C   UNL     1       6.062   5.693  18.313  0.00  0.00    +0.000 A 
ATOM     18  C   UNL     1       7.206   5.026  17.870  0.00  0.00    +0.000 A 
ATOM     19  C   UNL     1       7.165   4.280  16.698  0.00  0.00    +0.000 A 
ATOM     20  C   UNL     1       5.981   4.205  15.968  0.00  0.00    +0.000 A 
ATOM     21  C   UNL     1       4.852   4.919  16.384  0.00  0.00    +0.000 A 
ENDBRANCH   7  16
BRANCH   1  22
ATOM     22  C   UNL     1       0.202   9.166  20.115  0.00  0.00    +0.000 C 
BRANCH  22  23
ATOM     23  S   UNL     1       0.803   9.603  21.763  0.00  0.00    +0.000 S 
BRANCH  23  30
ATOM     24  C   UNL     1      -3.239  12.130  23.740  0.00  0.00    +0.000 C 
ATOM     25  C   UNL     1      -1.936  12.168  22.985  0.00  0.00    +0.000 A 
ATOM     26  C   UNL     1      -1.444  13.340  22.559  0.00  0.00    +0.000 A 
ATOM     27  C   UNL     1      -0.173  13.335  21.835  0.00  0.00    +0.000 A 
ATOM     28  O   UNL     1       0.322  14.368  21.418  0.00  0.00    +0.000 OA
ATOM     29  N   UNL     1       0.394  12.114  21.670  0.00  0.00    +0.000 N 
ATOM     30  C   UNL     1      -0.186  10.980  22.139  0.00  0.00    +0.000 A 
ATOM     31  N   UNL     1      -1.309  10.949  22.778  0.00  0.00    +0.000 NA
ATOM     32  H   UNL     1       1.272  12.052  21.180  0.00  0.00    +0.000 HD
ENDBRANCH  23  30
ENDBRANCH  22  23
ENDBRANCH   1  22
TORSDOF 5
ENDMDL
MODEL 3
REMARK VINA RESULT:      -8.1      3.090      5.515
REMARK  Name = 
REMARK  6 active torsions:
REMARK  status: ('A' for Active; 'I' for Inactive)
REMARK    1  A    between atoms: C_1  and  C_2
REMARK    2  A    between atoms: C_7  and  S_8
REMARK    3  A    between atoms: S_8  and  C_9
REMARK    4  A    between atoms: C_9  and  C_10
REMARK    5  A    between atoms: C_15  and  C_16
REMARK    6  A    between atoms: C_22  and  C_23
REMARK                            x       y       z     vdW  Elec       q    Type
REMARK                         _______ _______ _______ _____ _____    ______ ____
ROOT
ATOM      1  C   UNL     1       1.747   4.355  19.930  0.00  0.00    +0.000 C 
ATOM      2  O   UNL     1       0.742   3.914  20.496  0.00  0.00    +0.000 OA
ATOM      3  N   UNL     1       2.144   3.722  18.776  0.00  0.00    +0.000 N 
ATOM      4  C   UNL     1       3.274   4.047  18.084  0.00  0.00    +0.000 A 
ATOM      5  N   UNL     1       4.205   4.859  18.481  0.00  0.00    +0.000 NA
ATOM      6  C   UNL     1       5.158   5.024  17.500  0.00  0.00    +0.000 A 
ATOM      7  C   UNL     1       4.930   4.294  16.330  0.00  0.00    +0.000 A 
ATOM      8  S   UNL     1       3.490   3.337  16.561  0.00  0.00    +0.000 S 
ATOM      9  H   UNL     1       1.554   2.980  18.430  0.00  0.00    +0.000 HD
ENDROOT
BRANCH   6  10
ATOM     10  C   UNL     1       6.291   5.888  17.810  0.00  0.00    +0.000 A 
ATOM     11  C   UNL     1       6.379   7.134  17.169  0.00  0.00    +0.000 A 
ATOM     12  C   UNL     1       7.377   8.045  17.513  0.00  0.00    +0.000 A 
ATOM     13  C   UNL     1       8.301   7.718  18.501  0.00  0.00    +0.000 A 
ATOM     14  C   UNL     1       8.261   6.461  19.101  0.00  0.00    +0.000 A 
ATOM     15  C   UNL     1       7.284   5.535  18.729  0.00  0.00    +0.000 A 
ENDBRANCH   6  10
BRANCH   7  16
ATOM     16  C   UNL     1       5.677   4.211  15.061  0.00  0.00    +0.000 A 
ATOM     17  C   UNL     1       6.945   4.802  14.940  0.00  0.00    +0.000 A 
ATOM     18  C   UNL     1       7.580   4.908  13.701  0.00  0.00    +0.000 A 
ATOM     19  C   UNL     1       6.995   4.347  12.571  0.00  0.00    +0.000 A 
ATOM     20  C   UNL     1       5.775   3.685  12.682  0.00  0.00    +0.000 A 
ATOM     21  C   UNL     1       5.114   3.630  13.913  0.00  0.00    +0.000 A 
ENDBRANCH   7  16
BRANCH   1  22
ATOM     22  C   UNL     1       2.534   5.581  20.422  0.00  0.00    +0.000 C 
BRANCH  22  23
ATOM     23  S   UNL     1       1.467   6.856  21.132  0.00  0.00    +0.000 S 
BRANCH  23  30
ATOM     24  C   UNL     1       0.580  11.477  19.012  0.00  0.00    +0.000 C 
ATOM     25  C   UNL     1       1.208  10.111  18.916  0.00  0.00    +0.000 A 
ATOM     26  C   UNL     1       1.920   9.778  17.830  0.00  0.00    +0.000 A 
ATOM     27  C   UNL     1       2.519   8.444  17.778  0.00  0.00    +0.000 A 
ATOM     28  O   UNL     1       3.172   8.082  16.813  0.00  0.00    +0.000 OA
ATOM     29  N   UNL     1       2.292   7.665  18.864  0.00  0.00    +0.000 N 
ATOM     30  C   UNL     1       1.553   8.095  19.918  0.00  0.00    +0.000 A 
ATOM     31  N   UNL     1       1.006   9.264  19.994  0.00  0.00    +0.000 NA
ATOM     32  H   UNL     1       2.683   6.737  18.882  0.00  0.00    +0.000 HD
ENDBRANCH  23  30
ENDBRANCH  22  23
ENDBRANCH   1  22
TORSDOF 5
ENDMDL
MODEL 4
REMARK VINA RESULT:      -8.0      3.080      5.544
REMARK  Name = 
REMARK  6 active torsions:
REMARK  status: ('A' for Active; 'I' for Inactive)
REMARK    1  A    between atoms: C_1  and  C_2
REMARK    2  A    between atoms: C_7  and  S_8
REMARK    3  A    between atoms: S_8  and  C_9
REMARK    4  A    between atoms: C_9  and  C_10
REMARK    5  A    between atoms: C_15  and  C_16
REMARK    6  A    between atoms: C_22  and  C_23
REMARK                            x       y       z     vdW  Elec       q    Type
REMARK                         _______ _______ _______ _____ _____    ______ ____
ROOT
ATOM      1  C   UNL     1       1.645   4.330  19.964  0.00  0.00    +0.000 C 
ATOM      2  O   UNL     1       0.659   3.838  20.521  0.00  0.00    +0.000 OA
ATOM      3  N   UNL     1       2.054   3.750  18.787  0.00  0.00    +0.000 N 
ATOM      4  C   UNL     1       3.168   4.134  18.100  0.00  0.00    +0.000 A 
ATOM      5  N   UNL     1       4.075   4.961  18.519  0.00  0.00    +0.000 NA
ATOM      6  C   UNL     1       5.016   5.190  17.538  0.00  0.00    +0.000 A 
ATOM      7  C   UNL     1       4.803   4.494  16.346  0.00  0.00    +0.000 A 
ATOM      8  S   UNL     1       3.396   3.484  16.552  0.00  0.00    +0.000 S 
ATOM      9  H   UNL     1       1.485   3.002  18.419  0.00  0.00    +0.000 HD
ENDROOT
BRANCH   6  10
ATOM     10  C   UNL     1       6.124   6.078  17.871  0.00  0.00    +0.000 A 
ATOM     11  C   UNL     1       7.051   5.659  18.838  0.00  0.00    +0.000 A 
ATOM     12  C   UNL     1       8.190   6.417  19.111  0.00  0.00    +0.000 A 
ATOM     13  C   UNL     1       8.412   7.604  18.420  0.00  0.00    +0.000 A 
ATOM     14  C   UNL     1       7.469   8.061  17.502  0.00  0.00    +0.000 A 
ATOM     15  C   UNL     1       6.310   7.321  17.258  0.00  0.00    +0.000 A 
ENDBRANCH   6  10
BRANCH   7  16
ATOM     16  C   UNL     1       5.543   4.478  15.070  0.00  0.00    +0.000 A 
ATOM     17  C   UNL     1       5.006   3.838  13.941  0.00  0.00    +0.000 A 
ATOM     18  C   UNL     1       5.769   3.640  12.789  0.00  0.00    +0.000 A 
ATOM     19  C   UNL     1       7.058   4.154  12.713  0.00  0.00    +0.000 A 
ATOM     20  C   UNL     1       7.583   4.863  13.791  0.00  0.00    +0.000 A 
ATOM     21  C   UNL     1       6.838   5.012  14.965  0.00  0.00    +0.000 A 
ENDBRANCH   7  16
BRANCH   1  22
ATOM     22  C   UNL     1       2.396   5.563  20.494  0.00  0.00    +0.000 C 
BRANCH  22  23
ATOM     23  S   UNL     1       1.284   6.832  21.145  0.00  0.00    +0.000 S 
BRANCH  23  30
ATOM     24  C   UNL     1       0.651  11.519  19.080  0.00  0.00    +0.000 C 
ATOM     25  C   UNL     1       1.218  10.126  18.974  0.00  0.00    +0.000 A 
ATOM     26  C   UNL     1       1.933   9.776  17.896  0.00  0.00    +0.000 A 
ATOM     27  C   UNL     1       2.472   8.418  17.834  0.00  0.00    +0.000 A 
ATOM     28  O   UNL     1       3.125   8.039  16.877  0.00  0.00    +0.000 OA
ATOM     29  N   UNL     1       2.188   7.634  18.904  0.00  0.00    +0.000 N 
ATOM     30  C   UNL     1       1.450   8.082  19.951  0.00  0.00    +0.000 A 
ATOM     31  N   UNL     1       0.957   9.274  20.036  0.00  0.00    +0.000 NA
ATOM     32  H   UNL     1       2.536   6.689  18.915  0.00  0.00    +0.000 HD
ENDBRANCH  23  30
ENDBRANCH  22  23
ENDBRANCH   1  22
TORSDOF 5
ENDMDL
MODEL 5
REMARK VINA RESULT:      -7.9      0.311      1.262
REMARK  Name = 
REMARK  6 active torsions:
REMARK  status: ('A' for Active; 'I' for Inactive)
REMARK    1  A    between atoms: C_1  and  C_2
REMARK    2  A    between atoms: C_7  and  S_8
REMARK    3  A    between atoms: S_8  and  C_9
REMARK    4  A    between atoms: C_9  and  C_10
REMARK    5  A    between atoms: C_15  and  C_16
REMARK    6  A    between atoms: C_22  and  C_23
REMARK                            x       y       z     vdW  Elec       q    Type
REMARK                         _______ _______ _______ _____ _____    ______ ____
ROOT
ATOM      1  C   UNL     1       0.461  10.341  18.846  0.00  0.00    +0.000 C 
ATOM      2  O   UNL     1      -0.020  11.469  18.698  0.00  0.00    +0.000 OA
ATOM      3  N   UNL     1       1.527  10.004  18.047  0.00  0.00    +0.000 N 
ATOM      4  C   UNL     1       2.111   8.772  18.043  0.00  0.00    +0.000 A 
ATOM      5  N   UNL     1       1.664   7.713  18.645  0.00  0.00    +0.000 NA
ATOM      6  C   UNL     1       2.545   6.664  18.504  0.00  0.00    +0.000 A 
ATOM      7  C   UNL     1       3.689   6.952  17.755  0.00  0.00    +0.000 A 
ATOM      8  S   UNL     1       3.559   8.594  17.181  0.00  0.00    +0.000 S 
ATOM      9  H   UNL     1       1.891  10.721  17.437  0.00  0.00    +0.000 HD
ENDROOT
BRANCH   6  10
ATOM     10  C   UNL     1       2.166   5.389  19.103  0.00  0.00    +0.000 A 
ATOM     11  C   UNL     1       2.222   5.262  20.501  0.00  0.00    +0.000 A 
ATOM     12  C   UNL     1       1.762   4.107  21.131  0.00  0.00    +0.000 A 
ATOM     13  C   UNL     1       1.242   3.063  20.371  0.00  0.00    +0.000 A 
ATOM     14  C   UNL     1       1.237   3.153  18.980  0.00  0.00    +0.000 A 
ATOM     15  C   UNL     1       1.733   4.295  18.348  0.00  0.00    +0.000 A 
ENDBRANCH   6  10
BRANCH   7  16
ATOM     16  C   UNL     1       4.864   6.135  17.397  0.00  0.00    +0.000 A 
ATOM     17  C   UNL     1       5.130   5.817  16.056  0.00  0.00    +0.000 A 
ATOM     18  C   UNL     1       6.114   4.888  15.713  0.00  0.00    +0.000 A 
ATOM     19  C   UNL     1       6.909   4.322  16.703  0.00  0.00    +0.000 A 
ATOM     20  C   UNL     1       6.717   4.684  18.034  0.00  0.00    +0.000 A 
ATOM     21  C   UNL     1       5.693   5.572  18.381  0.00  0.00    +0.000 A 
ENDBRANCH   7  16
BRANCH   1  22
ATOM     22  C   UNL     1      -0.042   9.331  19.892  0.00  0.00    +0.000 C 
BRANCH  22  23
ATOM     23  S   UNL     1       0.689   9.595  21.525  0.00  0.00    +0.000 S 
BRANCH  23  30
ATOM     24  C   UNL     1       0.211  14.710  22.011  0.00  0.00    +0.000 C 
ATOM     25  C   UNL     1      -0.347  13.332  22.254  0.00  0.00    +0.000 A 
ATOM     26  C   UNL     1      -1.529  13.189  22.870  0.00  0.00    +0.000 A 
ATOM     27  C   UNL     1      -2.040  11.835  23.081  0.00  0.00    +0.000 A 
ATOM     28  O   UNL     1      -3.105  11.641  23.642  0.00  0.00    +0.000 OA
ATOM     29  N   UNL     1      -1.247  10.838  22.614  0.00  0.00    +0.000 N 
ATOM     30  C   UNL     1      -0.061  11.087  22.002  0.00  0.00    +0.000 A 
ATOM     31  N   UNL     1       0.421  12.269  21.803  0.00  0.00    +0.000 NA
ATOM     32  H   UNL     1      -1.552   9.885  22.731  0.00  0.00    +0.000 HD
ENDBRANCH  23  30
ENDBRANCH  22  23
ENDBRANCH   1  22
TORSDOF 5
ENDMDL
MODEL 6
REMARK VINA RESULT:      -7.6      4.037      6.891
REMARK  Name = 
REMARK  6 active torsions:
REMARK  status: ('A' for Active; 'I' for Inactive)
REMARK    1  A    between atoms: C_1  and  C_2
REMARK    2  A    between atoms: C_7  and  S_8
REMARK    3  A    between atoms: S_8  and  C_9
REMARK    4  A    between atoms: C_9  and  C_10
REMARK    5  A    between atoms: C_15  and  C_16
REMARK    6  A    between atoms: C_22  and  C_23
REMARK                            x       y       z     vdW  Elec       q    Type
REMARK                         _______ _______ _______ _____ _____    ______ ____
ROOT
ATOM      1  C   UNL     1      -1.475  15.220  21.530  0.00  0.00    +0.000 C 
ATOM      2  O   UNL     1      -1.330  16.251  22.193  0.00  0.00    +0.000 OA
ATOM      3  N   UNL     1      -0.370  14.419  21.366  0.00  0.00    +0.000 N 
ATOM      4  C   UNL     1      -0.358  13.292  20.599  0.00  0.00    +0.000 A 
ATOM      5  N   UNL     1      -1.301  12.904  19.797  0.00  0.00    +0.000 NA
ATOM      6  C   UNL     1      -0.998  11.679  19.245  0.00  0.00    +0.000 A 
ATOM      7  C   UNL     1       0.228  11.141  19.643  0.00  0.00    +0.000 A 
ATOM      8  S   UNL     1       1.007  12.293  20.696  0.00  0.00    +0.000 S 
ATOM      9  H   UNL     1       0.472  14.691  21.852  0.00  0.00    +0.000 HD
ENDROOT
BRANCH   6  10
ATOM     10  C   UNL     1      -1.954  11.122  18.293  0.00  0.00    +0.000 A 
ATOM     11  C   UNL     1      -3.290  11.548  18.358  0.00  0.00    +0.000 A 
ATOM     12  C   UNL     1      -4.218  11.136  17.402  0.00  0.00    +0.000 A 
ATOM     13  C   UNL     1      -3.819  10.291  16.371  0.00  0.00    +0.000 A 
ATOM     14  C   UNL     1      -2.511   9.813  16.330  0.00  0.00    +0.000 A 
ATOM     15  C   UNL     1      -1.592  10.196  17.310  0.00  0.00    +0.000 A 
ENDBRANCH   6  10
BRANCH   7  16
ATOM     16  C   UNL     1       0.899   9.870  19.313  0.00  0.00    +0.000 A 
ATOM     17  C   UNL     1       1.043   8.866  20.284  0.00  0.00    +0.000 A 
ATOM     18  C   UNL     1       1.842   7.745  20.054  0.00  0.00    +0.000 A 
ATOM     19  C   UNL     1       2.445   7.565  18.814  0.00  0.00    +0.000 A 
ATOM     20  C   UNL     1       2.251   8.508  17.808  0.00  0.00    +0.000 A 
ATOM     21  C   UNL     1       1.496   9.658  18.059  0.00  0.00    +0.000 A 
ENDBRANCH   7  16
BRANCH   1  22
ATOM     22  C   UNL     1      -2.818  14.777  20.926  0.00  0.00    +0.000 C 
BRANCH  22  23
ATOM     23  S   UNL     1      -3.875  13.928  22.123  0.00  0.00    +0.000 S 
BRANCH  23  30
ATOM     24  C   UNL     1      -7.449  10.554  20.546  0.00  0.00    +0.000 C 
ATOM     25  C   UNL     1      -6.715  11.853  20.333  0.00  0.00    +0.000 A 
ATOM     26  C   UNL     1      -7.023  12.630  19.285  0.00  0.00    +0.000 A 
ATOM     27  C   UNL     1      -6.293  13.886  19.116  0.00  0.00    +0.000 A 
ATOM     28  O   UNL     1      -6.524  14.631  18.179  0.00  0.00    +0.000 OA
ATOM     29  N   UNL     1      -5.360  14.145  20.066  0.00  0.00    +0.000 N 
ATOM     30  C   UNL     1      -5.120  13.290  21.092  0.00  0.00    +0.000 A 
ATOM     31  N   UNL     1      -5.743  12.171  21.268  0.00  0.00    +0.000 NA
ATOM     32  H   UNL     1      -4.829  14.998  20.000  0.00  0.00    +0.000 HD
ENDBRANCH  23  30
ENDBRANCH  22  23
ENDBRANCH   1  22
TORSDOF 5
ENDMDL
MODEL 7
REMARK VINA RESULT:      -7.6      1.343      1.798
REMARK  Name = 
REMARK  6 active torsions:
REMARK  status: ('A' for Active; 'I' for Inactive)
REMARK    1  A    between atoms: C_1  and  C_2
REMARK    2  A    between atoms: C_7  and  S_8
REMARK    3  A    between atoms: S_8  and  C_9
REMARK    4  A    between atoms: C_9  and  C_10
REMARK    5  A    between atoms: C_15  and  C_16
REMARK    6  A    between atoms: C_22  and  C_23
REMARK                            x       y       z     vdW  Elec       q    Type
REMARK                         _______ _______ _______ _____ _____    ______ ____
ROOT
ATOM      1  C   UNL     1       1.194  10.411  18.780  0.00  0.00    +0.000 C 
ATOM      2  O   UNL     1       0.878  11.598  18.654  0.00  0.00    +0.000 OA
ATOM      3  N   UNL     1       2.224   9.950  17.996  0.00  0.00    +0.000 N 
ATOM      4  C   UNL     1       2.633   8.650  17.969  0.00  0.00    +0.000 A 
ATOM      5  N   UNL     1       2.030   7.648  18.530  0.00  0.00    +0.000 NA
ATOM      6  C   UNL     1       2.762   6.491  18.379  0.00  0.00    +0.000 A 
ATOM      7  C   UNL     1       3.953   6.638  17.664  0.00  0.00    +0.000 A 
ATOM      8  S   UNL     1       4.065   8.296  17.135  0.00  0.00    +0.000 S 
ATOM      9  H   UNL     1       2.699  10.626  17.415  0.00  0.00    +0.000 HD
ENDROOT
BRANCH   6  10
ATOM     10  C   UNL     1       2.195   5.266  18.932  0.00  0.00    +0.000 A 
ATOM     11  C   UNL     1       2.064   5.157  20.326  0.00  0.00    +0.000 A 
ATOM     12  C   UNL     1       1.425   4.059  20.900  0.00  0.00    +0.000 A 
ATOM     13  C   UNL     1       0.910   3.055  20.085  0.00  0.00    +0.000 A 
ATOM     14  C   UNL     1       1.086   3.122  18.704  0.00  0.00    +0.000 A 
ATOM     15  C   UNL     1       1.760   4.203  18.134  0.00  0.00    +0.000 A 
ENDBRANCH   6  10
BRANCH   7  16
ATOM     16  C   UNL     1       5.013   5.676  17.310  0.00  0.00    +0.000 A 
ATOM     17  C   UNL     1       6.172   5.569  18.096  0.00  0.00    +0.000 A 
ATOM     18  C   UNL     1       7.268   4.815  17.674  0.00  0.00    +0.000 A 
ATOM     19  C   UNL     1       7.193   4.083  16.495  0.00  0.00    +0.000 A 
ATOM     20  C   UNL     1       6.024   4.109  15.738  0.00  0.00    +0.000 A 
ATOM     21  C   UNL     1       4.948   4.910  16.134  0.00  0.00    +0.000 A 
ENDBRANCH   7  16
BRANCH   1  22
ATOM     22  C   UNL     1       0.530   9.454  19.784  0.00  0.00    +0.000 C 
BRANCH  22  23
ATOM     23  S   UNL     1       0.663  10.032  21.493  0.00  0.00    +0.000 S 
BRANCH  23  30
ATOM     24  C   UNL     1      -3.006  12.719  23.931  0.00  0.00    +0.000 C 
ATOM     25  C   UNL     1      -2.414  12.220  22.638  0.00  0.00    +0.000 A 
ATOM     26  C   UNL     1      -2.987  12.546  21.471  0.00  0.00    +0.000 A 
ATOM     27  C   UNL     1      -2.378  12.047  20.238  0.00  0.00    +0.000 A 
ATOM     28  O   UNL     1      -2.857  12.305  19.147  0.00  0.00    +0.000 OA
ATOM     29  N   UNL     1      -1.265  11.291  20.408  0.00  0.00    +0.000 N 
ATOM     30  C   UNL     1      -0.763  11.013  21.637  0.00  0.00    +0.000 A 
ATOM     31  N   UNL     1      -1.277  11.435  22.746  0.00  0.00    +0.000 NA
ATOM     32  H   UNL     1      -0.804  10.922  19.592  0.00  0.00    +0.000 HD
ENDBRANCH  23  30
ENDBRANCH  22  23
ENDBRANCH   1  22
TORSDOF 5
ENDMDL
MODEL 8
REMARK VINA RESULT:      -7.5      1.117      1.360
REMARK  Name = 
REMARK  6 active torsions:
REMARK  status: ('A' for Active; 'I' for Inactive)
REMARK    1  A    between atoms: C_1  and  C_2
REMARK    2  A    between atoms: C_7  and  S_8
REMARK    3  A    between atoms: S_8  and  C_9
REMARK    4  A    between atoms: C_9  and  C_10
REMARK    5  A    between atoms: C_15  and  C_16
REMARK    6  A    between atoms: C_22  and  C_23
REMARK                            x       y       z     vdW  Elec       q    Type
REMARK                         _______ _______ _______ _____ _____    ______ ____
ROOT
ATOM      1  C   UNL     1       0.846  10.518  18.672  0.00  0.00    +0.000 C 
ATOM      2  O   UNL     1       0.476  11.679  18.472  0.00  0.00    +0.000 OA
ATOM      3  N   UNL     1       1.902  10.059  17.921  0.00  0.00    +0.000 N 
ATOM      4  C   UNL     1       2.371   8.780  17.975  0.00  0.00    +0.000 A 
ATOM      5  N   UNL     1       1.811   7.787  18.594  0.00  0.00    +0.000 NA
ATOM      6  C   UNL     1       2.597   6.658  18.517  0.00  0.00    +0.000 A 
ATOM      7  C   UNL     1       3.785   6.817  17.799  0.00  0.00    +0.000 A 
ATOM      8  S   UNL     1       3.824   8.444  17.170  0.00  0.00    +0.000 S 
ATOM      9  H   UNL     1       2.349  10.719  17.302  0.00  0.00    +0.000 HD
ENDROOT
BRANCH   6  10
ATOM     10  C   UNL     1       2.083   5.444  19.141  0.00  0.00    +0.000 A 
ATOM     11  C   UNL     1       1.630   4.404  18.313  0.00  0.00    +0.000 A 
ATOM     12  C   UNL     1       1.238   3.180  18.853  0.00  0.00    +0.000 A 
ATOM     13  C   UNL     1       1.292   2.983  20.230  0.00  0.00    +0.000 A 
ATOM     14  C   UNL     1       1.681   4.027  21.067  0.00  0.00    +0.000 A 
ATOM     15  C   UNL     1       2.038   5.265  20.527  0.00  0.00    +0.000 A 
ENDBRANCH   6  10
BRANCH   7  16
ATOM     16  C   UNL     1       4.891   5.885  17.509  0.00  0.00    +0.000 A 
ATOM     17  C   UNL     1       5.808   5.532  18.512  0.00  0.00    +0.000 A 
ATOM     18  C   UNL     1       6.968   4.816  18.214  0.00  0.00    +0.000 A 
ATOM     19  C   UNL     1       7.191   4.365  16.918  0.00  0.00    +0.000 A 
ATOM     20  C   UNL     1       6.256   4.634  15.922  0.00  0.00    +0.000 A 
ATOM     21  C   UNL     1       5.122   5.401  16.211  0.00  0.00    +0.000 A 
ENDBRANCH   7  16
BRANCH   1  22
ATOM     22  C   UNL     1       0.220   9.594  19.729  0.00  0.00    +0.000 C 
BRANCH  22  23
ATOM     23  S   UNL     1       0.497  10.178  21.418  0.00  0.00    +0.000 S 
BRANCH  23  30
ATOM     24  C   UNL     1      -3.811  12.746  20.202  0.00  0.00    +0.000 C 
ATOM     25  C   UNL     1      -2.600  12.602  21.086  0.00  0.00    +0.000 A 
ATOM     26  C   UNL     1      -2.400  13.465  22.091  0.00  0.00    +0.000 A 
ATOM     27  C   UNL     1      -1.215  13.287  22.931  0.00  0.00    +0.000 A 
ATOM     28  O   UNL     1      -0.976  14.045  23.856  0.00  0.00    +0.000 OA
ATOM     29  N   UNL     1      -0.424  12.236  22.600  0.00  0.00    +0.000 N 
ATOM     30  C   UNL     1      -0.713  11.417  21.557  0.00  0.00    +0.000 A 
ATOM     31  N   UNL     1      -1.748  11.548  20.794  0.00  0.00    +0.000 NA
ATOM     32  H   UNL     1       0.404  12.066  23.147  0.00  0.00    +0.000 HD
ENDBRANCH  23  30
ENDBRANCH  22  23
ENDBRANCH   1  22
TORSDOF 5
ENDMDL
MODEL 9
REMARK VINA RESULT:      -7.5      2.649      5.009
REMARK  Name = 
REMARK  6 active torsions:
REMARK  status: ('A' for Active; 'I' for Inactive)
REMARK    1  A    between atoms: C_1  and  C_2
REMARK    2  A    between atoms: C_7  and  S_8
REMARK    3  A    between atoms: S_8  and  C_9
REMARK    4  A    between atoms: C_9  and  C_10
REMARK    5  A    between atoms: C_15  and  C_16
REMARK    6  A    between atoms: C_22  and  C_23
REMARK                            x       y       z     vdW  Elec       q    Type
REMARK                         _______ _______ _______ _____ _____    ______ ____
ROOT
ATOM      1  C   UNL     1       1.712   4.670  19.847  0.00  0.00    +0.000 C 
ATOM      2  O   UNL     1       0.698   4.260  20.420  0.00  0.00    +0.000 OA
ATOM      3  N   UNL     1       2.131   3.973  18.739  0.00  0.00    +0.000 N 
ATOM      4  C   UNL     1       3.272   4.260  18.050  0.00  0.00    +0.000 A 
ATOM      5  N   UNL     1       4.194   5.096  18.416  0.00  0.00    +0.000 NA
ATOM      6  C   UNL     1       5.165   5.207  17.444  0.00  0.00    +0.000 A 
ATOM      7  C   UNL     1       4.960   4.410  16.315  0.00  0.00    +0.000 A 
ATOM      8  S   UNL     1       3.518   3.464  16.575  0.00  0.00    +0.000 S 
ATOM      9  H   UNL     1       1.548   3.210  18.427  0.00  0.00    +0.000 HD
ENDROOT
BRANCH   6  10
ATOM     10  C   UNL     1       6.291   6.091  17.724  0.00  0.00    +0.000 A 
ATOM     11  C   UNL     1       6.324   7.351  17.105  0.00  0.00    +0.000 A 
ATOM     12  C   UNL     1       7.315   8.278  17.425  0.00  0.00    +0.000 A 
ATOM     13  C   UNL     1       8.286   7.954  18.367  0.00  0.00    +0.000 A 
ATOM     14  C   UNL     1       8.300   6.686  18.944  0.00  0.00    +0.000 A 
ATOM     15  C   UNL     1       7.329   5.745  18.594  0.00  0.00    +0.000 A 
ENDBRANCH   6  10
BRANCH   7  16
ATOM     16  C   UNL     1       5.730   4.256  15.066  0.00  0.00    +0.000 A 
ATOM     17  C   UNL     1       6.973   4.892  14.912  0.00  0.00    +0.000 A 
ATOM     18  C   UNL     1       7.622   4.923  13.676  0.00  0.00    +0.000 A 
ATOM     19  C   UNL     1       7.080   4.245  12.590  0.00  0.00    +0.000 A 
ATOM     20  C   UNL     1       5.888   3.540  12.741  0.00  0.00    +0.000 A 
ATOM     21  C   UNL     1       5.211   3.557  13.964  0.00  0.00    +0.000 A 
ENDBRANCH   7  16
BRANCH   1  22
ATOM     22  C   UNL     1       2.487   5.925  20.282  0.00  0.00    +0.000 C 
BRANCH  22  23
ATOM     23  S   UNL     1       2.334   7.285  19.099  0.00  0.00    +0.000 S 
BRANCH  23  30
ATOM     24  C   UNL     1       0.196   9.323  23.330  0.00  0.00    +0.000 C 
ATOM     25  C   UNL     1       0.508   9.432  21.860  0.00  0.00    +0.000 A 
ATOM     26  C   UNL     1       0.127  10.519  21.175  0.00  0.00    +0.000 A 
ATOM     27  C   UNL     1       0.455  10.590  19.751  0.00  0.00    +0.000 A 
ATOM     28  O   UNL     1       0.129  11.550  19.074  0.00  0.00    +0.000 OA
ATOM     29  N   UNL     1       1.133   9.523  19.260  0.00  0.00    +0.000 N 
ATOM     30  C   UNL     1       1.473   8.465  20.038  0.00  0.00    +0.000 A 
ATOM     31  N   UNL     1       1.196   8.368  21.297  0.00  0.00    +0.000 NA
ATOM     32  H   UNL     1       1.386   9.520  18.285  0.00  0.00    +0.000 HD
ENDBRANCH  23  30
ENDBRANCH  22  23
ENDBRANCH   1  22
TORSDOF 5
ENDMDL
