MODEL 1
REMARK VINA RESULT:      -8.5      0.000      0.000
REMARK  Name = 
REMARK  3 active torsions:
REMARK  status: ('A' for Active; 'I' for Inactive)
REMARK    1  A    between atoms: C_5  and  C_6
REMARK    2  A    between atoms: C_9  and  C_10
REMARK    3  A    between atoms: N_23  and  C_24
REMARK                            x       y       z     vdW  Elec       q    Type
REMARK                         _______ _______ _______ _____ _____    ______ ____
ROOT
ATOM      1  C   UNL     1       1.354   8.942  18.981  0.00  0.00    +0.000 A 
ATOM      2  N   UNL     1       1.073   8.679  20.265  0.00  0.00    +0.000 NA
ATOM      3  O   UNL     1       1.800   7.509  20.517  0.00  0.00    +0.000 OA
ATOM      4  C   UNL     1       2.450   7.198  19.357  0.00  0.00    +0.000 A 
ATOM      5  N   UNL     1       2.231   8.069  18.400  0.00  0.00    +0.000 NA
ENDROOT
BRANCH   4   6
ATOM      6  C   UNL     1       3.227   5.974  19.298  0.00  0.00    +0.000 A 
ATOM      7  C   UNL     1       4.326   5.899  18.417  0.00  0.00    +0.000 A 
ATOM      8  C   UNL     1       5.090   4.721  18.290  0.00  0.00    +0.000 A 
ATOM      9 BR   UNL     1       6.544   4.696  17.080  0.00  0.00    +0.000 Br
ATOM     10  C   UNL     1       4.792   3.577  19.029  0.00  0.00    +0.000 A 
ATOM     11  C   UNL     1       3.718   3.668  19.884  0.00  0.00    +0.000 A 
ATOM     12  N   UNL     1       3.189   2.696  20.725  0.00  0.00    +0.000 N 
ATOM     13  C   UNL     1       2.086   3.233  21.401  0.00  0.00    +0.000 A 
ATOM     14  O   UNL     1       1.381   2.662  22.211  0.00  0.00    +0.000 OA
ATOM     15  N   UNL     1       1.952   4.555  20.960  0.00  0.00    +0.000 N 
ATOM     16  C   UNL     1       2.953   4.830  20.023  0.00  0.00    +0.000 A 
ATOM     17  H   UNL     1       3.510   1.749  20.847  0.00  0.00    +0.000 HD
ATOM     18  H   UNL     1       1.226   5.176  21.282  0.00  0.00    +0.000 HD
ENDBRANCH   4   6
BRANCH   1  23
ATOM     19  O   UNL     1       1.644  12.910  21.047  0.00  0.00    +0.000 OA
ATOM     20  C   UNL     1       1.271  12.147  20.153  0.00  0.00    +0.000 C 
ATOM     21  C   UNL     1       2.239  11.847  19.023  0.00  0.00    +0.000 C 
ATOM     22  C   UNL     1       1.661  11.147  17.804  0.00  0.00    +0.000 C 
ATOM     23  C   UNL     1       0.690  10.040  18.208  0.00  0.00    +0.000 C 
ATOM     24  C   UNL     1      -0.444  10.722  18.987  0.00  0.00    +0.000 C 
ATOM     25  N   UNL     1       0.026  11.520  20.127  0.00  0.00    +0.000 N 
BRANCH  25  26
ATOM     26  C   UNL     1      -0.895  11.746  21.192  0.00  0.00    +0.000 A 
ATOM     27  C   UNL     1      -0.814  11.006  22.377  0.00  0.00    +0.000 A 
ATOM     28  C   UNL     1      -1.768  11.185  23.384  0.00  0.00    +0.000 A 
ATOM     29  C   UNL     1      -2.774  12.139  23.235  0.00  0.00    +0.000 A 
ATOM     30  C   UNL     1      -2.833  12.913  22.079  0.00  0.00    +0.000 A 
ATOM     31  C   UNL     1      -1.906  12.707  21.055  0.00  0.00    +0.000 A 
ENDBRANCH  25  26
ENDBRANCH   1  23
TORSDOF 3
ENDMDL
MODEL 2
REMARK VINA RESULT:      -8.4      0.828      1.234
REMARK  Name = 
REMARK  3 active torsions:
REMARK  status: ('A' for Active; 'I' for Inactive)
REMARK    1  A    between atoms: C_5  and  C_6
REMARK    2  A    between atoms: C_9  and  C_10
REMARK    3  A    between atoms: N_23  and  C_24
REMARK                            x       y       z     vdW  Elec       q    Type
REMARK                         _______ _______ _______ _____ _____    ______ ____
ROOT
ATOM      1  C   UNL     1       1.280   9.687  18.810  0.00  0.00    +0.000 A 
ATOM      2  N   UNL     1       0.962   9.249  20.037  0.00  0.00    +0.000 NA
ATOM      3  O   UNL     1       1.632   8.023  20.122  0.00  0.00    +0.000 OA
ATOM      4  C   UNL     1       2.290   7.857  18.936  0.00  0.00    +0.000 A 
ATOM      5  N   UNL     1       2.129   8.870  18.117  0.00  0.00    +0.000 NA
ENDROOT
BRANCH   4   6
ATOM      6  C   UNL     1       3.013   6.620  18.706  0.00  0.00    +0.000 A 
ATOM      7  C   UNL     1       3.819   6.500  17.555  0.00  0.00    +0.000 A 
ATOM      8  C   UNL     1       4.510   5.307  17.260  0.00  0.00    +0.000 A 
ATOM      9 BR   UNL     1       5.565   5.219  15.691  0.00  0.00    +0.000 Br
ATOM     10  C   UNL     1       4.428   4.193  18.095  0.00  0.00    +0.000 A 
ATOM     11  C   UNL     1       3.639   4.328  19.214  0.00  0.00    +0.000 A 
ATOM     12  N   UNL     1       3.364   3.393  20.205  0.00  0.00    +0.000 N 
ATOM     13  C   UNL     1       2.499   3.969  21.143  0.00  0.00    +0.000 A 
ATOM     14  O   UNL     1       2.048   3.436  22.139  0.00  0.00    +0.000 OA
ATOM     15  N   UNL     1       2.252   5.278  20.710  0.00  0.00    +0.000 N 
ATOM     16  C   UNL     1       2.950   5.506  19.519  0.00  0.00    +0.000 A 
ATOM     17  H   UNL     1       3.702   2.446  20.266  0.00  0.00    +0.000 HD
ATOM     18  H   UNL     1       1.649   5.920  21.201  0.00  0.00    +0.000 HD
ENDBRANCH   4   6
BRANCH   1  23
ATOM     19  O   UNL     1       1.444  13.218  21.567  0.00  0.00    +0.000 OA
ATOM     20  C   UNL     1       1.132  12.634  20.527  0.00  0.00    +0.000 C 
ATOM     21  C   UNL     1       2.178  12.521  19.432  0.00  0.00    +0.000 C 
ATOM     22  C   UNL     1       1.685  12.060  18.071  0.00  0.00    +0.000 C 
ATOM     23  C   UNL     1       0.681  10.917  18.201  0.00  0.00    +0.000 C 
ATOM     24  C   UNL     1      -0.502  11.471  19.007  0.00  0.00    +0.000 C 
ATOM     25  N   UNL     1      -0.111  12.045  20.301  0.00  0.00    +0.000 N 
BRANCH  25  26
ATOM     26  C   UNL     1      -1.106  12.096  21.322  0.00  0.00    +0.000 A 
ATOM     27  C   UNL     1      -2.158  13.015  21.251  0.00  0.00    +0.000 A 
ATOM     28  C   UNL     1      -3.085  13.106  22.295  0.00  0.00    +0.000 A 
ATOM     29  C   UNL     1      -2.995  12.244  23.389  0.00  0.00    +0.000 A 
ATOM     30  C   UNL     1      -1.978  11.295  23.444  0.00  0.00    +0.000 A 
ATOM     31  C   UNL     1      -1.029  11.232  22.422  0.00  0.00    +0.000 A 
ENDBRANCH  25  26
ENDBRANCH   1  23
TORSDOF 3
ENDMDL
MODEL 3
REMARK VINA RESULT:      -8.4      1.938      3.391
REMARK  Name = 
REMARK  3 active torsions:
REMARK  status: ('A' for Active; 'I' for Inactive)
REMARK    1  A    between atoms: C_5  and  C_6
REMARK    2  A    between atoms: C_9  and  C_10
REMARK    3  A    between atoms: N_23  and  C_24
REMARK                            x       y       z     vdW  Elec       q    Type
REMARK                         _______ _______ _______ _____ _____    ______ ____
ROOT
ATOM      1  C   UNL     1       1.356   9.305  19.709  0.00  0.00    +0.000 A 
ATOM      2  N   UNL     1       1.795   9.753  18.524  0.00  0.00    +0.000 NA
ATOM      3  O   UNL     1       2.480   8.650  18.000  0.00  0.00    +0.000 OA
ATOM      4  C   UNL     1       2.373   7.651  18.926  0.00  0.00    +0.000 A 
ATOM      5  N   UNL     1       1.662   7.999  19.973  0.00  0.00    +0.000 NA
ENDROOT
BRANCH   4   6
ATOM      6  C   UNL     1       3.064   6.398  18.685  0.00  0.00    +0.000 A 
ATOM      7  C   UNL     1       3.833   6.252  17.512  0.00  0.00    +0.000 A 
ATOM      8  C   UNL     1       4.491   5.043  17.208  0.00  0.00    +0.000 A 
ATOM      9 BR   UNL     1       5.498   4.921  15.610  0.00  0.00    +0.000 Br
ATOM     10  C   UNL     1       4.410   3.938  18.054  0.00  0.00    +0.000 A 
ATOM     11  C   UNL     1       3.657   4.098  19.194  0.00  0.00    +0.000 A 
ATOM     12  N   UNL     1       3.392   3.176  20.201  0.00  0.00    +0.000 N 
ATOM     13  C   UNL     1       2.566   3.777  21.159  0.00  0.00    +0.000 A 
ATOM     14  O   UNL     1       2.134   3.261  22.172  0.00  0.00    +0.000 OA
ATOM     15  N   UNL     1       2.333   5.087  20.721  0.00  0.00    +0.000 N 
ATOM     16  C   UNL     1       3.001   5.291  19.509  0.00  0.00    +0.000 A 
ATOM     17  H   UNL     1       3.712   2.223  20.259  0.00  0.00    +0.000 HD
ATOM     18  H   UNL     1       1.758   5.745  21.224  0.00  0.00    +0.000 HD
ENDBRANCH   4   6
BRANCH   1  23
ATOM     19  O   UNL     1      -1.006  12.591  17.780  0.00  0.00    +0.000 OA
ATOM     20  C   UNL     1      -0.538  11.975  18.740  0.00  0.00    +0.000 C 
ATOM     21  C   UNL     1      -1.277  10.739  19.222  0.00  0.00    +0.000 C 
ATOM     22  C   UNL     1      -0.847  10.174  20.565  0.00  0.00    +0.000 C 
ATOM     23  C   UNL     1       0.673  10.184  20.711  0.00  0.00    +0.000 C 
ATOM     24  C   UNL     1       1.108  11.653  20.617  0.00  0.00    +0.000 C 
ATOM     25  N   UNL     1       0.641  12.324  19.396  0.00  0.00    +0.000 N 
BRANCH  25  26
ATOM     26  C   UNL     1       1.384  13.456  18.946  0.00  0.00    +0.000 A 
ATOM     27  C   UNL     1       2.556  13.292  18.200  0.00  0.00    +0.000 A 
ATOM     28  C   UNL     1       3.315  14.406  17.828  0.00  0.00    +0.000 A 
ATOM     29  C   UNL     1       2.880  15.691  18.154  0.00  0.00    +0.000 A 
ATOM     30  C   UNL     1       1.690  15.864  18.856  0.00  0.00    +0.000 A 
ATOM     31  C   UNL     1       0.953  14.751  19.262  0.00  0.00    +0.000 A 
ENDBRANCH  25  26
ENDBRANCH   1  23
TORSDOF 3
ENDMDL
MODEL 4
REMARK VINA RESULT:      -8.4      2.512      3.600
REMARK  Name = 
REMARK  3 active torsions:
REMARK  status: ('A' for Active; 'I' for Inactive)
REMARK    1  A    between atoms: C_5  and  C_6
REMARK    2  A    between atoms: C_9  and  C_10
REMARK    3  A    between atoms: N_23  and  C_24
REMARK                            x       y       z     vdW  Elec       q    Type
REMARK                         _______ _______ _______ _____ _____    ______ ____
ROOT
ATOM      1  C   UNL     1       1.515   9.079  19.242  0.00  0.00    +0.000 A 
ATOM      2  N   UNL     1       1.910   9.676  18.108  0.00  0.00    +0.000 NA
ATOM      3  O   UNL     1       2.594   8.656  17.434  0.00  0.00    +0.000 OA
ATOM      4  C   UNL     1       2.530   7.551  18.233  0.00  0.00    +0.000 A 
ATOM      5  N   UNL     1       1.848   7.757  19.336  0.00  0.00    +0.000 NA
ENDROOT
BRANCH   4   6
ATOM      6  C   UNL     1       3.231   6.349  17.821  0.00  0.00    +0.000 A 
ATOM      7  C   UNL     1       4.520   6.463  17.261  0.00  0.00    +0.000 A 
ATOM      8  C   UNL     1       5.228   5.332  16.806  0.00  0.00    +0.000 A 
ATOM      9 BR   UNL     1       6.950   5.567  16.057  0.00  0.00    +0.000 Br
ATOM     10  C   UNL     1       4.685   4.051  16.890  0.00  0.00    +0.000 A 
ATOM     11  C   UNL     1       3.428   3.957  17.440  0.00  0.00    +0.000 A 
ATOM     12  N   UNL     1       2.644   2.826  17.637  0.00  0.00    +0.000 N 
ATOM     13  C   UNL     1       1.430   3.213  18.218  0.00  0.00    +0.000 A 
ATOM     14  O   UNL     1       0.506   2.483  18.523  0.00  0.00    +0.000 OA
ATOM     15  N   UNL     1       1.487   4.603  18.378  0.00  0.00    +0.000 N 
ATOM     16  C   UNL     1       2.715   5.069  17.898  0.00  0.00    +0.000 A 
ATOM     17  H   UNL     1       2.872   1.874  17.403  0.00  0.00    +0.000 HD
ATOM     18  H   UNL     1       0.733   5.147  18.769  0.00  0.00    +0.000 HD
ENDBRANCH   4   6
BRANCH   1  23
ATOM     19  O   UNL     1      -1.135  12.389  17.786  0.00  0.00    +0.000 OA
ATOM     20  C   UNL     1      -0.574  11.714  18.652  0.00  0.00    +0.000 C 
ATOM     21  C   UNL     1      -1.215  10.396  19.052  0.00  0.00    +0.000 C 
ATOM     22  C   UNL     1      -0.672   9.733  20.306  0.00  0.00    +0.000 C 
ATOM     23  C   UNL     1       0.852   9.818  20.364  0.00  0.00    +0.000 C 
ATOM     24  C   UNL     1       1.202  11.312  20.389  0.00  0.00    +0.000 C 
ATOM     25  N   UNL     1       0.624  12.068  19.269  0.00  0.00    +0.000 N 
BRANCH  25  26
ATOM     26  C   UNL     1       1.276  13.278  18.890  0.00  0.00    +0.000 A 
ATOM     27  C   UNL     1       2.476  13.250  18.171  0.00  0.00    +0.000 A 
ATOM     28  C   UNL     1       3.143  14.442  17.869  0.00  0.00    +0.000 A 
ATOM     29  C   UNL     1       2.590  15.668  18.239  0.00  0.00    +0.000 A 
ATOM     30  C   UNL     1       1.372  15.706  18.913  0.00  0.00    +0.000 A 
ATOM     31  C   UNL     1       0.726  14.516  19.250  0.00  0.00    +0.000 A 
ENDBRANCH  25  26
ENDBRANCH   1  23
TORSDOF 3
ENDMDL
MODEL 5
REMARK VINA RESULT:      -8.3      3.075      4.499
REMARK  Name = 
REMARK  3 active torsions:
REMARK  status: ('A' for Active; 'I' for Inactive)
REMARK    1  A    between atoms: C_5  and  C_6
REMARK    2  A    between atoms: C_9  and  C_10
REMARK    3  A    between atoms: N_23  and  C_24
REMARK                            x       y       z     vdW  Elec       q    Type
REMARK                         _______ _______ _______ _____ _____    ______ ____
ROOT
ATOM      1  C   UNL     1       1.504   9.171  19.300  0.00  0.00    +0.000 A 
ATOM      2  N   UNL     1       1.979   9.741  18.184  0.00  0.00    +0.000 NA
ATOM      3  O   UNL     1       2.655   8.691  17.552  0.00  0.00    +0.000 OA
ATOM      4  C   UNL     1       2.507   7.595  18.354  0.00  0.00    +0.000 A 
ATOM      5  N   UNL     1       1.779   7.837  19.419  0.00  0.00    +0.000 NA
ENDROOT
BRANCH   4   6
ATOM      6  C   UNL     1       3.180   6.363  17.985  0.00  0.00    +0.000 A 
ATOM      7  C   UNL     1       2.486   5.141  18.100  0.00  0.00    +0.000 A 
ATOM      8  C   UNL     1       3.104   3.911  17.795  0.00  0.00    +0.000 A 
ATOM      9 BR   UNL     1       2.110   2.312  17.981  0.00  0.00    +0.000 Br
ATOM     10  C   UNL     1       4.430   3.849  17.367  0.00  0.00    +0.000 A 
ATOM     11  C   UNL     1       5.092   5.051  17.260  0.00  0.00    +0.000 A 
ATOM     12  N   UNL     1       6.405   5.292  16.875  0.00  0.00    +0.000 N 
ATOM     13  C   UNL     1       6.647   6.670  16.926  0.00  0.00    +0.000 A 
ATOM     14  O   UNL     1       7.690   7.235  16.659  0.00  0.00    +0.000 OA
ATOM     15  N   UNL     1       5.453   7.270  17.346  0.00  0.00    +0.000 N 
ATOM     16  C   UNL     1       4.490   6.278  17.556  0.00  0.00    +0.000 A 
ATOM     17  H   UNL     1       7.101   4.613  16.609  0.00  0.00    +0.000 HD
ATOM     18  H   UNL     1       5.349   8.265  17.477  0.00  0.00    +0.000 HD
ENDBRANCH   4   6
BRANCH   1  23
ATOM     19  O   UNL     1      -1.071  12.463  17.680  0.00  0.00    +0.000 OA
ATOM     20  C   UNL     1      -0.543  11.806  18.580  0.00  0.00    +0.000 C 
ATOM     21  C   UNL     1      -1.207  10.505  18.995  0.00  0.00    +0.000 C 
ATOM     22  C   UNL     1      -0.707   9.870  20.281  0.00  0.00    +0.000 C 
ATOM     23  C   UNL     1       0.815   9.944  20.382  0.00  0.00    +0.000 C 
ATOM     24  C   UNL     1       1.177  11.435  20.379  0.00  0.00    +0.000 C 
ATOM     25  N   UNL     1       0.640  12.166  19.223  0.00  0.00    +0.000 N 
BRANCH  25  26
ATOM     26  C   UNL     1       1.313  13.360  18.832  0.00  0.00    +0.000 A 
ATOM     27  C   UNL     1       2.524  13.304  18.133  0.00  0.00    +0.000 A 
ATOM     28  C   UNL     1       3.212  14.480  17.821  0.00  0.00    +0.000 A 
ATOM     29  C   UNL     1       2.670  15.720  18.158  0.00  0.00    +0.000 A 
ATOM     30  C   UNL     1       1.442  15.786  18.813  0.00  0.00    +0.000 A 
ATOM     31  C   UNL     1       0.774  14.611  19.161  0.00  0.00    +0.000 A 
ENDBRANCH  25  26
ENDBRANCH   1  23
TORSDOF 3
ENDMDL
MODEL 6
REMARK VINA RESULT:      -8.3      2.227      2.940
REMARK  Name = 
REMARK  3 active torsions:
REMARK  status: ('A' for Active; 'I' for Inactive)
REMARK    1  A    between atoms: C_5  and  C_6
REMARK    2  A    between atoms: C_9  and  C_10
REMARK    3  A    between atoms: N_23  and  C_24
REMARK                            x       y       z     vdW  Elec       q    Type
REMARK                         _______ _______ _______ _____ _____    ______ ____
ROOT
ATOM      1  C   UNL     1       0.977   9.907  19.226  0.00  0.00    +0.000 A 
ATOM      2  N   UNL     1       0.604   9.594  20.475  0.00  0.00    +0.000 NA
ATOM      3  O   UNL     1       1.164   8.325  20.667  0.00  0.00    +0.000 OA
ATOM      4  C   UNL     1       1.823   8.014  19.512  0.00  0.00    +0.000 A 
ATOM      5  N   UNL     1       1.763   8.970  18.616  0.00  0.00    +0.000 NA
ENDROOT
BRANCH   4   6
ATOM      6  C   UNL     1       2.441   6.706  19.391  0.00  0.00    +0.000 A 
ATOM      7  C   UNL     1       2.082   5.689  20.300  0.00  0.00    +0.000 A 
ATOM      8  C   UNL     1       2.681   4.414  20.253  0.00  0.00    +0.000 A 
ATOM      9 BR   UNL     1       2.153   3.105  21.513  0.00  0.00    +0.000 Br
ATOM     10  C   UNL     1       3.656   4.102  19.307  0.00  0.00    +0.000 A 
ATOM     11  C   UNL     1       3.993   5.104  18.427  0.00  0.00    +0.000 A 
ATOM     12  N   UNL     1       4.928   5.084  17.399  0.00  0.00    +0.000 N 
ATOM     13  C   UNL     1       4.942   6.337  16.774  0.00  0.00    +0.000 A 
ATOM     14  O   UNL     1       5.643   6.675  15.839  0.00  0.00    +0.000 OA
ATOM     15  N   UNL     1       3.993   7.125  17.437  0.00  0.00    +0.000 N 
ATOM     16  C   UNL     1       3.406   6.372  18.459  0.00  0.00    +0.000 A 
ATOM     17  H   UNL     1       5.524   4.319  17.126  0.00  0.00    +0.000 HD
ATOM     18  H   UNL     1       3.802   8.085  17.194  0.00  0.00    +0.000 HD
ENDBRANCH   4   6
BRANCH   1  23
ATOM     19  O   UNL     1       1.031  13.545  21.845  0.00  0.00    +0.000 OA
ATOM     20  C   UNL     1       0.795  12.929  20.804  0.00  0.00    +0.000 C 
ATOM     21  C   UNL     1       1.936  12.727  19.822  0.00  0.00    +0.000 C 
ATOM     22  C   UNL     1       1.557  12.227  18.438  0.00  0.00    +0.000 C 
ATOM     23  C   UNL     1       0.494  11.133  18.514  0.00  0.00    +0.000 C 
ATOM     24  C   UNL     1      -0.735  11.769  19.177  0.00  0.00    +0.000 C 
ATOM     25  N   UNL     1      -0.446  12.383  20.480  0.00  0.00    +0.000 N 
BRANCH  25  26
ATOM     26  C   UNL     1      -1.531  12.518  21.396  0.00  0.00    +0.000 A 
ATOM     27  C   UNL     1      -1.552  11.793  22.592  0.00  0.00    +0.000 A 
ATOM     28  C   UNL     1      -2.656  11.878  23.447  0.00  0.00    +0.000 A 
ATOM     29  C   UNL     1      -3.719  12.726  23.137  0.00  0.00    +0.000 A 
ATOM     30  C   UNL     1      -3.684  13.486  21.970  0.00  0.00    +0.000 A 
ATOM     31  C   UNL     1      -2.601  13.371  21.097  0.00  0.00    +0.000 A 
ENDBRANCH  25  26
ENDBRANCH   1  23
TORSDOF 3
ENDMDL
MODEL 7
REMARK VINA RESULT:      -8.1      2.750      4.488
REMARK  Name = 
REMARK  3 active torsions:
REMARK  status: ('A' for Active; 'I' for Inactive)
REMARK    1  A    between atoms: C_5  and  C_6
REMARK    2  A    between atoms: C_9  and  C_10
REMARK    3  A    between atoms: N_23  and  C_24
REMARK                            x       y       z     vdW  Elec       q    Type
REMARK                         _______ _______ _______ _____ _____    ______ ____
ROOT
ATOM      1  C   UNL     1       1.107   9.755  20.070  0.00  0.00    +0.000 A 
ATOM      2  N   UNL     1       1.518  10.031  18.824  0.00  0.00    +0.000 NA
ATOM      3  O   UNL     1       2.086   8.823  18.401  0.00  0.00    +0.000 OA
ATOM      4  C   UNL     1       1.947   7.945  19.437  0.00  0.00    +0.000 A 
ATOM      5  N   UNL     1       1.322   8.465  20.467  0.00  0.00    +0.000 NA
ENDROOT
BRANCH   4   6
ATOM      6  C   UNL     1       2.523   6.619  19.311  0.00  0.00    +0.000 A 
ATOM      7  C   UNL     1       2.145   5.615  20.226  0.00  0.00    +0.000 A 
ATOM      8  C   UNL     1       2.703   4.322  20.175  0.00  0.00    +0.000 A 
ATOM      9 BR   UNL     1       2.151   3.031  21.444  0.00  0.00    +0.000 Br
ATOM     10  C   UNL     1       3.656   3.978  19.217  0.00  0.00    +0.000 A 
ATOM     11  C   UNL     1       4.013   4.969  18.331  0.00  0.00    +0.000 A 
ATOM     12  N   UNL     1       4.934   4.918  17.292  0.00  0.00    +0.000 N 
ATOM     13  C   UNL     1       4.979   6.169  16.664  0.00  0.00    +0.000 A 
ATOM     14  O   UNL     1       5.678   6.484  15.720  0.00  0.00    +0.000 OA
ATOM     15  N   UNL     1       4.063   6.987  17.338  0.00  0.00    +0.000 N 
ATOM     16  C   UNL     1       3.465   6.254  18.369  0.00  0.00    +0.000 A 
ATOM     17  H   UNL     1       5.503   4.134  17.013  0.00  0.00    +0.000 HD
ATOM     18  H   UNL     1       3.898   7.952  17.095  0.00  0.00    +0.000 HD
ENDBRANCH   4   6
BRANCH   1  23
ATOM     19  O   UNL     1      -0.887  13.114  17.871  0.00  0.00    +0.000 OA
ATOM     20  C   UNL     1      -0.478  12.534  18.879  0.00  0.00    +0.000 C 
ATOM     21  C   UNL     1      -1.348  11.441  19.475  0.00  0.00    +0.000 C 
ATOM     22  C   UNL     1      -0.964  10.950  20.860  0.00  0.00    +0.000 C 
ATOM     23  C   UNL     1       0.550  10.793  20.994  0.00  0.00    +0.000 C 
ATOM     24  C   UNL     1       1.151  12.187  20.766  0.00  0.00    +0.000 C 
ATOM     25  N   UNL     1       0.746  12.798  19.493  0.00  0.00    +0.000 N 
BRANCH  25  26
ATOM     26  C   UNL     1       1.607  13.790  18.939  0.00  0.00    +0.000 A 
ATOM     27  C   UNL     1       2.806  13.428  18.314  0.00  0.00    +0.000 A 
ATOM     28  C   UNL     1       3.678  14.414  17.841  0.00  0.00    +0.000 A 
ATOM     29  C   UNL     1       3.333  15.762  17.941  0.00  0.00    +0.000 A 
ATOM     30  C   UNL     1       2.120  16.127  18.519  0.00  0.00    +0.000 A 
ATOM     31  C   UNL     1       1.268  15.146  19.029  0.00  0.00    +0.000 A 
ENDBRANCH  25  26
ENDBRANCH   1  23
TORSDOF 3
ENDMDL
MODEL 8
REMARK VINA RESULT:      -8.0      3.220      7.631
REMARK  Name = 
REMARK  3 active torsions:
REMARK  status: ('A' for Active; 'I' for Inactive)
REMARK    1  A    between atoms: C_5  and  C_6
REMARK    2  A    between atoms: C_9  and  C_10
REMARK    3  A    between atoms: N_23  and  C_24
REMARK                            x       y       z     vdW  Elec       q    Type
REMARK                         _______ _______ _______ _____ _____    ______ ____
ROOT
ATOM      1  C   UNL     1       4.184   7.079  17.690  0.00  0.00    +0.000 A 
ATOM      2  N   UNL     1       4.001   7.715  16.524  0.00  0.00    +0.000 NA
ATOM      3  O   UNL     1       2.877   8.513  16.769  0.00  0.00    +0.000 OA
ATOM      4  C   UNL     1       2.508   8.276  18.063  0.00  0.00    +0.000 A 
ATOM      5  N   UNL     1       3.303   7.430  18.674  0.00  0.00    +0.000 NA
ENDROOT
BRANCH   4   6
ATOM      6  C   UNL     1       1.309   8.914  18.576  0.00  0.00    +0.000 A 
ATOM      7  C   UNL     1       0.327   9.361  17.668  0.00  0.00    +0.000 A 
ATOM      8  C   UNL     1      -0.837  10.023  18.108  0.00  0.00    +0.000 A 
ATOM      9 BR   UNL     1      -2.106  10.600  16.829  0.00  0.00    +0.000 Br
ATOM     10  C   UNL     1      -1.068  10.266  19.462  0.00  0.00    +0.000 A 
ATOM     11  C   UNL     1      -0.100   9.823  20.334  0.00  0.00    +0.000 A 
ATOM     12  N   UNL     1      -0.056   9.936  21.718  0.00  0.00    +0.000 N 
ATOM     13  C   UNL     1       1.128   9.350  22.183  0.00  0.00    +0.000 A 
ATOM     14  O   UNL     1       1.496   9.274  23.340  0.00  0.00    +0.000 OA
ATOM     15  N   UNL     1       1.808   8.873  21.055  0.00  0.00    +0.000 N 
ATOM     16  C   UNL     1       1.058   9.163  19.911  0.00  0.00    +0.000 A 
ATOM     17  H   UNL     1      -0.737  10.370  22.321  0.00  0.00    +0.000 HD
ATOM     18  H   UNL     1       2.702   8.409  21.102  0.00  0.00    +0.000 HD
ENDBRANCH   4   6
BRANCH   1  23
ATOM     19  O   UNL     1       2.507   2.992  16.928  0.00  0.00    +0.000 OA
ATOM     20  C   UNL     1       3.389   3.787  17.262  0.00  0.00    +0.000 C 
ATOM     21  C   UNL     1       4.200   4.452  16.165  0.00  0.00    +0.000 C 
ATOM     22  C   UNL     1       5.452   5.194  16.603  0.00  0.00    +0.000 C 
ATOM     23  C   UNL     1       5.204   5.998  17.878  0.00  0.00    +0.000 C 
ATOM     24  C   UNL     1       4.810   4.983  18.960  0.00  0.00    +0.000 C 
ATOM     25  N   UNL     1       3.671   4.135  18.582  0.00  0.00    +0.000 N 
BRANCH  25  26
ATOM     26  C   UNL     1       2.903   3.561  19.637  0.00  0.00    +0.000 A 
ATOM     27  C   UNL     1       1.555   3.894  19.804  0.00  0.00    +0.000 A 
ATOM     28  C   UNL     1       0.832   3.382  20.887  0.00  0.00    +0.000 A 
ATOM     29  C   UNL     1       1.438   2.495  21.777  0.00  0.00    +0.000 A 
ATOM     30  C   UNL     1       2.766   2.122  21.590  0.00  0.00    +0.000 A 
ATOM     31  C   UNL     1       3.500   2.664  20.533  0.00  0.00    +0.000 A 
ENDBRANCH  25  26
ENDBRANCH   1  23
TORSDOF 3
ENDMDL
MODEL 9
REMARK VINA RESULT:      -7.9      2.171      2.970
REMARK  Name = 
REMARK  3 active torsions:
REMARK  status: ('A' for Active; 'I' for Inactive)
REMARK    1  A    between atoms: C_5  and  C_6
REMARK    2  A    between atoms: C_9  and  C_10
REMARK    3  A    between atoms: N_23  and  C_24
REMARK                            x       y       z     vdW  Elec       q    Type
REMARK                         _______ _______ _______ _____ _____    ______ ____
ROOT
ATOM      1  C   UNL     1       1.516   9.333  18.518  0.00  0.00    +0.000 A 
ATOM      2  N   UNL     1       1.344   8.959  19.793  0.00  0.00    +0.000 NA
ATOM      3  O   UNL     1       1.967   7.705  19.845  0.00  0.00    +0.000 OA
ATOM      4  C   UNL     1       2.456   7.464  18.593  0.00  0.00    +0.000 A 
ATOM      5  N   UNL     1       2.232   8.451  17.758  0.00  0.00    +0.000 NA
ENDROOT
BRANCH   4   6
ATOM      6  C   UNL     1       3.091   6.186  18.326  0.00  0.00    +0.000 A 
ATOM      7  C   UNL     1       2.405   4.997  18.649  0.00  0.00    +0.000 A 
ATOM      8  C   UNL     1       2.990   3.730  18.449  0.00  0.00    +0.000 A 
ATOM      9 BR   UNL     1       2.009   2.181  18.916  0.00  0.00    +0.000 Br
ATOM     10  C   UNL     1       4.274   3.597  17.923  0.00  0.00    +0.000 A 
ATOM     11  C   UNL     1       4.929   4.767  17.611  0.00  0.00    +0.000 A 
ATOM     12  N   UNL     1       6.205   4.939  17.090  0.00  0.00    +0.000 N 
ATOM     13  C   UNL     1       6.456   6.310  16.948  0.00  0.00    +0.000 A 
ATOM     14  O   UNL     1       7.475   6.822  16.527  0.00  0.00    +0.000 OA
ATOM     15  N   UNL     1       5.304   6.974  17.390  0.00  0.00    +0.000 N 
ATOM     16  C   UNL     1       4.359   6.029  17.802  0.00  0.00    +0.000 A 
ATOM     17  H   UNL     1       6.873   4.223  16.853  0.00  0.00    +0.000 HD
ATOM     18  H   UNL     1       5.215   7.979  17.404  0.00  0.00    +0.000 HD
ENDBRANCH   4   6
BRANCH   1  23
ATOM     19  O   UNL     1       1.948  12.896  21.203  0.00  0.00    +0.000 OA
ATOM     20  C   UNL     1       1.548  12.304  20.198  0.00  0.00    +0.000 C 
ATOM     21  C   UNL     1       2.507  12.158  19.030  0.00  0.00    +0.000 C 
ATOM     22  C   UNL     1       1.906  11.688  17.716  0.00  0.00    +0.000 C 
ATOM     23  C   UNL     1       0.894  10.566  17.938  0.00  0.00    +0.000 C 
ATOM     24  C   UNL     1      -0.215  11.152  18.822  0.00  0.00    +0.000 C 
ATOM     25  N   UNL     1       0.282  11.736  20.075  0.00  0.00    +0.000 N 
BRANCH  25  26
ATOM     26  C   UNL     1      -0.632  11.818  21.166  0.00  0.00    +0.000 A 
ATOM     27  C   UNL     1      -0.553  10.919  22.235  0.00  0.00    +0.000 A 
ATOM     28  C   UNL     1      -1.500  10.963  23.264  0.00  0.00    +0.000 A 
ATOM     29  C   UNL     1      -2.498  11.937  23.256  0.00  0.00    +0.000 A 
ATOM     30  C   UNL     1      -2.555  12.866  22.219  0.00  0.00    +0.000 A 
ATOM     31  C   UNL     1      -1.635  12.797  21.172  0.00  0.00    +0.000 A 
ENDBRANCH  25  26
ENDBRANCH   1  23
TORSDOF 3
ENDMDL
