MODEL 1
REMARK VINA RESULT:      -8.3      0.000      0.000
REMARK  Name = 
REMARK  6 active torsions:
REMARK  status: ('A' for Active; 'I' for Inactive)
REMARK    1  A    between atoms: C_2  and  C_20
REMARK    2  A    between atoms: N_3  and  C_4
REMARK    3  A    between atoms: C_4  and  C_5
REMARK    4  A    between atoms: C_9  and  C_10
REMARK    5  A    between atoms: N_12  and  C_13
REMARK    6  A    between atoms: C_24  and  C_25
REMARK                            x       y       z     vdW  Elec       q    Type
REMARK                         _______ _______ _______ _____ _____    ______ ____
ROOT
ATOM      1  C   UNL     1       0.939   9.778  18.471  0.00  0.00    +0.000 A 
ATOM      2  C   UNL     1      -0.130   9.666  17.568  0.00  0.00    +0.000 A 
ATOM      3  C   UNL     1      -1.389  10.176  17.897  0.00  0.00    +0.000 A 
ATOM      4  C   UNL     1      -1.591  10.800  19.128  0.00  0.00    +0.000 A 
ATOM      5  C   UNL     1      -0.526  10.931  20.033  0.00  0.00    +0.000 A 
ATOM      6  C   UNL     1       0.733  10.431  19.696  0.00  0.00    +0.000 A 
ENDROOT
BRANCH   5   7
ATOM      7  C   UNL     1      -0.779  11.538  21.367  0.00  0.00    +0.000 C 
ATOM      8  O   UNL     1       0.059  11.353  22.246  0.00  0.00    +0.000 OA
ATOM      9  N   UNL     1      -1.978  12.223  21.505  0.00  0.00    +0.000 N 
ATOM     10  H   UNL     1      -2.655  12.129  20.756  0.00  0.00    +0.000 HD
BRANCH   9  11
ATOM     11  C   UNL     1      -2.425  12.862  22.683  0.00  0.00    +0.000 A 
ATOM     12  C   UNL     1      -3.340  12.285  23.560  0.00  0.00    +0.000 A 
ATOM     13  C   UNL     1      -3.774  13.023  24.648  0.00  0.00    +0.000 A 
ATOM     14  N   UNL     1      -3.357  14.277  24.920  0.00  0.00    +0.000 NA
ATOM     15  C   UNL     1      -2.448  14.804  24.075  0.00  0.00    +0.000 A 
ATOM     16  C   UNL     1      -1.940  14.138  22.969  0.00  0.00    +0.000 A 
ENDBRANCH   9  11
ENDBRANCH   5   7
BRANCH   1  17
ATOM     17  C   UNL     1       2.292   9.201  18.151  0.00  0.00    +0.000 C 
BRANCH  17  20
ATOM     18  O   UNL     1       4.440   7.530  17.414  0.00  0.00    +0.000 OA
ATOM     19  C   UNL     1       3.370   7.029  17.735  0.00  0.00    +0.000 C 
ATOM     20  N   UNL     1       2.259   7.759  18.101  0.00  0.00    +0.000 N 
ATOM     21  H   UNL     1       1.470   7.294  18.528  0.00  0.00    +0.000 HD
BRANCH  19  22
ATOM     22  C   UNL     1       3.226   5.551  17.800  0.00  0.00    +0.000 A 
ATOM     23  C   UNL     1       4.189   4.763  17.160  0.00  0.00    +0.000 A 
ATOM     24  C   UNL     1       4.112   3.372  17.229  0.00  0.00    +0.000 A 
ATOM     25  C   UNL     1       3.080   2.765  17.945  0.00  0.00    +0.000 A 
ATOM     26  C   UNL     1       2.106   3.540  18.593  0.00  0.00    +0.000 A 
ATOM     27  C   UNL     1       2.170   4.942  18.489  0.00  0.00    +0.000 A 
BRANCH  26  28
ATOM     28  C   UNL     1       1.029   2.892  19.430  0.00  0.00    +0.000 C 
ATOM     29  F   UNL     1       0.143   2.158  18.705  0.00  0.00    +0.000 F 
ATOM     30  F   UNL     1       1.555   2.037  20.353  0.00  0.00    +0.000 F 
ATOM     31  F   UNL     1       0.292   3.793  20.133  0.00  0.00    +0.000 F 
ENDBRANCH  26  28
ENDBRANCH  19  22
ENDBRANCH  17  20
ENDBRANCH   1  17
TORSDOF 6
ENDMDL
MODEL 2
REMARK VINA RESULT:      -8.2      2.824      3.280
REMARK  Name = 
REMARK  6 active torsions:
REMARK  status: ('A' for Active; 'I' for Inactive)
REMARK    1  A    between atoms: C_2  and  C_20
REMARK    2  A    between atoms: N_3  and  C_4
REMARK    3  A    between atoms: C_4  and  C_5
REMARK    4  A    between atoms: C_9  and  C_10
REMARK    5  A    between atoms: N_12  and  C_13
REMARK    6  A    between atoms: C_24  and  C_25
REMARK                            x       y       z     vdW  Elec       q    Type
REMARK                         _______ _______ _______ _____ _____    ______ ____
ROOT
ATOM      1  C   UNL     1       1.068   8.961  20.106  0.00  0.00    +0.000 A 
ATOM      2  C   UNL     1       1.248   9.143  18.726  0.00  0.00    +0.000 A 
ATOM      3  C   UNL     1       0.631  10.210  18.068  0.00  0.00    +0.000 A 
ATOM      4  C   UNL     1      -0.169  11.103  18.781  0.00  0.00    +0.000 A 
ATOM      5  C   UNL     1      -0.345  10.940  20.164  0.00  0.00    +0.000 A 
ATOM      6  C   UNL     1       0.283   9.879  20.820  0.00  0.00    +0.000 A 
ENDROOT
BRANCH   5   7
ATOM      7  C   UNL     1      -1.256  11.861  20.893  0.00  0.00    +0.000 C 
ATOM      8  O   UNL     1      -1.970  12.605  20.225  0.00  0.00    +0.000 OA
ATOM      9  N   UNL     1      -1.176  11.824  22.278  0.00  0.00    +0.000 N 
ATOM     10  H   UNL     1      -0.408  11.302  22.685  0.00  0.00    +0.000 HD
BRANCH   9  11
ATOM     11  C   UNL     1      -1.937  12.620  23.163  0.00  0.00    +0.000 A 
ATOM     12  C   UNL     1      -3.187  12.240  23.644  0.00  0.00    +0.000 A 
ATOM     13  C   UNL     1      -3.888  13.124  24.446  0.00  0.00    +0.000 A 
ATOM     14  N   UNL     1      -3.428  14.342  24.803  0.00  0.00    +0.000 NA
ATOM     15  C   UNL     1      -2.202  14.676  24.351  0.00  0.00    +0.000 A 
ATOM     16  C   UNL     1      -1.417  13.853  23.558  0.00  0.00    +0.000 A 
ENDBRANCH   9  11
ENDBRANCH   5   7
BRANCH   1  17
ATOM     17  C   UNL     1       1.693   7.795  20.826  0.00  0.00    +0.000 C 
BRANCH  17  20
ATOM     18  O   UNL     1       1.379   5.030  20.370  0.00  0.00    +0.000 OA
ATOM     19  C   UNL     1       2.258   5.643  19.778  0.00  0.00    +0.000 C 
ATOM     20  N   UNL     1       2.498   6.991  19.940  0.00  0.00    +0.000 N 
ATOM     21  H   UNL     1       3.109   7.474  19.296  0.00  0.00    +0.000 HD
BRANCH  19  22
ATOM     22  C   UNL     1       3.109   4.947  18.778  0.00  0.00    +0.000 A 
ATOM     23  C   UNL     1       3.112   3.548  18.769  0.00  0.00    +0.000 A 
ATOM     24  C   UNL     1       3.867   2.856  17.822  0.00  0.00    +0.000 A 
ATOM     25  C   UNL     1       4.612   3.560  16.875  0.00  0.00    +0.000 A 
ATOM     26  C   UNL     1       4.621   4.962  16.869  0.00  0.00    +0.000 A 
ATOM     27  C   UNL     1       3.885   5.653  17.850  0.00  0.00    +0.000 A 
BRANCH  26  28
ATOM     28  C   UNL     1       5.365   5.729  15.802  0.00  0.00    +0.000 C 
ATOM     29  F   UNL     1       5.343   5.127  14.582  0.00  0.00    +0.000 F 
ATOM     30  F   UNL     1       4.837   6.972  15.614  0.00  0.00    +0.000 F 
ATOM     31  F   UNL     1       6.676   5.923  16.107  0.00  0.00    +0.000 F 
ENDBRANCH  26  28
ENDBRANCH  19  22
ENDBRANCH  17  20
ENDBRANCH   1  17
TORSDOF 6
ENDMDL
MODEL 3
REMARK VINA RESULT:      -8.2      2.972      3.591
REMARK  Name = 
REMARK  6 active torsions:
REMARK  status: ('A' for Active; 'I' for Inactive)
REMARK    1  A    between atoms: C_2  and  C_20
REMARK    2  A    between atoms: N_3  and  C_4
REMARK    3  A    between atoms: C_4  and  C_5
REMARK    4  A    between atoms: C_9  and  C_10
REMARK    5  A    between atoms: N_12  and  C_13
REMARK    6  A    between atoms: C_24  and  C_25
REMARK                            x       y       z     vdW  Elec       q    Type
REMARK                         _______ _______ _______ _____ _____    ______ ____
ROOT
ATOM      1  C   UNL     1       0.984   8.978  20.066  0.00  0.00    +0.000 A 
ATOM      2  C   UNL     1       1.242   9.239  18.712  0.00  0.00    +0.000 A 
ATOM      3  C   UNL     1       0.666  10.346  18.083  0.00  0.00    +0.000 A 
ATOM      4  C   UNL     1      -0.171  11.200  18.800  0.00  0.00    +0.000 A 
ATOM      5  C   UNL     1      -0.426  10.958  20.160  0.00  0.00    +0.000 A 
ATOM      6  C   UNL     1       0.161   9.857  20.787  0.00  0.00    +0.000 A 
ENDROOT
BRANCH   5   7
ATOM      7  C   UNL     1      -1.376  11.839  20.888  0.00  0.00    +0.000 C 
ATOM      8  O   UNL     1      -2.287  12.352  20.244  0.00  0.00    +0.000 OA
ATOM      9  N   UNL     1      -1.108  12.038  22.236  0.00  0.00    +0.000 N 
ATOM     10  H   UNL     1      -0.215  11.707  22.585  0.00  0.00    +0.000 HD
BRANCH   9  11
ATOM     11  C   UNL     1      -1.868  12.845  23.111  0.00  0.00    +0.000 A 
ATOM     12  C   UNL     1      -1.417  14.067  23.602  0.00  0.00    +0.000 A 
ATOM     13  C   UNL     1      -2.205  14.748  24.516  0.00  0.00    +0.000 A 
ATOM     14  N   UNL     1      -3.398  14.300  24.960  0.00  0.00    +0.000 NA
ATOM     15  C   UNL     1      -3.828  13.129  24.448  0.00  0.00    +0.000 A 
ATOM     16  C   UNL     1      -3.120  12.383  23.516  0.00  0.00    +0.000 A 
ENDBRANCH   9  11
ENDBRANCH   5   7
BRANCH   1  17
ATOM     17  C   UNL     1       1.565   7.768  20.750  0.00  0.00    +0.000 C 
BRANCH  17  20
ATOM     18  O   UNL     1       1.923   4.982  20.509  0.00  0.00    +0.000 OA
ATOM     19  C   UNL     1       2.643   5.740  19.872  0.00  0.00    +0.000 C 
ATOM     20  N   UNL     1       2.555   7.114  19.929  0.00  0.00    +0.000 N 
ATOM     21  H   UNL     1       3.046   7.679  19.250  0.00  0.00    +0.000 HD
BRANCH  19  22
ATOM     22  C   UNL     1       3.654   5.193  18.929  0.00  0.00    +0.000 A 
ATOM     23  C   UNL     1       3.202   4.477  17.815  0.00  0.00    +0.000 A 
ATOM     24  C   UNL     1       4.114   3.980  16.885  0.00  0.00    +0.000 A 
ATOM     25  C   UNL     1       5.480   4.206  17.060  0.00  0.00    +0.000 A 
ATOM     26  C   UNL     1       5.952   4.923  18.170  0.00  0.00    +0.000 A 
ATOM     27  C   UNL     1       5.027   5.390  19.122  0.00  0.00    +0.000 A 
BRANCH  26  28
ATOM     28  C   UNL     1       7.421   5.235  18.326  0.00  0.00    +0.000 C 
ATOM     29  F   UNL     1       7.813   6.355  17.660  0.00  0.00    +0.000 F 
ATOM     30  F   UNL     1       7.757   5.441  19.631  0.00  0.00    +0.000 F 
ATOM     31  F   UNL     1       8.225   4.230  17.887  0.00  0.00    +0.000 F 
ENDBRANCH  26  28
ENDBRANCH  19  22
ENDBRANCH  17  20
ENDBRANCH   1  17
TORSDOF 6
ENDMDL
MODEL 4
REMARK VINA RESULT:      -8.2      2.813      3.386
REMARK  Name = 
REMARK  6 active torsions:
REMARK  status: ('A' for Active; 'I' for Inactive)
REMARK    1  A    between atoms: C_2  and  C_20
REMARK    2  A    between atoms: N_3  and  C_4
REMARK    3  A    between atoms: C_4  and  C_5
REMARK    4  A    between atoms: C_9  and  C_10
REMARK    5  A    between atoms: N_12  and  C_13
REMARK    6  A    between atoms: C_24  and  C_25
REMARK                            x       y       z     vdW  Elec       q    Type
REMARK                         _______ _______ _______ _____ _____    ______ ____
ROOT
ATOM      1  C   UNL     1       1.050   8.974  20.164  0.00  0.00    +0.000 A 
ATOM      2  C   UNL     1       1.324   9.218  18.809  0.00  0.00    +0.000 A 
ATOM      3  C   UNL     1       0.752  10.315  18.160  0.00  0.00    +0.000 A 
ATOM      4  C   UNL     1      -0.097  11.175  18.856  0.00  0.00    +0.000 A 
ATOM      5  C   UNL     1      -0.367  10.950  20.215  0.00  0.00    +0.000 A 
ATOM      6  C   UNL     1       0.216   9.859  20.864  0.00  0.00    +0.000 A 
ENDROOT
BRANCH   5   7
ATOM      7  C   UNL     1      -1.328  11.838  20.921  0.00  0.00    +0.000 C 
ATOM      8  O   UNL     1      -2.199  12.384  20.249  0.00  0.00    +0.000 OA
ATOM      9  N   UNL     1      -1.114  12.003  22.282  0.00  0.00    +0.000 N 
ATOM     10  H   UNL     1      -0.244  11.645  22.662  0.00  0.00    +0.000 HD
BRANCH   9  11
ATOM     11  C   UNL     1      -1.894  12.809  23.141  0.00  0.00    +0.000 A 
ATOM     12  C   UNL     1      -1.450  14.027  23.652  0.00  0.00    +0.000 A 
ATOM     13  C   UNL     1      -2.259  14.706  24.547  0.00  0.00    +0.000 A 
ATOM     14  N   UNL     1      -3.466  14.263  24.955  0.00  0.00    +0.000 NA
ATOM     15  C   UNL     1      -3.889  13.098  24.425  0.00  0.00    +0.000 A 
ATOM     16  C   UNL     1      -3.159  12.353  23.508  0.00  0.00    +0.000 A 
ENDBRANCH   9  11
ENDBRANCH   5   7
BRANCH   1  17
ATOM     17  C   UNL     1       1.626   7.775  20.871  0.00  0.00    +0.000 C 
BRANCH  17  20
ATOM     18  O   UNL     1       1.306   5.015  20.392  0.00  0.00    +0.000 OA
ATOM     19  C   UNL     1       2.194   5.628  19.813  0.00  0.00    +0.000 C 
ATOM     20  N   UNL     1       2.438   6.974  19.987  0.00  0.00    +0.000 N 
ATOM     21  H   UNL     1       3.058   7.459  19.353  0.00  0.00    +0.000 HD
BRANCH  19  22
ATOM     22  C   UNL     1       3.053   4.936  18.817  0.00  0.00    +0.000 A 
ATOM     23  C   UNL     1       3.069   3.537  18.815  0.00  0.00    +0.000 A 
ATOM     24  C   UNL     1       3.831   2.848  17.872  0.00  0.00    +0.000 A 
ATOM     25  C   UNL     1       4.571   3.554  16.923  0.00  0.00    +0.000 A 
ATOM     26  C   UNL     1       4.566   4.957  16.910  0.00  0.00    +0.000 A 
ATOM     27  C   UNL     1       3.823   5.645  17.887  0.00  0.00    +0.000 A 
BRANCH  26  28
ATOM     28  C   UNL     1       5.304   5.726  15.840  0.00  0.00    +0.000 C 
ATOM     29  F   UNL     1       4.804   6.973  15.624  0.00  0.00    +0.000 F 
ATOM     30  F   UNL     1       6.618   5.902  16.161  0.00  0.00    +0.000 F 
ATOM     31  F   UNL     1       5.295   5.098  14.635  0.00  0.00    +0.000 F 
ENDBRANCH  26  28
ENDBRANCH  19  22
ENDBRANCH  17  20
ENDBRANCH   1  17
TORSDOF 6
ENDMDL
MODEL 5
REMARK VINA RESULT:      -8.1      3.021      3.535
REMARK  Name = 
REMARK  6 active torsions:
REMARK  status: ('A' for Active; 'I' for Inactive)
REMARK    1  A    between atoms: C_2  and  C_20
REMARK    2  A    between atoms: N_3  and  C_4
REMARK    3  A    between atoms: C_4  and  C_5
REMARK    4  A    between atoms: C_9  and  C_10
REMARK    5  A    between atoms: N_12  and  C_13
REMARK    6  A    between atoms: C_24  and  C_25
REMARK                            x       y       z     vdW  Elec       q    Type
REMARK                         _______ _______ _______ _____ _____    ______ ____
ROOT
ATOM      1  C   UNL     1       1.086   8.957  20.330  0.00  0.00    +0.000 A 
ATOM      2  C   UNL     1       1.288   9.306  18.986  0.00  0.00    +0.000 A 
ATOM      3  C   UNL     1       0.864  10.548  18.507  0.00  0.00    +0.000 A 
ATOM      4  C   UNL     1       0.234  11.450  19.365  0.00  0.00    +0.000 A 
ATOM      5  C   UNL     1       0.039  11.119  20.715  0.00  0.00    +0.000 A 
ATOM      6  C   UNL     1       0.476   9.881  21.192  0.00  0.00    +0.000 A 
ENDROOT
BRANCH   5   7
ATOM      7  C   UNL     1      -0.695  12.065  21.595  0.00  0.00    +0.000 C 
ATOM      8  O   UNL     1      -0.031  12.836  22.283  0.00  0.00    +0.000 OA
ATOM      9  N   UNL     1      -2.079  11.951  21.589  0.00  0.00    +0.000 N 
ATOM     10  H   UNL     1      -2.476  11.144  21.120  0.00  0.00    +0.000 HD
BRANCH   9  11
ATOM     11  C   UNL     1      -2.968  12.736  22.357  0.00  0.00    +0.000 A 
ATOM     12  C   UNL     1      -3.354  12.400  23.652  0.00  0.00    +0.000 A 
ATOM     13  C   UNL     1      -4.290  13.194  24.293  0.00  0.00    +0.000 A 
ATOM     14  N   UNL     1      -4.853  14.288  23.740  0.00  0.00    +0.000 NA
ATOM     15  C   UNL     1      -4.441  14.612  22.497  0.00  0.00    +0.000 A 
ATOM     16  C   UNL     1      -3.497  13.890  21.781  0.00  0.00    +0.000 A 
ENDBRANCH   9  11
ENDBRANCH   5   7
BRANCH   1  17
ATOM     17  C   UNL     1       1.501   7.608  20.856  0.00  0.00    +0.000 C 
BRANCH  17  20
ATOM     18  O   UNL     1       1.874   4.836  20.498  0.00  0.00    +0.000 OA
ATOM     19  C   UNL     1       2.598   5.624  19.902  0.00  0.00    +0.000 C 
ATOM     20  N   UNL     1       2.502   6.994  20.018  0.00  0.00    +0.000 N 
ATOM     21  H   UNL     1       2.998   7.590  19.369  0.00  0.00    +0.000 HD
BRANCH  19  22
ATOM     22  C   UNL     1       3.620   5.122  18.946  0.00  0.00    +0.000 A 
ATOM     23  C   UNL     1       3.184   4.416  17.820  0.00  0.00    +0.000 A 
ATOM     24  C   UNL     1       4.108   3.962  16.879  0.00  0.00    +0.000 A 
ATOM     25  C   UNL     1       5.467   4.220  17.055  0.00  0.00    +0.000 A 
ATOM     26  C   UNL     1       5.922   4.927  18.179  0.00  0.00    +0.000 A 
ATOM     27  C   UNL     1       4.988   5.351  19.141  0.00  0.00    +0.000 A 
BRANCH  26  28
ATOM     28  C   UNL     1       7.383   5.275  18.338  0.00  0.00    +0.000 C 
ATOM     29  F   UNL     1       7.747   5.519  19.626  0.00  0.00    +0.000 F 
ATOM     30  F   UNL     1       8.192   4.264  17.908  0.00  0.00    +0.000 F 
ATOM     31  F   UNL     1       7.746   6.374  17.624  0.00  0.00    +0.000 F 
ENDBRANCH  26  28
ENDBRANCH  19  22
ENDBRANCH  17  20
ENDBRANCH   1  17
TORSDOF 6
ENDMDL
MODEL 6
REMARK VINA RESULT:      -8.1      4.226      6.828
REMARK  Name = 
REMARK  6 active torsions:
REMARK  status: ('A' for Active; 'I' for Inactive)
REMARK    1  A    between atoms: C_2  and  C_20
REMARK    2  A    between atoms: N_3  and  C_4
REMARK    3  A    between atoms: C_4  and  C_5
REMARK    4  A    between atoms: C_9  and  C_10
REMARK    5  A    between atoms: N_12  and  C_13
REMARK    6  A    between atoms: C_24  and  C_25
REMARK                            x       y       z     vdW  Elec       q    Type
REMARK                         _______ _______ _______ _____ _____    ______ ____
ROOT
ATOM      1  C   UNL     1       4.779   4.064  18.795  0.00  0.00    +0.000 A 
ATOM      2  C   UNL     1       4.329   2.736  18.847  0.00  0.00    +0.000 A 
ATOM      3  C   UNL     1       3.055   2.441  19.341  0.00  0.00    +0.000 A 
ATOM      4  C   UNL     1       2.223   3.467  19.787  0.00  0.00    +0.000 A 
ATOM      5  C   UNL     1       2.656   4.801  19.726  0.00  0.00    +0.000 A 
ATOM      6  C   UNL     1       3.925   5.093  19.220  0.00  0.00    +0.000 A 
ENDROOT
BRANCH   5   7
ATOM      7  C   UNL     1       1.782   5.873  20.270  0.00  0.00    +0.000 C 
ATOM      8  O   UNL     1       0.721   5.536  20.790  0.00  0.00    +0.000 OA
ATOM      9  N   UNL     1       2.234   7.174  20.091  0.00  0.00    +0.000 N 
ATOM     10  H   UNL     1       3.029   7.309  19.477  0.00  0.00    +0.000 HD
BRANCH   9  11
ATOM     11  C   UNL     1       1.558   8.340  20.515  0.00  0.00    +0.000 A 
ATOM     12  C   UNL     1       1.369   8.664  21.856  0.00  0.00    +0.000 A 
ATOM     13  C   UNL     1       0.626   9.791  22.169  0.00  0.00    +0.000 A 
ATOM     14  N   UNL     1       0.075  10.607  21.247  0.00  0.00    +0.000 NA
ATOM     15  C   UNL     1       0.296  10.291  19.955  0.00  0.00    +0.000 A 
ATOM     16  C   UNL     1       1.041   9.195  19.542  0.00  0.00    +0.000 A 
ENDBRANCH   9  11
ENDBRANCH   5   7
BRANCH   1  17
ATOM     17  C   UNL     1       6.162   4.399  18.302  0.00  0.00    +0.000 C 
BRANCH  17  20
ATOM     18  O   UNL     1       5.919   6.384  16.314  0.00  0.00    +0.000 OA
ATOM     19  C   UNL     1       6.160   5.229  15.987  0.00  0.00    +0.000 C 
ATOM     20  N   UNL     1       6.288   4.187  16.880  0.00  0.00    +0.000 N 
ATOM     21  H   UNL     1       6.665   3.302  16.571  0.00  0.00    +0.000 HD
BRANCH  19  22
ATOM     22  C   UNL     1       6.389   4.891  14.557  0.00  0.00    +0.000 A 
ATOM     23  C   UNL     1       7.633   5.195  13.995  0.00  0.00    +0.000 A 
ATOM     24  C   UNL     1       7.902   4.859  12.669  0.00  0.00    +0.000 A 
ATOM     25  C   UNL     1       6.933   4.210  11.904  0.00  0.00    +0.000 A 
ATOM     26  C   UNL     1       5.680   3.897  12.451  0.00  0.00    +0.000 A 
ATOM     27  C   UNL     1       5.403   4.270  13.779  0.00  0.00    +0.000 A 
BRANCH  26  28
ATOM     28  C   UNL     1       4.654   3.128  11.652  0.00  0.00    +0.000 C 
ATOM     29  F   UNL     1       4.249   3.771  10.524  0.00  0.00    +0.000 F 
ATOM     30  F   UNL     1       5.136   1.921  11.241  0.00  0.00    +0.000 F 
ATOM     31  F   UNL     1       3.526   2.858  12.362  0.00  0.00    +0.000 F 
ENDBRANCH  26  28
ENDBRANCH  19  22
ENDBRANCH  17  20
ENDBRANCH   1  17
TORSDOF 6
ENDMDL
MODEL 7
REMARK VINA RESULT:      -8.1      3.083      3.731
REMARK  Name = 
REMARK  6 active torsions:
REMARK  status: ('A' for Active; 'I' for Inactive)
REMARK    1  A    between atoms: C_2  and  C_20
REMARK    2  A    between atoms: N_3  and  C_4
REMARK    3  A    between atoms: C_4  and  C_5
REMARK    4  A    between atoms: C_9  and  C_10
REMARK    5  A    between atoms: N_12  and  C_13
REMARK    6  A    between atoms: C_24  and  C_25
REMARK                            x       y       z     vdW  Elec       q    Type
REMARK                         _______ _______ _______ _____ _____    ______ ____
ROOT
ATOM      1  C   UNL     1       1.097   8.547  20.700  0.00  0.00    +0.000 A 
ATOM      2  C   UNL     1       1.336   9.119  19.441  0.00  0.00    +0.000 A 
ATOM      3  C   UNL     1       0.923  10.426  19.168  0.00  0.00    +0.000 A 
ATOM      4  C   UNL     1       0.269  11.171  20.149  0.00  0.00    +0.000 A 
ATOM      5  C   UNL     1       0.037  10.616  21.417  0.00  0.00    +0.000 A 
ATOM      6  C   UNL     1       0.462   9.313  21.689  0.00  0.00    +0.000 A 
ENDROOT
BRANCH   5   7
ATOM      7  C   UNL     1      -0.722  11.401  22.426  0.00  0.00    +0.000 C 
ATOM      8  O   UNL     1      -1.013  10.845  23.481  0.00  0.00    +0.000 OA
ATOM      9  N   UNL     1      -1.074  12.691  22.051  0.00  0.00    +0.000 N 
ATOM     10  H   UNL     1      -0.934  12.946  21.080  0.00  0.00    +0.000 HD
BRANCH   9  11
ATOM     11  C   UNL     1      -1.805  13.602  22.844  0.00  0.00    +0.000 A 
ATOM     12  C   UNL     1      -1.219  14.388  23.834  0.00  0.00    +0.000 A 
ATOM     13  C   UNL     1      -2.034  15.195  24.610  0.00  0.00    +0.000 A 
ATOM     14  N   UNL     1      -3.373  15.276  24.463  0.00  0.00    +0.000 NA
ATOM     15  C   UNL     1      -3.914  14.529  23.479  0.00  0.00    +0.000 A 
ATOM     16  C   UNL     1      -3.181  13.704  22.639  0.00  0.00    +0.000 A 
ENDBRANCH   9  11
ENDBRANCH   5   7
BRANCH   1  17
ATOM     17  C   UNL     1       1.500   7.127  21.000  0.00  0.00    +0.000 C 
BRANCH  17  20
ATOM     18  O   UNL     1       2.313   4.444  20.700  0.00  0.00    +0.000 OA
ATOM     19  C   UNL     1       2.815   5.308  19.993  0.00  0.00    +0.000 C 
ATOM     20  N   UNL     1       2.493   6.647  20.070  0.00  0.00    +0.000 N 
ATOM     21  H   UNL     1       2.800   7.280  19.344  0.00  0.00    +0.000 HD
BRANCH  19  22
ATOM     22  C   UNL     1       3.795   4.936  18.940  0.00  0.00    +0.000 A 
ATOM     23  C   UNL     1       3.314   4.353  17.763  0.00  0.00    +0.000 A 
ATOM     24  C   UNL     1       4.196   4.023  16.734  0.00  0.00    +0.000 A 
ATOM     25  C   UNL     1       5.560   4.284  16.875  0.00  0.00    +0.000 A 
ATOM     26  C   UNL     1       6.060   4.868  18.048  0.00  0.00    +0.000 A 
ATOM     27  C   UNL     1       5.169   5.165  19.095  0.00  0.00    +0.000 A 
BRANCH  26  28
ATOM     28  C   UNL     1       7.522   5.221  18.177  0.00  0.00    +0.000 C 
ATOM     29  F   UNL     1       7.879   6.331  17.476  0.00  0.00    +0.000 F 
ATOM     30  F   UNL     1       7.868   5.472  19.472  0.00  0.00    +0.000 F 
ATOM     31  F   UNL     1       8.346   4.225  17.756  0.00  0.00    +0.000 F 
ENDBRANCH  26  28
ENDBRANCH  19  22
ENDBRANCH  17  20
ENDBRANCH   1  17
TORSDOF 6
ENDMDL
MODEL 8
REMARK VINA RESULT:      -8.1      3.048      3.648
REMARK  Name = 
REMARK  6 active torsions:
REMARK  status: ('A' for Active; 'I' for Inactive)
REMARK    1  A    between atoms: C_2  and  C_20
REMARK    2  A    between atoms: N_3  and  C_4
REMARK    3  A    between atoms: C_4  and  C_5
REMARK    4  A    between atoms: C_9  and  C_10
REMARK    5  A    between atoms: N_12  and  C_13
REMARK    6  A    between atoms: C_24  and  C_25
REMARK                            x       y       z     vdW  Elec       q    Type
REMARK                         _______ _______ _______ _____ _____    ______ ____
ROOT
ATOM      1  C   UNL     1       1.119   8.304  20.624  0.00  0.00    +0.000 A 
ATOM      2  C   UNL     1       1.446   8.904  19.399  0.00  0.00    +0.000 A 
ATOM      3  C   UNL     1       1.064  10.222  19.133  0.00  0.00    +0.000 A 
ATOM      4  C   UNL     1       0.353  10.949  20.088  0.00  0.00    +0.000 A 
ATOM      5  C   UNL     1       0.033  10.365  21.323  0.00  0.00    +0.000 A 
ATOM      6  C   UNL     1       0.427   9.052  21.589  0.00  0.00    +0.000 A 
ENDROOT
BRANCH   5   7
ATOM      7  C   UNL     1      -0.784  11.133  22.299  0.00  0.00    +0.000 C 
ATOM      8  O   UNL     1      -0.741  10.787  23.477  0.00  0.00    +0.000 OA
ATOM      9  N   UNL     1      -1.566  12.151  21.769  0.00  0.00    +0.000 N 
ATOM     10  H   UNL     1      -1.647  12.195  20.759  0.00  0.00    +0.000 HD
BRANCH   9  11
ATOM     11  C   UNL     1      -2.425  12.992  22.509  0.00  0.00    +0.000 A 
ATOM     12  C   UNL     1      -3.740  12.653  22.819  0.00  0.00    +0.000 A 
ATOM     13  C   UNL     1      -4.526  13.580  23.483  0.00  0.00    +0.000 A 
ATOM     14  N   UNL     1      -4.093  14.801  23.860  0.00  0.00    +0.000 NA
ATOM     15  C   UNL     1      -2.808  15.096  23.577  0.00  0.00    +0.000 A 
ATOM     16  C   UNL     1      -1.938  14.229  22.931  0.00  0.00    +0.000 A 
ENDBRANCH   9  11
ENDBRANCH   5   7
BRANCH   1  17
ATOM     17  C   UNL     1       1.489   6.873  20.913  0.00  0.00    +0.000 C 
BRANCH  17  20
ATOM     18  O   UNL     1       1.664   4.425  19.524  0.00  0.00    +0.000 OA
ATOM     19  C   UNL     1       2.591   5.222  19.461  0.00  0.00    +0.000 C 
ATOM     20  N   UNL     1       2.606   6.438  20.110  0.00  0.00    +0.000 N 
ATOM     21  H   UNL     1       3.309   7.125  19.877  0.00  0.00    +0.000 HD
BRANCH  19  22
ATOM     22  C   UNL     1       3.771   4.929  18.604  0.00  0.00    +0.000 A 
ATOM     23  C   UNL     1       3.550   4.363  17.344  0.00  0.00    +0.000 A 
ATOM     24  C   UNL     1       4.626   4.108  16.494  0.00  0.00    +0.000 A 
ATOM     25  C   UNL     1       5.923   4.427  16.897  0.00  0.00    +0.000 A 
ATOM     26  C   UNL     1       6.163   4.994  18.157  0.00  0.00    +0.000 A 
ATOM     27  C   UNL     1       5.076   5.216  19.023  0.00  0.00    +0.000 A 
BRANCH  26  28
ATOM     28  C   UNL     1       7.555   5.410  18.569  0.00  0.00    +0.000 C 
ATOM     29  F   UNL     1       7.967   6.575  18.000  0.00  0.00    +0.000 F 
ATOM     30  F   UNL     1       7.646   5.601  19.916  0.00  0.00    +0.000 F 
ATOM     31  F   UNL     1       8.498   4.481  18.259  0.00  0.00    +0.000 F 
ENDBRANCH  26  28
ENDBRANCH  19  22
ENDBRANCH  17  20
ENDBRANCH   1  17
TORSDOF 6
ENDMDL
MODEL 9
REMARK VINA RESULT:      -8.0      3.068      3.704
REMARK  Name = 
REMARK  6 active torsions:
REMARK  status: ('A' for Active; 'I' for Inactive)
REMARK    1  A    between atoms: C_2  and  C_20
REMARK    2  A    between atoms: N_3  and  C_4
REMARK    3  A    between atoms: C_4  and  C_5
REMARK    4  A    between atoms: C_9  and  C_10
REMARK    5  A    between atoms: N_12  and  C_13
REMARK    6  A    between atoms: C_24  and  C_25
REMARK                            x       y       z     vdW  Elec       q    Type
REMARK                         _______ _______ _______ _____ _____    ______ ____
ROOT
ATOM      1  C   UNL     1       1.002   8.755  20.566  0.00  0.00    +0.000 A 
ATOM      2  C   UNL     1       1.272   9.266  19.288  0.00  0.00    +0.000 A 
ATOM      3  C   UNL     1       0.813  10.535  18.922  0.00  0.00    +0.000 A 
ATOM      4  C   UNL     1       0.080  11.301  19.828  0.00  0.00    +0.000 A 
ATOM      5  C   UNL     1      -0.184  10.807  21.116  0.00  0.00    +0.000 A 
ATOM      6  C   UNL     1       0.288   9.544  21.481  0.00  0.00    +0.000 A 
ENDROOT
BRANCH   5   7
ATOM      7  C   UNL     1      -1.025  11.609  22.042  0.00  0.00    +0.000 C 
ATOM      8  O   UNL     1      -0.851  11.455  23.248  0.00  0.00    +0.000 OA
ATOM      9  N   UNL     1      -1.971  12.431  21.446  0.00  0.00    +0.000 N 
ATOM     10  H   UNL     1      -2.130  12.311  20.452  0.00  0.00    +0.000 HD
BRANCH   9  11
ATOM     11  C   UNL     1      -2.880  13.265  22.134  0.00  0.00    +0.000 A 
ATOM     12  C   UNL     1      -2.555  14.548  22.569  0.00  0.00    +0.000 A 
ATOM     13  C   UNL     1      -3.491  15.258  23.303  0.00  0.00    +0.000 A 
ATOM     14  N   UNL     1      -4.714  14.784  23.620  0.00  0.00    +0.000 NA
ATOM     15  C   UNL     1      -5.018  13.552  23.163  0.00  0.00    +0.000 A 
ATOM     16  C   UNL     1      -4.155  12.771  22.406  0.00  0.00    +0.000 A 
ENDBRANCH   9  11
ENDBRANCH   5   7
BRANCH   1  17
ATOM     17  C   UNL     1       1.456   7.376  20.965  0.00  0.00    +0.000 C 
BRANCH  17  20
ATOM     18  O   UNL     1       2.428   4.729  20.940  0.00  0.00    +0.000 OA
ATOM     19  C   UNL     1       2.826   5.525  20.099  0.00  0.00    +0.000 C 
ATOM     20  N   UNL     1       2.420   6.841  20.034  0.00  0.00    +0.000 N 
ATOM     21  H   UNL     1       2.639   7.396  19.218  0.00  0.00    +0.000 HD
BRANCH  19  22
ATOM     22  C   UNL     1       3.764   5.082  19.035  0.00  0.00    +0.000 A 
ATOM     23  C   UNL     1       3.230   4.469  17.895  0.00  0.00    +0.000 A 
ATOM     24  C   UNL     1       4.071   4.073  16.856  0.00  0.00    +0.000 A 
ATOM     25  C   UNL     1       5.445   4.296  16.947  0.00  0.00    +0.000 A 
ATOM     26  C   UNL     1       5.998   4.908  18.082  0.00  0.00    +0.000 A 
ATOM     27  C   UNL     1       5.147   5.273  19.142  0.00  0.00    +0.000 A 
BRANCH  26  28
ATOM     28  C   UNL     1       7.474   5.219  18.156  0.00  0.00    +0.000 C 
ATOM     29  F   UNL     1       8.266   4.216  17.689  0.00  0.00    +0.000 F 
ATOM     30  F   UNL     1       7.794   6.321  17.418  0.00  0.00    +0.000 F 
ATOM     31  F   UNL     1       7.897   5.481  19.422  0.00  0.00    +0.000 F 
ENDBRANCH  26  28
ENDBRANCH  19  22
ENDBRANCH  17  20
ENDBRANCH   1  17
TORSDOF 6
ENDMDL
