MODEL 1
REMARK VINA RESULT:      -8.3      0.000      0.000
REMARK  Name = 
REMARK  4 active torsions:
REMARK  status: ('A' for Active; 'I' for Inactive)
REMARK    1  A    between atoms: N_3  and  C_4
REMARK    2  A    between atoms: C_7  and  C_8
REMARK    3  A    between atoms: N_12  and  C_13
REMARK    4  A    between atoms: N_18  and  C_19
REMARK                            x       y       z     vdW  Elec       q    Type
REMARK                         _______ _______ _______ _____ _____    ______ ____
ROOT
ATOM      1  O   UNL     1       0.501   6.614  20.835  0.00  0.00    +0.000 OA
ATOM      2  C   UNL     1       1.571   7.229  20.682  0.00  0.00    +0.000 C 
ATOM      3  N   UNL     1       1.784   8.556  20.974  0.00  0.00    +0.000 N 
ATOM      4  N   UNL     1       2.684   6.629  20.149  0.00  0.00    +0.000 N 
ATOM      5  H   UNL     1       2.615   8.959  20.558  0.00  0.00    +0.000 HD
ATOM      6  H   UNL     1       3.562   7.116  20.269  0.00  0.00    +0.000 HD
ENDROOT
BRANCH   4   7
ATOM      7  C   UNL     1       2.766   5.225  19.683  0.00  0.00    +0.000 C 
ATOM      8  C   UNL     1       1.967   5.020  18.370  0.00  0.00    +0.000 C 
ATOM      9  C   UNL     1       2.117   3.577  17.859  0.00  0.00    +0.000 C 
ATOM     10  C   UNL     1       3.599   3.274  17.589  0.00  0.00    +0.000 C 
ATOM     11  C   UNL     1       4.414   3.450  18.880  0.00  0.00    +0.000 C 
ATOM     12  C   UNL     1       3.888   2.483  19.951  0.00  0.00    +0.000 C 
ATOM     13  C   UNL     1       2.404   2.769  20.232  0.00  0.00    +0.000 C 
ATOM     14  C   UNL     1       1.598   2.600  18.931  0.00  0.00    +0.000 C 
ATOM     15  C   UNL     1       2.254   4.216  20.742  0.00  0.00    +0.000 C 
ATOM     16  C   UNL     1       4.257   4.895  19.386  0.00  0.00    +0.000 C 
ENDBRANCH   4   7
BRANCH   3  17
ATOM     17  C   UNL     1       0.868   9.451  21.547  0.00  0.00    +0.000 A 
ATOM     18  C   UNL     1       0.404   9.341  22.855  0.00  0.00    +0.000 A 
ATOM     19  C   UNL     1      -0.550  10.228  23.364  0.00  0.00    +0.000 A 
ATOM     20  C   UNL     1      -1.089  11.244  22.564  0.00  0.00    +0.000 A 
ATOM     21  C   UNL     1      -0.584  11.399  21.272  0.00  0.00    +0.000 A 
ATOM     22  C   UNL     1       0.387  10.521  20.765  0.00  0.00    +0.000 A 
BRANCH  20  23
ATOM     23  C   UNL     1      -2.169  12.106  23.060  0.00  0.00    +0.000 A 
ATOM     24  N   UNL     1      -3.306  11.705  23.613  0.00  0.00    +0.000 NA
ATOM     25  N   UNL     1      -4.000  12.837  23.939  0.00  0.00    +0.000 NA
ATOM     26  N   UNL     1      -3.329  13.931  23.600  0.00  0.00    +0.000 NA
ATOM     27  N   UNL     1      -2.151  13.492  23.110  0.00  0.00    +0.000 N 
BRANCH  27  28
ATOM     28  C   UNL     1      -0.930  14.265  23.279  0.00  0.00    +0.000 C 
ATOM     29  C   UNL     1      -0.866  15.711  22.822  0.00  0.00    +0.000 C 
ATOM     30  C   UNL     1       0.133  14.720  22.315  0.00  0.00    +0.000 C 
ENDBRANCH  27  28
ENDBRANCH  20  23
ENDBRANCH   3  17
TORSDOF 4
ENDMDL
MODEL 2
REMARK VINA RESULT:      -8.3      0.328      1.695
REMARK  Name = 
REMARK  4 active torsions:
REMARK  status: ('A' for Active; 'I' for Inactive)
REMARK    1  A    between atoms: N_3  and  C_4
REMARK    2  A    between atoms: C_7  and  C_8
REMARK    3  A    between atoms: N_12  and  C_13
REMARK    4  A    between atoms: N_18  and  C_19
REMARK                            x       y       z     vdW  Elec       q    Type
REMARK                         _______ _______ _______ _____ _____    ______ ____
ROOT
ATOM      1  O   UNL     1       0.481   6.475  20.638  0.00  0.00    +0.000 OA
ATOM      2  C   UNL     1       1.545   7.117  20.610  0.00  0.00    +0.000 C 
ATOM      3  N   UNL     1       1.688   8.448  20.926  0.00  0.00    +0.000 N 
ATOM      4  N   UNL     1       2.727   6.548  20.208  0.00  0.00    +0.000 N 
ATOM      5  H   UNL     1       2.551   8.873  20.608  0.00  0.00    +0.000 HD
ATOM      6  H   UNL     1       3.573   7.056  20.429  0.00  0.00    +0.000 HD
ENDROOT
BRANCH   4   7
ATOM      7  C   UNL     1       2.898   5.148  19.754  0.00  0.00    +0.000 C 
ATOM      8  C   UNL     1       4.382   4.837  19.432  0.00  0.00    +0.000 C 
ATOM      9  C   UNL     1       4.556   3.363  19.029  0.00  0.00    +0.000 C 
ATOM     10  C   UNL     1       4.098   2.453  20.179  0.00  0.00    +0.000 C 
ATOM     11  C   UNL     1       2.622   2.726  20.507  0.00  0.00    +0.000 C 
ATOM     12  C   UNL     1       1.763   2.441  19.266  0.00  0.00    +0.000 C 
ATOM     13  C   UNL     1       2.210   3.340  18.103  0.00  0.00    +0.000 C 
ATOM     14  C   UNL     1       3.691   3.067  17.788  0.00  0.00    +0.000 C 
ATOM     15  C   UNL     1       2.036   4.818  18.508  0.00  0.00    +0.000 C 
ATOM     16  C   UNL     1       2.456   4.203  20.907  0.00  0.00    +0.000 C 
ENDBRANCH   4   7
BRANCH   3  17
ATOM     17  C   UNL     1       0.690   9.317  21.390  0.00  0.00    +0.000 A 
ATOM     18  C   UNL     1       0.011  10.214  20.568  0.00  0.00    +0.000 A 
ATOM     19  C   UNL     1      -0.940  11.097  21.088  0.00  0.00    +0.000 A 
ATOM     20  C   UNL     1      -1.223  11.127  22.460  0.00  0.00    +0.000 A 
ATOM     21  C   UNL     1      -0.592  10.190  23.280  0.00  0.00    +0.000 A 
ATOM     22  C   UNL     1       0.350   9.290  22.758  0.00  0.00    +0.000 A 
BRANCH  20  23
ATOM     23  C   UNL     1      -2.138  12.127  23.023  0.00  0.00    +0.000 A 
ATOM     24  N   UNL     1      -3.249  11.883  23.705  0.00  0.00    +0.000 NA
ATOM     25  N   UNL     1      -3.769  13.100  24.048  0.00  0.00    +0.000 NA
ATOM     26  N   UNL     1      -3.018  14.094  23.593  0.00  0.00    +0.000 NA
ATOM     27  N   UNL     1      -1.956  13.503  23.007  0.00  0.00    +0.000 N 
BRANCH  27  28
ATOM     28  C   UNL     1      -0.644  14.130  23.016  0.00  0.00    +0.000 C 
ATOM     29  C   UNL     1      -0.427  15.469  22.334  0.00  0.00    +0.000 C 
ATOM     30  C   UNL     1       0.418  14.292  21.961  0.00  0.00    +0.000 C 
ENDBRANCH  27  28
ENDBRANCH  20  23
ENDBRANCH   3  17
TORSDOF 4
ENDMDL
MODEL 3
REMARK VINA RESULT:      -8.2      0.326      1.735
REMARK  Name = 
REMARK  4 active torsions:
REMARK  status: ('A' for Active; 'I' for Inactive)
REMARK    1  A    between atoms: N_3  and  C_4
REMARK    2  A    between atoms: C_7  and  C_8
REMARK    3  A    between atoms: N_12  and  C_13
REMARK    4  A    between atoms: N_18  and  C_19
REMARK                            x       y       z     vdW  Elec       q    Type
REMARK                         _______ _______ _______ _____ _____    ______ ____
ROOT
ATOM      1  O   UNL     1       0.555   6.567  20.776  0.00  0.00    +0.000 OA
ATOM      2  C   UNL     1       1.536   7.290  20.531  0.00  0.00    +0.000 C 
ATOM      3  N   UNL     1       1.594   8.653  20.704  0.00  0.00    +0.000 N 
ATOM      4  N   UNL     1       2.698   6.783  20.005  0.00  0.00    +0.000 N 
ATOM      5  H   UNL     1       2.357   9.114  20.222  0.00  0.00    +0.000 HD
ATOM      6  H   UNL     1       3.513   7.379  20.049  0.00  0.00    +0.000 HD
ENDROOT
BRANCH   4   7
ATOM      7  C   UNL     1       2.936   5.363  19.653  0.00  0.00    +0.000 C 
ATOM      8  C   UNL     1       2.502   4.417  20.802  0.00  0.00    +0.000 C 
ATOM      9  C   UNL     1       2.690   2.945  20.397  0.00  0.00    +0.000 C 
ATOM     10  C   UNL     1       1.840   2.636  19.155  0.00  0.00    +0.000 C 
ATOM     11  C   UNL     1       2.262   3.547  17.992  0.00  0.00    +0.000 C 
ATOM     12  C   UNL     1       3.742   3.302  17.664  0.00  0.00    +0.000 C 
ATOM     13  C   UNL     1       4.609   3.603  18.898  0.00  0.00    +0.000 C 
ATOM     14  C   UNL     1       4.172   2.693  20.060  0.00  0.00    +0.000 C 
ATOM     15  C   UNL     1       4.419   5.078  19.303  0.00  0.00    +0.000 C 
ATOM     16  C   UNL     1       2.074   5.018  18.405  0.00  0.00    +0.000 C 
ENDBRANCH   4   7
BRANCH   3  17
ATOM     17  C   UNL     1       0.593   9.478  21.237  0.00  0.00    +0.000 A 
ATOM     18  C   UNL     1      -0.155  10.370  20.471  0.00  0.00    +0.000 A 
ATOM     19  C   UNL     1      -1.106  11.210  21.058  0.00  0.00    +0.000 A 
ATOM     20  C   UNL     1      -1.321  11.200  22.442  0.00  0.00    +0.000 A 
ATOM     21  C   UNL     1      -0.620  10.267  23.208  0.00  0.00    +0.000 A 
ATOM     22  C   UNL     1       0.322   9.410  22.619  0.00  0.00    +0.000 A 
BRANCH  20  23
ATOM     23  C   UNL     1      -2.237  12.157  23.073  0.00  0.00    +0.000 A 
ATOM     24  N   UNL     1      -3.326  11.863  23.771  0.00  0.00    +0.000 NA
ATOM     25  N   UNL     1      -3.858  13.054  24.182  0.00  0.00    +0.000 NA
ATOM     26  N   UNL     1      -3.135  14.080  23.754  0.00  0.00    +0.000 NA
ATOM     27  N   UNL     1      -2.079  13.535  23.115  0.00  0.00    +0.000 N 
BRANCH  27  28
ATOM     28  C   UNL     1      -0.778  14.185  23.120  0.00  0.00    +0.000 C 
ATOM     29  C   UNL     1      -0.565  15.486  22.368  0.00  0.00    +0.000 C 
ATOM     30  C   UNL     1       0.308  14.305  22.085  0.00  0.00    +0.000 C 
ENDBRANCH  27  28
ENDBRANCH  20  23
ENDBRANCH   3  17
TORSDOF 4
ENDMDL
MODEL 4
REMARK VINA RESULT:      -8.2      6.974     10.864
REMARK  Name = 
REMARK  4 active torsions:
REMARK  status: ('A' for Active; 'I' for Inactive)
REMARK    1  A    between atoms: N_3  and  C_4
REMARK    2  A    between atoms: C_7  and  C_8
REMARK    3  A    between atoms: N_12  and  C_13
REMARK    4  A    between atoms: N_18  and  C_19
REMARK                            x       y       z     vdW  Elec       q    Type
REMARK                         _______ _______ _______ _____ _____    ______ ____
ROOT
ATOM      1  O   UNL     1       7.645   9.962  17.891  0.00  0.00    +0.000 OA
ATOM      2  C   UNL     1       8.522   9.247  18.407  0.00  0.00    +0.000 C 
ATOM      3  N   UNL     1       8.426   7.894  18.632  0.00  0.00    +0.000 N 
ATOM      4  N   UNL     1       9.710   9.766  18.856  0.00  0.00    +0.000 N 
ATOM      5  H   UNL     1       9.107   7.518  19.282  0.00  0.00    +0.000 HD
ATOM      6  H   UNL     1      10.450   9.104  19.046  0.00  0.00    +0.000 HD
ENDROOT
BRANCH   4   7
ATOM      7  C   UNL     1      10.098  11.195  18.809  0.00  0.00    +0.000 C 
ATOM      8  C   UNL     1      10.232  11.790  20.235  0.00  0.00    +0.000 C 
ATOM      9  C   UNL     1      10.703  13.253  20.174  0.00  0.00    +0.000 C 
ATOM     10  C   UNL     1      12.069  13.330  19.475  0.00  0.00    +0.000 C 
ATOM     11  C   UNL     1      11.961  12.764  18.051  0.00  0.00    +0.000 C 
ATOM     12  C   UNL     1      10.940  13.587  17.252  0.00  0.00    +0.000 C 
ATOM     13  C   UNL     1       9.566  13.525  17.938  0.00  0.00    +0.000 C 
ATOM     14  C   UNL     1       9.686  14.083  19.367  0.00  0.00    +0.000 C 
ATOM     15  C   UNL     1       9.096  12.057  18.000  0.00  0.00    +0.000 C 
ATOM     16  C   UNL     1      11.488  11.301  18.120  0.00  0.00    +0.000 C 
ENDBRANCH   4   7
BRANCH   3  17
ATOM     17  C   UNL     1       7.360   7.053  18.278  0.00  0.00    +0.000 A 
ATOM     18  C   UNL     1       6.492   7.318  17.222  0.00  0.00    +0.000 A 
ATOM     19  C   UNL     1       5.412   6.476  16.941  0.00  0.00    +0.000 A 
ATOM     20  C   UNL     1       5.153   5.348  17.731  0.00  0.00    +0.000 A 
ATOM     21  C   UNL     1       6.054   5.041  18.752  0.00  0.00    +0.000 A 
ATOM     22  C   UNL     1       7.149   5.876  19.024  0.00  0.00    +0.000 A 
BRANCH  20  23
ATOM     23  C   UNL     1       3.958   4.525  17.507  0.00  0.00    +0.000 A 
ATOM     24  N   UNL     1       3.887   3.423  16.772  0.00  0.00    +0.000 NA
ATOM     25  N   UNL     1       2.596   2.981  16.859  0.00  0.00    +0.000 NA
ATOM     26  N   UNL     1       1.861   3.780  17.622  0.00  0.00    +0.000 NA
ATOM     27  N   UNL     1       2.714   4.715  18.091  0.00  0.00    +0.000 N 
BRANCH  27  28
ATOM     28  C   UNL     1       2.536   5.304  19.408  0.00  0.00    +0.000 C 
ATOM     29  C   UNL     1       2.728   4.464  20.659  0.00  0.00    +0.000 C 
ATOM     30  C   UNL     1       1.442   5.195  20.437  0.00  0.00    +0.000 C 
ENDBRANCH  27  28
ENDBRANCH  20  23
ENDBRANCH   3  17
TORSDOF 4
ENDMDL
MODEL 5
REMARK VINA RESULT:      -8.1      6.891     10.793
REMARK  Name = 
REMARK  4 active torsions:
REMARK  status: ('A' for Active; 'I' for Inactive)
REMARK    1  A    between atoms: N_3  and  C_4
REMARK    2  A    between atoms: C_7  and  C_8
REMARK    3  A    between atoms: N_12  and  C_13
REMARK    4  A    between atoms: N_18  and  C_19
REMARK                            x       y       z     vdW  Elec       q    Type
REMARK                         _______ _______ _______ _____ _____    ______ ____
ROOT
ATOM      1  O   UNL     1       7.555   9.929  17.921  0.00  0.00    +0.000 OA
ATOM      2  C   UNL     1       8.462   9.207  18.372  0.00  0.00    +0.000 C 
ATOM      3  N   UNL     1       8.390   7.847  18.557  0.00  0.00    +0.000 N 
ATOM      4  N   UNL     1       9.664   9.725  18.784  0.00  0.00    +0.000 N 
ATOM      5  H   UNL     1       9.103   7.458  19.162  0.00  0.00    +0.000 HD
ATOM      6  H   UNL     1      10.419   9.066  18.918  0.00  0.00    +0.000 HD
ENDROOT
BRANCH   4   7
ATOM      7  C   UNL     1      10.036  11.159  18.767  0.00  0.00    +0.000 C 
ATOM      8  C   UNL     1       9.057  11.984  17.891  0.00  0.00    +0.000 C 
ATOM      9  C   UNL     1       9.412  13.480  17.938  0.00  0.00    +0.000 C 
ATOM     10  C   UNL     1       9.329  13.988  19.385  0.00  0.00    +0.000 C 
ATOM     11  C   UNL     1      10.304  13.200  20.274  0.00  0.00    +0.000 C 
ATOM     12  C   UNL     1      11.736  13.392  19.754  0.00  0.00    +0.000 C 
ATOM     13  C   UNL     1      11.838  12.893  18.304  0.00  0.00    +0.000 C 
ATOM     14  C   UNL     1      10.851  13.680  17.424  0.00  0.00    +0.000 C 
ATOM     15  C   UNL     1      11.481  11.393  18.258  0.00  0.00    +0.000 C 
ATOM     16  C   UNL     1       9.944  11.705  20.220  0.00  0.00    +0.000 C 
ENDBRANCH   4   7
BRANCH   3  17
ATOM     17  C   UNL     1       7.317   7.006  18.224  0.00  0.00    +0.000 A 
ATOM     18  C   UNL     1       6.460   7.243  17.152  0.00  0.00    +0.000 A 
ATOM     19  C   UNL     1       5.372   6.404  16.893  0.00  0.00    +0.000 A 
ATOM     20  C   UNL     1       5.094   5.308  17.720  0.00  0.00    +0.000 A 
ATOM     21  C   UNL     1       5.983   5.028  18.759  0.00  0.00    +0.000 A 
ATOM     22  C   UNL     1       7.086   5.859  19.010  0.00  0.00    +0.000 A 
BRANCH  20  23
ATOM     23  C   UNL     1       3.892   4.492  17.515  0.00  0.00    +0.000 A 
ATOM     24  N   UNL     1       3.813   3.364  16.822  0.00  0.00    +0.000 NA
ATOM     25  N   UNL     1       2.516   2.940  16.914  0.00  0.00    +0.000 NA
ATOM     26  N   UNL     1       1.784   3.776  17.638  0.00  0.00    +0.000 NA
ATOM     27  N   UNL     1       2.644   4.718  18.080  0.00  0.00    +0.000 N 
BRANCH  27  28
ATOM     28  C   UNL     1       2.461   5.358  19.373  0.00  0.00    +0.000 C 
ATOM     29  C   UNL     1       2.761   4.603  20.655  0.00  0.00    +0.000 C 
ATOM     30  C   UNL     1       1.414   5.216  20.444  0.00  0.00    +0.000 C 
ENDBRANCH  27  28
ENDBRANCH  20  23
ENDBRANCH   3  17
TORSDOF 4
ENDMDL
MODEL 6
REMARK VINA RESULT:      -8.0      0.387      1.469
REMARK  Name = 
REMARK  4 active torsions:
REMARK  status: ('A' for Active; 'I' for Inactive)
REMARK    1  A    between atoms: N_3  and  C_4
REMARK    2  A    between atoms: C_7  and  C_8
REMARK    3  A    between atoms: N_12  and  C_13
REMARK    4  A    between atoms: N_18  and  C_19
REMARK                            x       y       z     vdW  Elec       q    Type
REMARK                         _______ _______ _______ _____ _____    ______ ____
ROOT
ATOM      1  O   UNL     1       0.418   6.769  20.721  0.00  0.00    +0.000 OA
ATOM      2  C   UNL     1       1.521   7.344  20.723  0.00  0.00    +0.000 C 
ATOM      3  N   UNL     1       1.753   8.636  21.130  0.00  0.00    +0.000 N 
ATOM      4  N   UNL     1       2.659   6.731  20.263  0.00  0.00    +0.000 N 
ATOM      5  H   UNL     1       2.638   9.028  20.831  0.00  0.00    +0.000 HD
ATOM      6  H   UNL     1       3.539   7.167  20.507  0.00  0.00    +0.000 HD
ENDROOT
BRANCH   4   7
ATOM      7  C   UNL     1       2.735   5.359  19.707  0.00  0.00    +0.000 C 
ATOM      8  C   UNL     1       2.081   4.327  20.662  0.00  0.00    +0.000 C 
ATOM      9  C   UNL     1       2.104   2.920  20.042  0.00  0.00    +0.000 C 
ATOM     10  C   UNL     1       1.329   2.925  18.714  0.00  0.00    +0.000 C 
ATOM     11  C   UNL     1       1.968   3.927  17.740  0.00  0.00    +0.000 C 
ATOM     12  C   UNL     1       3.425   3.520  17.473  0.00  0.00    +0.000 C 
ATOM     13  C   UNL     1       4.214   3.505  18.791  0.00  0.00    +0.000 C 
ATOM     14  C   UNL     1       3.562   2.508  19.764  0.00  0.00    +0.000 C 
ATOM     15  C   UNL     1       4.190   4.916  19.413  0.00  0.00    +0.000 C 
ATOM     16  C   UNL     1       1.944   5.332  18.368  0.00  0.00    +0.000 C 
ENDBRANCH   4   7
BRANCH   3  17
ATOM     17  C   UNL     1       0.818   9.531  21.670  0.00  0.00    +0.000 A 
ATOM     18  C   UNL     1       0.219   9.357  22.916  0.00  0.00    +0.000 A 
ATOM     19  C   UNL     1      -0.747  10.249  23.388  0.00  0.00    +0.000 A 
ATOM     20  C   UNL     1      -1.164  11.338  22.611  0.00  0.00    +0.000 A 
ATOM     21  C   UNL     1      -0.525  11.555  21.389  0.00  0.00    +0.000 A 
ATOM     22  C   UNL     1       0.459  10.670  20.921  0.00  0.00    +0.000 A 
BRANCH  20  23
ATOM     23  C   UNL     1      -2.256  12.212  23.057  0.00  0.00    +0.000 A 
ATOM     24  N   UNL     1      -3.433  11.825  23.530  0.00  0.00    +0.000 NA
ATOM     25  N   UNL     1      -4.123  12.965  23.835  0.00  0.00    +0.000 NA
ATOM     26  N   UNL     1      -3.412  14.050  23.560  0.00  0.00    +0.000 NA
ATOM     27  N   UNL     1      -2.214  13.597  23.135  0.00  0.00    +0.000 N 
BRANCH  27  28
ATOM     28  C   UNL     1      -0.992  14.342  23.395  0.00  0.00    +0.000 C 
ATOM     29  C   UNL     1      -0.982  15.477  24.403  0.00  0.00    +0.000 C 
ATOM     30  C   UNL     1      -0.531  15.719  22.997  0.00  0.00    +0.000 C 
ENDBRANCH  27  28
ENDBRANCH  20  23
ENDBRANCH   3  17
TORSDOF 4
ENDMDL
MODEL 7
REMARK VINA RESULT:      -8.0      6.889     10.791
REMARK  Name = 
REMARK  4 active torsions:
REMARK  status: ('A' for Active; 'I' for Inactive)
REMARK    1  A    between atoms: N_3  and  C_4
REMARK    2  A    between atoms: C_7  and  C_8
REMARK    3  A    between atoms: N_12  and  C_13
REMARK    4  A    between atoms: N_18  and  C_19
REMARK                            x       y       z     vdW  Elec       q    Type
REMARK                         _______ _______ _______ _____ _____    ______ ____
ROOT
ATOM      1  O   UNL     1       7.554   9.856  18.143  0.00  0.00    +0.000 OA
ATOM      2  C   UNL     1       8.521   9.179  18.531  0.00  0.00    +0.000 C 
ATOM      3  N   UNL     1       8.544   7.810  18.659  0.00  0.00    +0.000 N 
ATOM      4  N   UNL     1       9.703   9.757  18.922  0.00  0.00    +0.000 N 
ATOM      5  H   UNL     1       9.303   7.444  19.222  0.00  0.00    +0.000 HD
ATOM      6  H   UNL     1      10.503   9.144  19.001  0.00  0.00    +0.000 HD
ENDROOT
BRANCH   4   7
ATOM      7  C   UNL     1       9.980  11.212  18.953  0.00  0.00    +0.000 C 
ATOM      8  C   UNL     1      11.472  11.508  18.651  0.00  0.00    +0.000 C 
ATOM      9  C   UNL     1      11.732  13.024  18.617  0.00  0.00    +0.000 C 
ATOM     10  C   UNL     1      10.868  13.674  17.525  0.00  0.00    +0.000 C 
ATOM     11  C   UNL     1       9.381  13.413  17.810  0.00  0.00    +0.000 C 
ATOM     12  C   UNL     1       9.009  14.016  19.172  0.00  0.00    +0.000 C 
ATOM     13  C   UNL     1       9.867  13.380  20.278  0.00  0.00    +0.000 C 
ATOM     14  C   UNL     1      11.354  13.637  19.979  0.00  0.00    +0.000 C 
ATOM     15  C   UNL     1       9.606  11.860  20.310  0.00  0.00    +0.000 C 
ATOM     16  C   UNL     1       9.129  11.895  17.844  0.00  0.00    +0.000 C 
ENDBRANCH   4   7
BRANCH   3  17
ATOM     17  C   UNL     1       7.516   6.914  18.329  0.00  0.00    +0.000 A 
ATOM     18  C   UNL     1       6.799   6.975  17.136  0.00  0.00    +0.000 A 
ATOM     19  C   UNL     1       5.747   6.092  16.876  0.00  0.00    +0.000 A 
ATOM     20  C   UNL     1       5.362   5.130  17.819  0.00  0.00    +0.000 A 
ATOM     21  C   UNL     1       6.114   5.023  18.990  0.00  0.00    +0.000 A 
ATOM     22  C   UNL     1       7.183   5.896  19.246  0.00  0.00    +0.000 A 
BRANCH  20  23
ATOM     23  C   UNL     1       4.190   4.277  17.595  0.00  0.00    +0.000 A 
ATOM     24  N   UNL     1       4.197   2.968  17.380  0.00  0.00    +0.000 NA
ATOM     25  N   UNL     1       2.890   2.589  17.243  0.00  0.00    +0.000 NA
ATOM     26  N   UNL     1       2.071   3.626  17.361  0.00  0.00    +0.000 NA
ATOM     27  N   UNL     1       2.862   4.680  17.648  0.00  0.00    +0.000 N 
BRANCH  27  28
ATOM     28  C   UNL     1       2.395   5.763  18.499  0.00  0.00    +0.000 C 
ATOM     29  C   UNL     1       2.288   7.176  17.955  0.00  0.00    +0.000 C 
ATOM     30  C   UNL     1       3.102   6.905  19.180  0.00  0.00    +0.000 C 
ENDBRANCH  27  28
ENDBRANCH  20  23
ENDBRANCH   3  17
TORSDOF 4
ENDMDL
MODEL 8
REMARK VINA RESULT:      -7.9      7.347     11.209
REMARK  Name = 
REMARK  4 active torsions:
REMARK  status: ('A' for Active; 'I' for Inactive)
REMARK    1  A    between atoms: N_3  and  C_4
REMARK    2  A    between atoms: C_7  and  C_8
REMARK    3  A    between atoms: N_12  and  C_13
REMARK    4  A    between atoms: N_18  and  C_19
REMARK                            x       y       z     vdW  Elec       q    Type
REMARK                         _______ _______ _______ _____ _____    ______ ____
ROOT
ATOM      1  O   UNL     1       8.073  10.402  17.948  0.00  0.00    +0.000 OA
ATOM      2  C   UNL     1       8.933   9.748  18.563  0.00  0.00    +0.000 C 
ATOM      3  N   UNL     1       8.879   8.400  18.830  0.00  0.00    +0.000 N 
ATOM      4  N   UNL     1      10.053  10.338  19.092  0.00  0.00    +0.000 N 
ATOM      5  H   UNL     1       9.517   8.079  19.549  0.00  0.00    +0.000 HD
ATOM      6  H   UNL     1      10.803   9.719  19.369  0.00  0.00    +0.000 HD
ENDROOT
BRANCH   4   7
ATOM      7  C   UNL     1      10.380  11.782  19.024  0.00  0.00    +0.000 C 
ATOM      8  C   UNL     1      11.713  12.093  19.751  0.00  0.00    +0.000 C 
ATOM      9  C   UNL     1      12.075  13.581  19.614  0.00  0.00    +0.000 C 
ATOM     10  C   UNL     1      12.227  13.944  18.128  0.00  0.00    +0.000 C 
ATOM     11  C   UNL     1      10.911  13.663  17.385  0.00  0.00    +0.000 C 
ATOM     12  C   UNL     1       9.788  14.512  17.999  0.00  0.00    +0.000 C 
ATOM     13  C   UNL     1       9.625  14.166  19.487  0.00  0.00    +0.000 C 
ATOM     14  C   UNL     1      10.949  14.439  20.222  0.00  0.00    +0.000 C 
ATOM     15  C   UNL     1       9.263  12.673  19.624  0.00  0.00    +0.000 C 
ATOM     16  C   UNL     1      10.554  12.173  17.529  0.00  0.00    +0.000 C 
ENDBRANCH   4   7
BRANCH   3  17
ATOM     17  C   UNL     1       7.886   7.498  18.419  0.00  0.00    +0.000 A 
ATOM     18  C   UNL     1       6.941   7.792  17.439  0.00  0.00    +0.000 A 
ATOM     19  C   UNL     1       5.939   6.878  17.101  0.00  0.00    +0.000 A 
ATOM     20  C   UNL     1       5.836   5.644  17.755  0.00  0.00    +0.000 A 
ATOM     21  C   UNL     1       6.816   5.316  18.694  0.00  0.00    +0.000 A 
ATOM     22  C   UNL     1       7.835   6.225  19.022  0.00  0.00    +0.000 A 
BRANCH  20  23
ATOM     23  C   UNL     1       4.721   4.730  17.480  0.00  0.00    +0.000 A 
ATOM     24  N   UNL     1       4.752   3.663  16.694  0.00  0.00    +0.000 NA
ATOM     25  N   UNL     1       3.505   3.105  16.747  0.00  0.00    +0.000 NA
ATOM     26  N   UNL     1       2.697   3.798  17.538  0.00  0.00    +0.000 NA
ATOM     27  N   UNL     1       3.461   4.781  18.060  0.00  0.00    +0.000 N 
BRANCH  27  28
ATOM     28  C   UNL     1       3.224   5.288  19.402  0.00  0.00    +0.000 C 
ATOM     29  C   UNL     1       1.853   5.161  20.041  0.00  0.00    +0.000 C 
ATOM     30  C   UNL     1       2.503   6.503  19.922  0.00  0.00    +0.000 C 
ENDBRANCH  27  28
ENDBRANCH  20  23
ENDBRANCH   3  17
TORSDOF 4
ENDMDL
MODEL 9
REMARK VINA RESULT:      -7.9      1.530      2.656
REMARK  Name = 
REMARK  4 active torsions:
REMARK  status: ('A' for Active; 'I' for Inactive)
REMARK    1  A    between atoms: N_3  and  C_4
REMARK    2  A    between atoms: C_7  and  C_8
REMARK    3  A    between atoms: N_12  and  C_13
REMARK    4  A    between atoms: N_18  and  C_19
REMARK                            x       y       z     vdW  Elec       q    Type
REMARK                         _______ _______ _______ _____ _____    ______ ____
ROOT
ATOM      1  O   UNL     1       1.938   7.767  19.358  0.00  0.00    +0.000 OA
ATOM      2  C   UNL     1       1.675   7.245  20.455  0.00  0.00    +0.000 C 
ATOM      3  N   UNL     1       1.117   7.885  21.537  0.00  0.00    +0.000 N 
ATOM      4  N   UNL     1       1.961   5.930  20.720  0.00  0.00    +0.000 N 
ATOM      5  H   UNL     1       1.206   7.394  22.418  0.00  0.00    +0.000 HD
ATOM      6  H   UNL     1       1.517   5.524  21.533  0.00  0.00    +0.000 HD
ENDROOT
BRANCH   4   7
ATOM      7  C   UNL     1       2.613   4.984  19.784  0.00  0.00    +0.000 C 
ATOM      8  C   UNL     1       4.096   5.364  19.541  0.00  0.00    +0.000 C 
ATOM      9  C   UNL     1       4.780   4.336  18.623  0.00  0.00    +0.000 C 
ATOM     10  C   UNL     1       4.726   2.944  19.272  0.00  0.00    +0.000 C 
ATOM     11  C   UNL     1       3.264   2.533  19.507  0.00  0.00    +0.000 C 
ATOM     12  C   UNL     1       2.524   2.491  18.162  0.00  0.00    +0.000 C 
ATOM     13  C   UNL     1       2.571   3.875  17.496  0.00  0.00    +0.000 C 
ATOM     14  C   UNL     1       4.038   4.284  17.274  0.00  0.00    +0.000 C 
ATOM     15  C   UNL     1       1.886   4.906  18.417  0.00  0.00    +0.000 C 
ATOM     16  C   UNL     1       2.587   3.567  20.424  0.00  0.00    +0.000 C 
ENDBRANCH   4   7
BRANCH   3  17
ATOM     17  C   UNL     1       0.687   9.219  21.598  0.00  0.00    +0.000 A 
ATOM     18  C   UNL     1       1.160  10.217  20.749  0.00  0.00    +0.000 A 
ATOM     19  C   UNL     1       0.741  11.544  20.884  0.00  0.00    +0.000 A 
ATOM     20  C   UNL     1      -0.153  11.918  21.896  0.00  0.00    +0.000 A 
ATOM     21  C   UNL     1      -0.679  10.914  22.711  0.00  0.00    +0.000 A 
ATOM     22  C   UNL     1      -0.273   9.578  22.566  0.00  0.00    +0.000 A 
BRANCH  20  23
ATOM     23  C   UNL     1      -0.509  13.326  22.109  0.00  0.00    +0.000 A 
ATOM     24  N   UNL     1       0.242  14.249  22.694  0.00  0.00    +0.000 NA
ATOM     25  N   UNL     1      -0.475  15.413  22.658  0.00  0.00    +0.000 NA
ATOM     26  N   UNL     1      -1.653  15.239  22.074  0.00  0.00    +0.000 NA
ATOM     27  N   UNL     1      -1.664  13.954  21.663  0.00  0.00    +0.000 N 
BRANCH  27  28
ATOM     28  C   UNL     1      -2.369  13.555  20.455  0.00  0.00    +0.000 C 
ATOM     29  C   UNL     1      -3.735  12.899  20.542  0.00  0.00    +0.000 C 
ATOM     30  C   UNL     1      -2.621  12.216  19.814  0.00  0.00    +0.000 C 
ENDBRANCH  27  28
ENDBRANCH  20  23
ENDBRANCH   3  17
TORSDOF 4
ENDMDL
