MODEL 1
REMARK VINA RESULT:      -8.3      0.000      0.000
REMARK  Name = 
REMARK  3 active torsions:
REMARK  status: ('A' for Active; 'I' for Inactive)
REMARK    1  A    between atoms: C_2  and  C_17
REMARK    2  A    between atoms: N_3  and  C_4
REMARK    3  A    between atoms: C_4  and  C_5
REMARK                            x       y       z     vdW  Elec       q    Type
REMARK                         _______ _______ _______ _____ _____    ______ ____
ROOT
ATOM      1  O   UNL     1       6.855   7.786  16.733  0.00  0.00    +0.000 OA
ATOM      2  C   UNL     1       7.640   7.817  17.677  0.00  0.00    +0.000 C 
ATOM      3  N   UNL     1       7.982   6.689  18.375  0.00  0.00    +0.000 N 
ATOM      4  H   UNL     1       8.669   6.709  19.118  0.00  0.00    +0.000 HD
ENDROOT
BRANCH   2   5
ATOM      5  C   UNL     1       8.263   9.052  18.136  0.00  0.00    +0.000 A 
ATOM      6  C   UNL     1       9.100   9.311  19.264  0.00  0.00    +0.000 A 
ATOM      7  C   UNL     1       9.454  10.645  19.231  0.00  0.00    +0.000 A 
ATOM      8  C   UNL     1      10.279  11.479  20.037  0.00  0.00    +0.000 A 
ATOM      9  C   UNL     1      10.434  12.777  19.709  0.00  0.00    +0.000 A 
ATOM     10  C   UNL     1       9.766  13.356  18.554  0.00  0.00    +0.000 A 
ATOM     11  C   UNL     1       8.987  12.571  17.794  0.00  0.00    +0.000 A 
ATOM     12  N   UNL     1       8.840  11.226  18.129  0.00  0.00    +0.000 N 
ATOM     13  C   UNL     1       8.115  10.264  17.480  0.00  0.00    +0.000 A 
ENDBRANCH   2   5
BRANCH   3  14
ATOM     14  C   UNL     1       7.394   5.412  18.032  0.00  0.00    +0.000 C 
BRANCH  14  15
ATOM     15  C   UNL     1       6.141   5.163  18.878  0.00  0.00    +0.000 C 
ATOM     16  O   UNL     1       6.261   5.244  20.107  0.00  0.00    +0.000 OA
ATOM     17  N   UNL     1       4.962   4.808  18.203  0.00  0.00    +0.000 N 
ATOM     18  C   UNL     1       4.905   4.657  16.739  0.00  0.00    +0.000 C 
ATOM     19  C   UNL     1       4.171   3.399  16.327  0.00  0.00    +0.000 C 
ATOM     20  C   UNL     1       2.744   3.440  16.830  0.00  0.00    +0.000 C 
ATOM     21  C   UNL     1       2.637   3.962  18.240  0.00  0.00    +0.000 A 
ATOM     22  C   UNL     1       1.409   3.783  18.903  0.00  0.00    +0.000 A 
ATOM     23  C   UNL     1       1.215   4.257  20.194  0.00  0.00    +0.000 A 
ATOM     24  C   UNL     1       2.249   4.929  20.834  0.00  0.00    +0.000 A 
ATOM     25  C   UNL     1       3.473   5.117  20.183  0.00  0.00    +0.000 A 
ATOM     26  C   UNL     1       3.701   4.630  18.886  0.00  0.00    +0.000 A 
ENDBRANCH  14  15
ENDBRANCH   3  14
TORSDOF 3
ENDMDL
MODEL 2
REMARK VINA RESULT:      -8.0      0.490      1.193
REMARK  Name = 
REMARK  3 active torsions:
REMARK  status: ('A' for Active; 'I' for Inactive)
REMARK    1  A    between atoms: C_2  and  C_17
REMARK    2  A    between atoms: N_3  and  C_4
REMARK    3  A    between atoms: C_4  and  C_5
REMARK                            x       y       z     vdW  Elec       q    Type
REMARK                         _______ _______ _______ _____ _____    ______ ____
ROOT
ATOM      1  O   UNL     1       6.894   7.796  16.721  0.00  0.00    +0.000 OA
ATOM      2  C   UNL     1       7.688   7.873  17.655  0.00  0.00    +0.000 C 
ATOM      3  N   UNL     1       8.074   6.772  18.372  0.00  0.00    +0.000 N 
ATOM      4  H   UNL     1       8.768   6.829  19.107  0.00  0.00    +0.000 HD
ENDROOT
BRANCH   2   5
ATOM      5  C   UNL     1       8.275   9.136  18.081  0.00  0.00    +0.000 A 
ATOM      6  C   UNL     1       8.274  10.422  17.460  0.00  0.00    +0.000 A 
ATOM      7  C   UNL     1       8.944  11.295  18.295  0.00  0.00    +0.000 A 
ATOM      8  C   UNL     1       9.239  12.688  18.252  0.00  0.00    +0.000 A 
ATOM      9  C   UNL     1       9.916  13.255  19.270  0.00  0.00    +0.000 A 
ATOM     10  C   UNL     1      10.370  12.475  20.411  0.00  0.00    +0.000 A 
ATOM     11  C   UNL     1      10.094  11.162  20.451  0.00  0.00    +0.000 A 
ATOM     12  N   UNL     1       9.381  10.583  19.403  0.00  0.00    +0.000 N 
ATOM     13  C   UNL     1       8.985   9.280  19.263  0.00  0.00    +0.000 A 
ENDBRANCH   2   5
BRANCH   3  14
ATOM     14  C   UNL     1       7.524   5.469  18.063  0.00  0.00    +0.000 C 
BRANCH  14  15
ATOM     15  C   UNL     1       6.253   5.225  18.883  0.00  0.00    +0.000 C 
ATOM     16  O   UNL     1       6.344   5.319  20.113  0.00  0.00    +0.000 OA
ATOM     17  N   UNL     1       5.091   4.858  18.184  0.00  0.00    +0.000 N 
ATOM     18  C   UNL     1       5.067   4.691  16.722  0.00  0.00    +0.000 C 
ATOM     19  C   UNL     1       4.348   3.426  16.306  0.00  0.00    +0.000 C 
ATOM     20  C   UNL     1       2.910   3.467  16.776  0.00  0.00    +0.000 C 
ATOM     21  C   UNL     1       2.769   4.003  18.177  0.00  0.00    +0.000 A 
ATOM     22  C   UNL     1       1.526   3.827  18.814  0.00  0.00    +0.000 A 
ATOM     23  C   UNL     1       1.301   4.313  20.095  0.00  0.00    +0.000 A 
ATOM     24  C   UNL     1       2.318   4.996  20.751  0.00  0.00    +0.000 A 
ATOM     25  C   UNL     1       3.556   5.182  20.126  0.00  0.00    +0.000 A 
ATOM     26  C   UNL     1       3.815   4.682  18.840  0.00  0.00    +0.000 A 
ENDBRANCH  14  15
ENDBRANCH   3  14
TORSDOF 3
ENDMDL
MODEL 3
REMARK VINA RESULT:      -8.0      6.167      8.472
REMARK  Name = 
REMARK  3 active torsions:
REMARK  status: ('A' for Active; 'I' for Inactive)
REMARK    1  A    between atoms: C_2  and  C_17
REMARK    2  A    between atoms: N_3  and  C_4
REMARK    3  A    between atoms: C_4  and  C_5
REMARK                            x       y       z     vdW  Elec       q    Type
REMARK                         _______ _______ _______ _____ _____    ______ ____
ROOT
ATOM      1  O   UNL     1       1.161  11.103  19.448  0.00  0.00    +0.000 OA
ATOM      2  C   UNL     1       0.415  10.385  18.788  0.00  0.00    +0.000 C 
ATOM      3  N   UNL     1       0.826   9.180  18.283  0.00  0.00    +0.000 N 
ATOM      4  H   UNL     1       0.194   8.566  17.785  0.00  0.00    +0.000 HD
ENDROOT
BRANCH   2   5
ATOM      5  C   UNL     1      -0.960  10.757  18.481  0.00  0.00    +0.000 A 
ATOM      6  C   UNL     1      -1.757  10.509  17.322  0.00  0.00    +0.000 A 
ATOM      7  C   UNL     1      -3.009  11.045  17.547  0.00  0.00    +0.000 A 
ATOM      8  C   UNL     1      -4.223  11.090  16.804  0.00  0.00    +0.000 A 
ATOM      9  C   UNL     1      -5.304  11.695  17.335  0.00  0.00    +0.000 A 
ATOM     10  C   UNL     1      -5.260  12.319  18.648  0.00  0.00    +0.000 A 
ATOM     11  C   UNL     1      -4.116  12.279  19.348  0.00  0.00    +0.000 A 
ATOM     12  N   UNL     1      -3.004  11.640  18.802  0.00  0.00    +0.000 N 
ATOM     13  C   UNL     1      -1.763  11.473  19.354  0.00  0.00    +0.000 A 
ENDBRANCH   2   5
BRANCH   3  14
ATOM     14  C   UNL     1       2.185   8.725  18.492  0.00  0.00    +0.000 C 
BRANCH  14  15
ATOM     15  C   UNL     1       2.195   7.498  19.409  0.00  0.00    +0.000 C 
ATOM     16  O   UNL     1       1.669   7.617  20.523  0.00  0.00    +0.000 OA
ATOM     17  N   UNL     1       2.850   6.346  18.944  0.00  0.00    +0.000 N 
ATOM     18  C   UNL     1       3.522   6.293  17.635  0.00  0.00    +0.000 C 
ATOM     19  C   UNL     1       4.891   5.654  17.726  0.00  0.00    +0.000 C 
ATOM     20  C   UNL     1       4.768   4.229  18.225  0.00  0.00    +0.000 C 
ATOM     21  C   UNL     1       3.781   4.091  19.355  0.00  0.00    +0.000 A 
ATOM     22  C   UNL     1       3.791   2.882  20.076  0.00  0.00    +0.000 A 
ATOM     23  C   UNL     1       2.898   2.659  21.116  0.00  0.00    +0.000 A 
ATOM     24  C   UNL     1       1.971   3.643  21.439  0.00  0.00    +0.000 A 
ATOM     25  C   UNL     1       1.948   4.847  20.726  0.00  0.00    +0.000 A 
ATOM     26  C   UNL     1       2.854   5.105  19.685  0.00  0.00    +0.000 A 
ENDBRANCH  14  15
ENDBRANCH   3  14
TORSDOF 3
ENDMDL
MODEL 4
REMARK VINA RESULT:      -7.9      5.888      8.330
REMARK  Name = 
REMARK  3 active torsions:
REMARK  status: ('A' for Active; 'I' for Inactive)
REMARK    1  A    between atoms: C_2  and  C_17
REMARK    2  A    between atoms: N_3  and  C_4
REMARK    3  A    between atoms: C_4  and  C_5
REMARK                            x       y       z     vdW  Elec       q    Type
REMARK                         _______ _______ _______ _____ _____    ______ ____
ROOT
ATOM      1  O   UNL     1       1.446   9.779  17.556  0.00  0.00    +0.000 OA
ATOM      2  C   UNL     1       0.567   9.701  18.411  0.00  0.00    +0.000 C 
ATOM      3  N   UNL     1       0.786   9.106  19.625  0.00  0.00    +0.000 N 
ATOM      4  H   UNL     1       0.076   9.090  20.347  0.00  0.00    +0.000 HD
ENDROOT
BRANCH   2   5
ATOM      5  C   UNL     1      -0.777  10.223  18.201  0.00  0.00    +0.000 A 
ATOM      6  C   UNL     1      -1.679  10.065  17.106  0.00  0.00    +0.000 A 
ATOM      7  C   UNL     1      -2.844  10.736  17.417  0.00  0.00    +0.000 A 
ATOM      8  C   UNL     1      -4.098  10.916  16.765  0.00  0.00    +0.000 A 
ATOM      9  C   UNL     1      -5.064  11.636  17.369  0.00  0.00    +0.000 A 
ATOM     10  C   UNL     1      -4.855  12.251  18.670  0.00  0.00    +0.000 A 
ATOM     11  C   UNL     1      -3.673  12.084  19.285  0.00  0.00    +0.000 A 
ATOM     12  N   UNL     1      -2.682  11.327  18.663  0.00  0.00    +0.000 N 
ATOM     13  C   UNL     1      -1.430  11.023  19.126  0.00  0.00    +0.000 A 
ENDBRANCH   2   5
BRANCH   3  14
ATOM     14  C   UNL     1       2.072   8.516  19.929  0.00  0.00    +0.000 C 
BRANCH  14  15
ATOM     15  C   UNL     1       1.990   6.990  19.831  0.00  0.00    +0.000 C 
ATOM     16  O   UNL     1       1.397   6.394  20.739  0.00  0.00    +0.000 OA
ATOM     17  N   UNL     1       2.639   6.373  18.748  0.00  0.00    +0.000 N 
ATOM     18  C   UNL     1       3.391   7.136  17.739  0.00  0.00    +0.000 C 
ATOM     19  C   UNL     1       4.732   6.505  17.434  0.00  0.00    +0.000 C 
ATOM     20  C   UNL     1       4.536   5.107  16.886  0.00  0.00    +0.000 C 
ATOM     21  C   UNL     1       3.477   4.334  17.626  0.00  0.00    +0.000 A 
ATOM     22  C   UNL     1       3.407   2.948  17.390  0.00  0.00    +0.000 A 
ATOM     23  C   UNL     1       2.443   2.163  18.011  0.00  0.00    +0.000 A 
ATOM     24  C   UNL     1       1.527   2.761  18.867  0.00  0.00    +0.000 A 
ATOM     25  C   UNL     1       1.584   4.139  19.105  0.00  0.00    +0.000 A 
ATOM     26  C   UNL     1       2.561   4.950  18.507  0.00  0.00    +0.000 A 
ENDBRANCH  14  15
ENDBRANCH   3  14
TORSDOF 3
ENDMDL
MODEL 5
REMARK VINA RESULT:      -7.8      6.038      8.684
REMARK  Name = 
REMARK  3 active torsions:
REMARK  status: ('A' for Active; 'I' for Inactive)
REMARK    1  A    between atoms: C_2  and  C_17
REMARK    2  A    between atoms: N_3  and  C_4
REMARK    3  A    between atoms: C_4  and  C_5
REMARK                            x       y       z     vdW  Elec       q    Type
REMARK                         _______ _______ _______ _____ _____    ______ ____
ROOT
ATOM      1  O   UNL     1       1.263  10.947  19.275  0.00  0.00    +0.000 OA
ATOM      2  C   UNL     1       0.285  10.208  19.344  0.00  0.00    +0.000 C 
ATOM      3  N   UNL     1       0.362   8.948  19.877  0.00  0.00    +0.000 N 
ATOM      4  H   UNL     1      -0.455   8.362  19.981  0.00  0.00    +0.000 HD
ENDROOT
BRANCH   2   5
ATOM      5  C   UNL     1      -1.031  10.603  18.858  0.00  0.00    +0.000 A 
ATOM      6  C   UNL     1      -1.705  10.296  17.637  0.00  0.00    +0.000 A 
ATOM      7  C   UNL     1      -2.951  10.890  17.681  0.00  0.00    +0.000 A 
ATOM      8  C   UNL     1      -4.073  10.921  16.805  0.00  0.00    +0.000 A 
ATOM      9  C   UNL     1      -5.180  11.599  17.167  0.00  0.00    +0.000 A 
ATOM     10  C   UNL     1      -5.254  12.317  18.430  0.00  0.00    +0.000 A 
ATOM     11  C   UNL     1      -4.197  12.290  19.255  0.00  0.00    +0.000 A 
ATOM     12  N   UNL     1      -3.059  11.575  18.884  0.00  0.00    +0.000 N 
ATOM     13  C   UNL     1      -1.895  11.408  19.583  0.00  0.00    +0.000 A 
ENDBRANCH   2   5
BRANCH   3  14
ATOM     14  C   UNL     1       1.628   8.434  20.355  0.00  0.00    +0.000 C 
BRANCH  14  15
ATOM     15  C   UNL     1       2.304   7.597  19.265  0.00  0.00    +0.000 C 
ATOM     16  O   UNL     1       2.696   8.193  18.253  0.00  0.00    +0.000 OA
ATOM     17  N   UNL     1       2.379   6.209  19.465  0.00  0.00    +0.000 N 
ATOM     18  C   UNL     1       1.826   5.552  20.661  0.00  0.00    +0.000 C 
ATOM     19  C   UNL     1       1.030   4.313  20.311  0.00  0.00    +0.000 C 
ATOM     20  C   UNL     1       1.920   3.304  19.616  0.00  0.00    +0.000 C 
ATOM     21  C   UNL     1       2.838   3.936  18.603  0.00  0.00    +0.000 A 
ATOM     22  C   UNL     1       3.501   3.076  17.707  0.00  0.00    +0.000 A 
ATOM     23  C   UNL     1       4.386   3.572  16.758  0.00  0.00    +0.000 A 
ATOM     24  C   UNL     1       4.628   4.939  16.704  0.00  0.00    +0.000 A 
ATOM     25  C   UNL     1       3.979   5.803  17.592  0.00  0.00    +0.000 A 
ATOM     26  C   UNL     1       3.064   5.329  18.546  0.00  0.00    +0.000 A 
ENDBRANCH  14  15
ENDBRANCH   3  14
TORSDOF 3
ENDMDL
MODEL 6
REMARK VINA RESULT:      -7.7      6.862      8.952
REMARK  Name = 
REMARK  3 active torsions:
REMARK  status: ('A' for Active; 'I' for Inactive)
REMARK    1  A    between atoms: C_2  and  C_17
REMARK    2  A    between atoms: N_3  and  C_4
REMARK    3  A    between atoms: C_4  and  C_5
REMARK                            x       y       z     vdW  Elec       q    Type
REMARK                         _______ _______ _______ _____ _____    ______ ____
ROOT
ATOM      1  O   UNL     1       1.195  11.796  21.183  0.00  0.00    +0.000 OA
ATOM      2  C   UNL     1       0.131  11.191  21.072  0.00  0.00    +0.000 C 
ATOM      3  N   UNL     1       0.025  10.035  20.345  0.00  0.00    +0.000 N 
ATOM      4  H   UNL     1      -0.840   9.512  20.299  0.00  0.00    +0.000 HD
ENDROOT
BRANCH   2   5
ATOM      5  C   UNL     1      -1.102  11.657  21.694  0.00  0.00    +0.000 A 
ATOM      6  C   UNL     1      -1.592  11.501  23.026  0.00  0.00    +0.000 A 
ATOM      7  C   UNL     1      -2.800  12.164  23.113  0.00  0.00    +0.000 A 
ATOM      8  C   UNL     1      -3.736  12.398  24.160  0.00  0.00    +0.000 A 
ATOM      9  C   UNL     1      -4.844  13.125  23.909  0.00  0.00    +0.000 A 
ATOM     10  C   UNL     1      -5.117  13.667  22.588  0.00  0.00    +0.000 A 
ATOM     11  C   UNL     1      -4.235  13.445  21.600  0.00  0.00    +0.000 A 
ATOM     12  N   UNL     1      -3.084  12.706  21.866  0.00  0.00    +0.000 N 
ATOM     13  C   UNL     1      -2.063  12.387  21.013  0.00  0.00    +0.000 A 
ENDBRANCH   2   5
BRANCH   3  14
ATOM     14  C   UNL     1       1.177   9.500  19.651  0.00  0.00    +0.000 C 
BRANCH  14  15
ATOM     15  C   UNL     1       1.519   8.108  20.192  0.00  0.00    +0.000 C 
ATOM     16  O   UNL     1       1.248   7.878  21.377  0.00  0.00    +0.000 OA
ATOM     17  N   UNL     1       2.166   7.215  19.322  0.00  0.00    +0.000 N 
ATOM     18  C   UNL     1       2.528   7.579  17.942  0.00  0.00    +0.000 C 
ATOM     19  C   UNL     1       3.941   7.158  17.597  0.00  0.00    +0.000 C 
ATOM     20  C   UNL     1       4.080   5.655  17.716  0.00  0.00    +0.000 C 
ATOM     21  C   UNL     1       3.392   5.101  18.937  0.00  0.00    +0.000 A 
ATOM     22  C   UNL     1       3.689   3.773  19.298  0.00  0.00    +0.000 A 
ATOM     23  C   UNL     1       3.080   3.175  20.394  0.00  0.00    +0.000 A 
ATOM     24  C   UNL     1       2.155   3.897  21.136  0.00  0.00    +0.000 A 
ATOM     25  C   UNL     1       1.849   5.217  20.784  0.00  0.00    +0.000 A 
ATOM     26  C   UNL     1       2.465   5.851  19.694  0.00  0.00    +0.000 A 
ENDBRANCH  14  15
ENDBRANCH   3  14
TORSDOF 3
ENDMDL
MODEL 7
REMARK VINA RESULT:      -7.7      5.915      8.268
REMARK  Name = 
REMARK  3 active torsions:
REMARK  status: ('A' for Active; 'I' for Inactive)
REMARK    1  A    between atoms: C_2  and  C_17
REMARK    2  A    between atoms: N_3  and  C_4
REMARK    3  A    between atoms: C_4  and  C_5
REMARK                            x       y       z     vdW  Elec       q    Type
REMARK                         _______ _______ _______ _____ _____    ______ ____
ROOT
ATOM      1  O   UNL     1       1.687   9.317  22.816  0.00  0.00    +0.000 OA
ATOM      2  C   UNL     1       0.795   9.318  21.972  0.00  0.00    +0.000 C 
ATOM      3  N   UNL     1       0.665   8.313  21.051  0.00  0.00    +0.000 N 
ATOM      4  H   UNL     1      -0.102   8.289  20.391  0.00  0.00    +0.000 HD
ENDROOT
BRANCH   2   5
ATOM      5  C   UNL     1      -0.190  10.388  21.875  0.00  0.00    +0.000 A 
ATOM      6  C   UNL     1      -0.523  11.253  20.788  0.00  0.00    +0.000 A 
ATOM      7  C   UNL     1      -1.554  12.073  21.201  0.00  0.00    +0.000 A 
ATOM      8  C   UNL     1      -2.327  13.095  20.579  0.00  0.00    +0.000 A 
ATOM      9  C   UNL     1      -3.303  13.707  21.278  0.00  0.00    +0.000 A 
ATOM     10  C   UNL     1      -3.580  13.362  22.663  0.00  0.00    +0.000 A 
ATOM     11  C   UNL     1      -2.851  12.401  23.251  0.00  0.00    +0.000 A 
ATOM     12  N   UNL     1      -1.852  11.759  22.521  0.00  0.00    +0.000 N 
ATOM     13  C   UNL     1      -1.019  10.751  22.924  0.00  0.00    +0.000 A 
ENDBRANCH   2   5
BRANCH   3  14
ATOM     14  C   UNL     1       1.610   7.217  21.027  0.00  0.00    +0.000 C 
BRANCH  14  15
ATOM     15  C   UNL     1       2.321   7.162  19.672  0.00  0.00    +0.000 C 
ATOM     16  O   UNL     1       2.243   8.164  18.949  0.00  0.00    +0.000 OA
ATOM     17  N   UNL     1       2.963   5.962  19.323  0.00  0.00    +0.000 N 
ATOM     18  C   UNL     1       2.956   4.779  20.199  0.00  0.00    +0.000 C 
ATOM     19  C   UNL     1       2.645   3.509  19.437  0.00  0.00    +0.000 C 
ATOM     20  C   UNL     1       3.694   3.273  18.371  0.00  0.00    +0.000 C 
ATOM     21  C   UNL     1       4.076   4.533  17.638  0.00  0.00    +0.000 A 
ATOM     22  C   UNL     1       4.823   4.389  16.454  0.00  0.00    +0.000 A 
ATOM     23  C   UNL     1       5.240   5.499  15.730  0.00  0.00    +0.000 A 
ATOM     24  C   UNL     1       4.922   6.770  16.192  0.00  0.00    +0.000 A 
ATOM     25  C   UNL     1       4.184   6.925  17.370  0.00  0.00    +0.000 A 
ATOM     26  C   UNL     1       3.733   5.820  18.109  0.00  0.00    +0.000 A 
ENDBRANCH  14  15
ENDBRANCH   3  14
TORSDOF 3
ENDMDL
MODEL 8
REMARK VINA RESULT:      -7.7      6.474      9.172
REMARK  Name = 
REMARK  3 active torsions:
REMARK  status: ('A' for Active; 'I' for Inactive)
REMARK    1  A    between atoms: C_2  and  C_17
REMARK    2  A    between atoms: N_3  and  C_4
REMARK    3  A    between atoms: C_4  and  C_5
REMARK                            x       y       z     vdW  Elec       q    Type
REMARK                         _______ _______ _______ _____ _____    ______ ____
ROOT
ATOM      1  O   UNL     1       2.789   8.433  17.374  0.00  0.00    +0.000 OA
ATOM      2  C   UNL     1       2.228   8.139  18.426  0.00  0.00    +0.000 C 
ATOM      3  N   UNL     1       1.389   9.009  19.070  0.00  0.00    +0.000 N 
ATOM      4  H   UNL     1       0.887   8.745  19.909  0.00  0.00    +0.000 HD
ENDROOT
BRANCH   2   5
ATOM      5  C   UNL     1       2.415   6.849  19.079  0.00  0.00    +0.000 A 
ATOM      6  C   UNL     1       1.825   6.308  20.262  0.00  0.00    +0.000 A 
ATOM      7  C   UNL     1       2.314   5.028  20.431  0.00  0.00    +0.000 A 
ATOM      8  C   UNL     1       2.085   3.989  21.378  0.00  0.00    +0.000 A 
ATOM      9  C   UNL     1       2.730   2.814  21.243  0.00  0.00    +0.000 A 
ATOM     10  C   UNL     1       3.670   2.580  20.158  0.00  0.00    +0.000 A 
ATOM     11  C   UNL     1       3.888   3.560  19.266  0.00  0.00    +0.000 A 
ATOM     12  N   UNL     1       3.208   4.769  19.401  0.00  0.00    +0.000 N 
ATOM     13  C   UNL     1       3.273   5.874  18.596  0.00  0.00    +0.000 A 
ENDBRANCH   2   5
BRANCH   3  14
ATOM     14  C   UNL     1       1.160  10.334  18.534  0.00  0.00    +0.000 C 
BRANCH  14  15
ATOM     15  C   UNL     1       0.015  11.018  19.289  0.00  0.00    +0.000 C 
ATOM     16  O   UNL     1       0.249  11.412  20.439  0.00  0.00    +0.000 OA
ATOM     17  N   UNL     1      -1.231  11.098  18.644  0.00  0.00    +0.000 N 
ATOM     18  C   UNL     1      -1.462  10.541  17.301  0.00  0.00    +0.000 C 
ATOM     19  C   UNL     1      -2.752   9.753  17.229  0.00  0.00    +0.000 C 
ATOM     20  C   UNL     1      -3.929  10.649  17.553  0.00  0.00    +0.000 C 
ATOM     21  C   UNL     1      -3.658  11.569  18.714  0.00  0.00    +0.000 A 
ATOM     22  C   UNL     1      -4.761  12.239  19.277  0.00  0.00    +0.000 A 
ATOM     23  C   UNL     1      -4.598  13.127  20.333  0.00  0.00    +0.000 A 
ATOM     24  C   UNL     1      -3.323  13.364  20.832  0.00  0.00    +0.000 A 
ATOM     25  C   UNL     1      -2.219  12.707  20.277  0.00  0.00    +0.000 A 
ATOM     26  C   UNL     1      -2.359  11.790  19.223  0.00  0.00    +0.000 A 
ENDBRANCH  14  15
ENDBRANCH   3  14
TORSDOF 3
ENDMDL
MODEL 9
REMARK VINA RESULT:      -7.7      5.165      8.071
REMARK  Name = 
REMARK  3 active torsions:
REMARK  status: ('A' for Active; 'I' for Inactive)
REMARK    1  A    between atoms: C_2  and  C_17
REMARK    2  A    between atoms: N_3  and  C_4
REMARK    3  A    between atoms: C_4  and  C_5
REMARK                            x       y       z     vdW  Elec       q    Type
REMARK                         _______ _______ _______ _____ _____    ______ ____
ROOT
ATOM      1  O   UNL     1       2.674   5.014  20.404  0.00  0.00    +0.000 OA
ATOM      2  C   UNL     1       2.988   5.783  19.499  0.00  0.00    +0.000 C 
ATOM      3  N   UNL     1       2.534   7.074  19.451  0.00  0.00    +0.000 N 
ATOM      4  H   UNL     1       2.836   7.720  18.734  0.00  0.00    +0.000 HD
ENDROOT
BRANCH   2   5
ATOM      5  C   UNL     1       3.859   5.384  18.401  0.00  0.00    +0.000 A 
ATOM      6  C   UNL     1       3.617   4.534  17.279  0.00  0.00    +0.000 A 
ATOM      7  C   UNL     1       4.763   4.511  16.511  0.00  0.00    +0.000 A 
ATOM      8  C   UNL     1       5.128   3.892  15.281  0.00  0.00    +0.000 A 
ATOM      9  C   UNL     1       6.362   4.093  14.776  0.00  0.00    +0.000 A 
ATOM     10  C   UNL     1       7.341   4.919  15.465  0.00  0.00    +0.000 A 
ATOM     11  C   UNL     1       6.999   5.501  16.625  0.00  0.00    +0.000 A 
ATOM     12  N   UNL     1       5.718   5.302  17.136  0.00  0.00    +0.000 N 
ATOM     13  C   UNL     1       5.171   5.816  18.280  0.00  0.00    +0.000 A 
ENDBRANCH   2   5
BRANCH   3  14
ATOM     14  C   UNL     1       1.630   7.568  20.469  0.00  0.00    +0.000 C 
BRANCH  14  15
ATOM     15  C   UNL     1       1.084   8.942  20.067  0.00  0.00    +0.000 C 
ATOM     16  O   UNL     1       1.547   9.460  19.042  0.00  0.00    +0.000 OA
ATOM     17  N   UNL     1       0.140   9.540  20.919  0.00  0.00    +0.000 N 
ATOM     18  C   UNL     1      -0.315   8.902  22.165  0.00  0.00    +0.000 C 
ATOM     19  C   UNL     1      -0.338   9.874  23.325  0.00  0.00    +0.000 C 
ATOM     20  C   UNL     1      -1.291  11.013  23.030  0.00  0.00    +0.000 C 
ATOM     21  C   UNL     1      -1.180  11.513  21.613  0.00  0.00    +0.000 A 
ATOM     22  C   UNL     1      -1.807  12.737  21.310  0.00  0.00    +0.000 A 
ATOM     23  C   UNL     1      -1.777  13.259  20.023  0.00  0.00    +0.000 A 
ATOM     24  C   UNL     1      -1.129  12.552  19.017  0.00  0.00    +0.000 A 
ATOM     25  C   UNL     1      -0.507  11.332  19.306  0.00  0.00    +0.000 A 
ATOM     26  C   UNL     1      -0.504  10.794  20.602  0.00  0.00    +0.000 A 
ENDBRANCH  14  15
ENDBRANCH   3  14
TORSDOF 3
ENDMDL
