MODEL 1
REMARK VINA RESULT:      -9.1      0.000      0.000
REMARK  Name = 
REMARK  5 active torsions:
REMARK  status: ('A' for Active; 'I' for Inactive)
REMARK    1  A    between atoms: C_1  and  C_2
REMARK    2  A    between atoms: C_2  and  C_3
REMARK    3  A    between atoms: C_9  and  C_10
REMARK    4  A    between atoms: C_10  and  N_11
REMARK    5  A    between atoms: N_11  and  C_12
REMARK                            x       y       z     vdW  Elec       q    Type
REMARK                         _______ _______ _______ _____ _____    ______ ____
ROOT
ATOM      1  N   UNL     1       2.610   6.769  20.246  0.00  0.00    +0.000 N 
ATOM      2  H   UNL     1       3.380   6.521  19.630  0.00  0.00    +0.000 HD
ENDROOT
BRANCH   1   3
ATOM      3  C   UNL     1       1.880   7.864  19.759  0.00  0.00    +0.000 A 
ATOM      4  C   UNL     1       2.065   8.267  18.428  0.00  0.00    +0.000 A 
ATOM      5  C   UNL     1       1.450   9.419  17.925  0.00  0.00    +0.000 A 
ATOM      6  C   UNL     1       0.662  10.202  18.763  0.00  0.00    +0.000 A 
ATOM      7  C   UNL     1       0.478   9.849  20.105  0.00  0.00    +0.000 A 
ATOM      8  C   UNL     1       1.096   8.681  20.586  0.00  0.00    +0.000 A 
ATOM      9  C   UNL     1      -0.298  10.725  21.062  0.00  0.00    +0.000 C 
ATOM     10  C   UNL     1       0.309  12.126  21.201  0.00  0.00    +0.000 C 
ATOM     11  C   UNL     1       0.010  13.050  20.018  0.00  0.00    +0.000 C 
ATOM     12  C   UNL     1       0.651  12.553  18.733  0.00  0.00    +0.000 C 
ATOM     13  O   UNL     1       1.605  13.111  18.202  0.00  0.00    +0.000 OA
ATOM     14  N   UNL     1       0.071  11.382  18.245  0.00  0.00    +0.000 N 
ATOM     15  H   UNL     1      -0.907  11.384  18.512  0.00  0.00    +0.000 HD
ENDBRANCH   1   3
BRANCH   1  16
ATOM     16  C   UNL     1       1.875   5.577  20.674  0.00  0.00    +0.000 C 
BRANCH  16  25
ATOM     17  C   UNL     1       6.229   4.693  18.278  0.00  0.00    +0.000 C 
ATOM     18  C   UNL     1       4.911   5.030  17.573  0.00  0.00    +0.000 C 
ATOM     19  C   UNL     1       5.121   6.189  16.596  0.00  0.00    +0.000 C 
ATOM     20  C   UNL     1       4.314   3.796  16.857  0.00  0.00    +0.000 C 
ATOM     21  C   UNL     1       3.168   3.501  17.748  0.00  0.00    +0.000 A 
ATOM     22  C   UNL     1       2.275   2.445  17.690  0.00  0.00    +0.000 A 
ATOM     23  C   UNL     1       1.243   2.403  18.628  0.00  0.00    +0.000 A 
ATOM     24  C   UNL     1       1.123   3.407  19.603  0.00  0.00    +0.000 A 
ATOM     25  C   UNL     1       2.032   4.478  19.656  0.00  0.00    +0.000 A 
ATOM     26  C   UNL     1       3.040   4.496  18.705  0.00  0.00    +0.000 A 
ATOM     27  O   UNL     1       3.980   5.485  18.595  0.00  0.00    +0.000 OA
ENDBRANCH  16  25
ENDBRANCH   1  16
TORSDOF 3
ENDMDL
MODEL 2
REMARK VINA RESULT:      -8.7      2.137      7.907
REMARK  Name = 
REMARK  5 active torsions:
REMARK  status: ('A' for Active; 'I' for Inactive)
REMARK    1  A    between atoms: C_1  and  C_2
REMARK    2  A    between atoms: C_2  and  C_3
REMARK    3  A    between atoms: C_9  and  C_10
REMARK    4  A    between atoms: C_10  and  N_11
REMARK    5  A    between atoms: N_11  and  C_12
REMARK                            x       y       z     vdW  Elec       q    Type
REMARK                         _______ _______ _______ _____ _____    ______ ____
ROOT
ATOM      1  N   UNL     1       1.830   7.187  20.350  0.00  0.00    +0.000 N 
ATOM      2  H   UNL     1       0.968   6.705  20.594  0.00  0.00    +0.000 HD
ENDROOT
BRANCH   1   3
ATOM      3  C   UNL     1       2.682   6.383  19.579  0.00  0.00    +0.000 A 
ATOM      4  C   UNL     1       3.141   5.169  20.114  0.00  0.00    +0.000 A 
ATOM      5  C   UNL     1       4.080   4.385  19.436  0.00  0.00    +0.000 A 
ATOM      6  C   UNL     1       4.596   4.823  18.220  0.00  0.00    +0.000 A 
ATOM      7  C   UNL     1       4.186   6.042  17.669  0.00  0.00    +0.000 A 
ATOM      8  C   UNL     1       3.232   6.809  18.362  0.00  0.00    +0.000 A 
ATOM      9  C   UNL     1       4.793   6.588  16.397  0.00  0.00    +0.000 C 
ATOM     10  C   UNL     1       6.307   6.807  16.514  0.00  0.00    +0.000 C 
ATOM     11  C   UNL     1       7.126   5.517  16.423  0.00  0.00    +0.000 C 
ATOM     12  C   UNL     1       6.850   4.584  17.590  0.00  0.00    +0.000 C 
ATOM     13  O   UNL     1       7.661   4.373  18.485  0.00  0.00    +0.000 OA
ATOM     14  N   UNL     1       5.570   4.030  17.561  0.00  0.00    +0.000 N 
ATOM     15  H   UNL     1       5.292   3.938  16.591  0.00  0.00    +0.000 HD
ENDBRANCH   1   3
BRANCH   1  16
ATOM     16  C   UNL     1       1.557   8.550  19.893  0.00  0.00    +0.000 C 
BRANCH  16  25
ATOM     17  C   UNL     1      -2.364  11.438  18.565  0.00  0.00    +0.000 C 
ATOM     18  C   UNL     1      -1.155  11.940  19.362  0.00  0.00    +0.000 C 
ATOM     19  C   UNL     1      -0.577  13.195  18.702  0.00  0.00    +0.000 C 
ATOM     20  C   UNL     1      -1.516  12.203  20.842  0.00  0.00    +0.000 C 
ATOM     21  C   UNL     1      -0.823  11.066  21.490  0.00  0.00    +0.000 A 
ATOM     22  C   UNL     1      -0.832  10.691  22.822  0.00  0.00    +0.000 A 
ATOM     23  C   UNL     1      -0.061   9.592  23.203  0.00  0.00    +0.000 A 
ATOM     24  C   UNL     1       0.700   8.891  22.253  0.00  0.00    +0.000 A 
ATOM     25  C   UNL     1       0.706   9.277  20.902  0.00  0.00    +0.000 A 
ATOM     26  C   UNL     1      -0.063  10.377  20.557  0.00  0.00    +0.000 A 
ATOM     27  O   UNL     1      -0.135  10.904  19.296  0.00  0.00    +0.000 OA
ENDBRANCH  16  25
ENDBRANCH   1  16
TORSDOF 3
ENDMDL
MODEL 3
REMARK VINA RESULT:      -8.7      2.083      8.054
REMARK  Name = 
REMARK  5 active torsions:
REMARK  status: ('A' for Active; 'I' for Inactive)
REMARK    1  A    between atoms: C_1  and  C_2
REMARK    2  A    between atoms: C_2  and  C_3
REMARK    3  A    between atoms: C_9  and  C_10
REMARK    4  A    between atoms: C_10  and  N_11
REMARK    5  A    between atoms: N_11  and  C_12
REMARK                            x       y       z     vdW  Elec       q    Type
REMARK                         _______ _______ _______ _____ _____    ______ ____
ROOT
ATOM      1  N   UNL     1       1.274   8.975  19.832  0.00  0.00    +0.000 N 
ATOM      2  H   UNL     1       0.382   8.876  20.310  0.00  0.00    +0.000 HD
ENDROOT
BRANCH   1   3
ATOM      3  C   UNL     1       1.898   7.736  19.624  0.00  0.00    +0.000 A 
ATOM      4  C   UNL     1       2.592   7.515  18.425  0.00  0.00    +0.000 A 
ATOM      5  C   UNL     1       3.134   6.263  18.118  0.00  0.00    +0.000 A 
ATOM      6  C   UNL     1       2.961   5.201  19.000  0.00  0.00    +0.000 A 
ATOM      7  C   UNL     1       2.249   5.373  20.193  0.00  0.00    +0.000 A 
ATOM      8  C   UNL     1       1.723   6.644  20.487  0.00  0.00    +0.000 A 
ATOM      9  C   UNL     1       1.968   4.221  21.129  0.00  0.00    +0.000 C 
ATOM     10  C   UNL     1       1.161   3.102  20.458  0.00  0.00    +0.000 C 
ATOM     11  C   UNL     1       1.990   2.219  19.522  0.00  0.00    +0.000 C 
ATOM     12  C   UNL     1       2.514   2.994  18.324  0.00  0.00    +0.000 C 
ATOM     13  O   UNL     1       2.090   2.832  17.186  0.00  0.00    +0.000 OA
ATOM     14  N   UNL     1       3.491   3.931  18.660  0.00  0.00    +0.000 N 
ATOM     15  H   UNL     1       3.998   3.579  19.463  0.00  0.00    +0.000 HD
ENDBRANCH   1   3
BRANCH   1  16
ATOM     16  C   UNL     1       1.164   9.897  18.701  0.00  0.00    +0.000 C 
BRANCH  16  25
ATOM     17  C   UNL     1      -0.373  14.125  20.990  0.00  0.00    +0.000 C 
ATOM     18  C   UNL     1      -0.996  12.745  21.221  0.00  0.00    +0.000 C 
ATOM     19  C   UNL     1      -1.053  12.440  22.721  0.00  0.00    +0.000 C 
ATOM     20  C   UNL     1      -2.396  12.635  20.575  0.00  0.00    +0.000 C 
ATOM     21  C   UNL     1      -2.093  11.740  19.435  0.00  0.00    +0.000 A 
ATOM     22  C   UNL     1      -2.930  11.322  18.415  0.00  0.00    +0.000 A 
ATOM     23  C   UNL     1      -2.419  10.437  17.464  0.00  0.00    +0.000 A 
ATOM     24  C   UNL     1      -1.091   9.988  17.548  0.00  0.00    +0.000 A 
ATOM     25  C   UNL     1      -0.246  10.414  18.587  0.00  0.00    +0.000 A 
ATOM     26  C   UNL     1      -0.786  11.287  19.520  0.00  0.00    +0.000 A 
ATOM     27  O   UNL     1      -0.111  11.765  20.611  0.00  0.00    +0.000 OA
ENDBRANCH  16  25
ENDBRANCH   1  16
TORSDOF 3
ENDMDL
MODEL 4
REMARK VINA RESULT:      -8.7      2.507      7.900
REMARK  Name = 
REMARK  5 active torsions:
REMARK  status: ('A' for Active; 'I' for Inactive)
REMARK    1  A    between atoms: C_1  and  C_2
REMARK    2  A    between atoms: C_2  and  C_3
REMARK    3  A    between atoms: C_9  and  C_10
REMARK    4  A    between atoms: C_10  and  N_11
REMARK    5  A    between atoms: N_11  and  C_12
REMARK                            x       y       z     vdW  Elec       q    Type
REMARK                         _______ _______ _______ _____ _____    ______ ____
ROOT
ATOM      1  N   UNL     1       2.599   8.740  18.103  0.00  0.00    +0.000 N 
ATOM      2  H   UNL     1       2.835   9.406  18.835  0.00  0.00    +0.000 HD
ENDROOT
BRANCH   1   3
ATOM      3  C   UNL     1       2.955   7.429  18.452  0.00  0.00    +0.000 A 
ATOM      4  C   UNL     1       3.814   6.709  17.608  0.00  0.00    +0.000 A 
ATOM      5  C   UNL     1       4.110   5.363  17.847  0.00  0.00    +0.000 A 
ATOM      6  C   UNL     1       3.523   4.709  18.926  0.00  0.00    +0.000 A 
ATOM      7  C   UNL     1       2.637   5.384  19.773  0.00  0.00    +0.000 A 
ATOM      8  C   UNL     1       2.363   6.741  19.520  0.00  0.00    +0.000 A 
ATOM      9  C   UNL     1       1.914   4.680  20.898  0.00  0.00    +0.000 C 
ATOM     10  C   UNL     1       1.033   3.528  20.401  0.00  0.00    +0.000 C 
ATOM     11  C   UNL     1       1.816   2.266  20.032  0.00  0.00    +0.000 C 
ATOM     12  C   UNL     1       2.738   2.494  18.846  0.00  0.00    +0.000 C 
ATOM     13  O   UNL     1       2.534   2.012  17.738  0.00  0.00    +0.000 OA
ATOM     14  N   UNL     1       3.811   3.337  19.137  0.00  0.00    +0.000 N 
ATOM     15  H   UNL     1       4.047   3.215  20.115  0.00  0.00    +0.000 HD
ENDBRANCH   1   3
BRANCH   1  16
ATOM     16  C   UNL     1       1.250   8.982  17.589  0.00  0.00    +0.000 C 
BRANCH  16  25
ATOM     17  C   UNL     1      -3.781   9.377  17.676  0.00  0.00    +0.000 C 
ATOM     18  C   UNL     1      -2.833  10.526  17.317  0.00  0.00    +0.000 C 
ATOM     19  C   UNL     1      -3.251  11.152  15.984  0.00  0.00    +0.000 C 
ATOM     20  C   UNL     1      -2.772  11.588  18.438  0.00  0.00    +0.000 C 
ATOM     21  C   UNL     1      -1.419  11.323  18.981  0.00  0.00    +0.000 A 
ATOM     22  C   UNL     1      -0.795  11.901  20.073  0.00  0.00    +0.000 A 
ATOM     23  C   UNL     1       0.512  11.510  20.368  0.00  0.00    +0.000 A 
ATOM     24  C   UNL     1       1.167  10.555  19.574  0.00  0.00    +0.000 A 
ATOM     25  C   UNL     1       0.529   9.973  18.465  0.00  0.00    +0.000 A 
ATOM     26  C   UNL     1      -0.765  10.388  18.194  0.00  0.00    +0.000 A 
ATOM     27  O   UNL     1      -1.510   9.950  17.132  0.00  0.00    +0.000 OA
ENDBRANCH  16  25
ENDBRANCH   1  16
TORSDOF 3
ENDMDL
MODEL 5
REMARK VINA RESULT:      -8.7      1.946      7.995
REMARK  Name = 
REMARK  5 active torsions:
REMARK  status: ('A' for Active; 'I' for Inactive)
REMARK    1  A    between atoms: C_1  and  C_2
REMARK    2  A    between atoms: C_2  and  C_3
REMARK    3  A    between atoms: C_9  and  C_10
REMARK    4  A    between atoms: C_10  and  N_11
REMARK    5  A    between atoms: N_11  and  C_12
REMARK                            x       y       z     vdW  Elec       q    Type
REMARK                         _______ _______ _______ _____ _____    ______ ____
ROOT
ATOM      1  N   UNL     1       1.087   9.065  20.092  0.00  0.00    +0.000 N 
ATOM      2  H   UNL     1       1.280   9.779  19.394  0.00  0.00    +0.000 HD
ENDROOT
BRANCH   1   3
ATOM      3  C   UNL     1       1.742   7.858  19.803  0.00  0.00    +0.000 A 
ATOM      4  C   UNL     1       2.450   7.740  18.597  0.00  0.00    +0.000 A 
ATOM      5  C   UNL     1       3.024   6.525  18.207  0.00  0.00    +0.000 A 
ATOM      6  C   UNL     1       2.871   5.400  19.011  0.00  0.00    +0.000 A 
ATOM      7  C   UNL     1       2.145   5.470  20.206  0.00  0.00    +0.000 A 
ATOM      8  C   UNL     1       1.587   6.705  20.584  0.00  0.00    +0.000 A 
ATOM      9  C   UNL     1       1.885   4.248  21.055  0.00  0.00    +0.000 C 
ATOM     10  C   UNL     1       1.111   3.160  20.299  0.00  0.00    +0.000 C 
ATOM     11  C   UNL     1       1.967   2.366  19.311  0.00  0.00    +0.000 C 
ATOM     12  C   UNL     1       2.482   3.236  18.176  0.00  0.00    +0.000 C 
ATOM     13  O   UNL     1       2.070   3.146  17.025  0.00  0.00    +0.000 OA
ATOM     14  N   UNL     1       3.433   4.170  18.586  0.00  0.00    +0.000 N 
ATOM     15  H   UNL     1       3.942   3.774  19.367  0.00  0.00    +0.000 HD
ENDBRANCH   1   3
BRANCH   1  16
ATOM     16  C   UNL     1       1.198   9.610  21.446  0.00  0.00    +0.000 C 
BRANCH  16  25
ATOM     17  C   UNL     1      -1.659  11.739  17.871  0.00  0.00    +0.000 C 
ATOM     18  C   UNL     1      -0.937  12.519  18.974  0.00  0.00    +0.000 C 
ATOM     19  C   UNL     1      -0.106  13.648  18.358  0.00  0.00    +0.000 C 
ATOM     20  C   UNL     1      -1.925  13.064  20.030  0.00  0.00    +0.000 C 
ATOM     21  C   UNL     1      -1.616  12.169  21.169  0.00  0.00    +0.000 A 
ATOM     22  C   UNL     1      -2.232  12.097  22.406  0.00  0.00    +0.000 A 
ATOM     23  C   UNL     1      -1.731  11.189  23.340  0.00  0.00    +0.000 A 
ATOM     24  C   UNL     1      -0.632  10.374  23.024  0.00  0.00    +0.000 A 
ATOM     25  C   UNL     1      -0.009  10.453  21.767  0.00  0.00    +0.000 A 
ATOM     26  C   UNL     1      -0.525  11.371  20.865  0.00  0.00    +0.000 A 
ATOM     27  O   UNL     1      -0.011  11.598  19.616  0.00  0.00    +0.000 OA
ENDBRANCH  16  25
ENDBRANCH   1  16
TORSDOF 3
ENDMDL
MODEL 6
REMARK VINA RESULT:      -8.5      1.585      3.235
REMARK  Name = 
REMARK  5 active torsions:
REMARK  status: ('A' for Active; 'I' for Inactive)
REMARK    1  A    between atoms: C_1  and  C_2
REMARK    2  A    between atoms: C_2  and  C_3
REMARK    3  A    between atoms: C_9  and  C_10
REMARK    4  A    between atoms: C_10  and  N_11
REMARK    5  A    between atoms: N_11  and  C_12
REMARK                            x       y       z     vdW  Elec       q    Type
REMARK                         _______ _______ _______ _____ _____    ______ ____
ROOT
ATOM      1  N   UNL     1       2.986   7.252  18.922  0.00  0.00    +0.000 N 
ATOM      2  H   UNL     1       3.666   7.109  19.665  0.00  0.00    +0.000 HD
ENDROOT
BRANCH   1   3
ATOM      3  C   UNL     1       1.953   8.116  19.315  0.00  0.00    +0.000 A 
ATOM      4  C   UNL     1       1.768   9.318  18.616  0.00  0.00    +0.000 A 
ATOM      5  C   UNL     1       0.829  10.266  19.035  0.00  0.00    +0.000 A 
ATOM      6  C   UNL     1       0.080  10.034  20.184  0.00  0.00    +0.000 A 
ATOM      7  C   UNL     1       0.257   8.860  20.926  0.00  0.00    +0.000 A 
ATOM      8  C   UNL     1       1.198   7.915  20.479  0.00  0.00    +0.000 A 
ATOM      9  C   UNL     1      -0.476   8.618  22.226  0.00  0.00    +0.000 C 
ATOM     10  C   UNL     1      -0.170   9.688  23.281  0.00  0.00    +0.000 C 
ATOM     11  C   UNL     1      -0.899  11.013  23.047  0.00  0.00    +0.000 C 
ATOM     12  C   UNL     1      -0.445  11.693  21.766  0.00  0.00    +0.000 C 
ATOM     13  O   UNL     1       0.236  12.712  21.754  0.00  0.00    +0.000 OA
ATOM     14  N   UNL     1      -0.846  11.018  20.612  0.00  0.00    +0.000 N 
ATOM     15  H   UNL     1      -1.724  10.555  20.812  0.00  0.00    +0.000 HD
ENDBRANCH   1   3
BRANCH   1  16
ATOM     16  C   UNL     1       3.652   7.500  17.642  0.00  0.00    +0.000 C 
BRANCH  16  25
ATOM     17  C   UNL     1       1.332   3.065  18.296  0.00  0.00    +0.000 C 
ATOM     18  C   UNL     1       2.766   3.361  18.746  0.00  0.00    +0.000 C 
ATOM     19  C   UNL     1       2.941   2.984  20.220  0.00  0.00    +0.000 C 
ATOM     20  C   UNL     1       3.805   2.640  17.857  0.00  0.00    +0.000 C 
ATOM     21  C   UNL     1       4.351   3.790  17.100  0.00  0.00    +0.000 A 
ATOM     22  C   UNL     1       5.276   3.789  16.071  0.00  0.00    +0.000 A 
ATOM     23  C   UNL     1       5.667   5.017  15.536  0.00  0.00    +0.000 A 
ATOM     24  C   UNL     1       5.131   6.216  16.033  0.00  0.00    +0.000 A 
ATOM     25  C   UNL     1       4.193   6.211  17.080  0.00  0.00    +0.000 A 
ATOM     26  C   UNL     1       3.831   4.975  17.596  0.00  0.00    +0.000 A 
ATOM     27  O   UNL     1       2.962   4.799  18.639  0.00  0.00    +0.000 OA
ENDBRANCH  16  25
ENDBRANCH   1  16
TORSDOF 3
ENDMDL
MODEL 7
REMARK VINA RESULT:      -8.5      1.965      7.975
REMARK  Name = 
REMARK  5 active torsions:
REMARK  status: ('A' for Active; 'I' for Inactive)
REMARK    1  A    between atoms: C_1  and  C_2
REMARK    2  A    between atoms: C_2  and  C_3
REMARK    3  A    between atoms: C_9  and  C_10
REMARK    4  A    between atoms: C_10  and  N_11
REMARK    5  A    between atoms: N_11  and  C_12
REMARK                            x       y       z     vdW  Elec       q    Type
REMARK                         _______ _______ _______ _____ _____    ______ ____
ROOT
ATOM      1  N   UNL     1       1.189   8.915  20.426  0.00  0.00    +0.000 N 
ATOM      2  H   UNL     1       1.568   9.720  19.933  0.00  0.00    +0.000 HD
ENDROOT
BRANCH   1   3
ATOM      3  C   UNL     1       1.808   7.719  20.033  0.00  0.00    +0.000 A 
ATOM      4  C   UNL     1       2.464   7.668  18.793  0.00  0.00    +0.000 A 
ATOM      5  C   UNL     1       2.998   6.472  18.302  0.00  0.00    +0.000 A 
ATOM      6  C   UNL     1       2.856   5.300  19.037  0.00  0.00    +0.000 A 
ATOM      7  C   UNL     1       2.181   5.304  20.264  0.00  0.00    +0.000 A 
ATOM      8  C   UNL     1       1.663   6.520  20.744  0.00  0.00    +0.000 A 
ATOM      9  C   UNL     1       1.932   4.033  21.043  0.00  0.00    +0.000 C 
ATOM     10  C   UNL     1       1.107   3.010  20.252  0.00  0.00    +0.000 C 
ATOM     11  C   UNL     1       1.907   2.268  19.179  0.00  0.00    +0.000 C 
ATOM     12  C   UNL     1       2.391   3.201  18.082  0.00  0.00    +0.000 C 
ATOM     13  O   UNL     1       1.931   3.193  16.945  0.00  0.00    +0.000 OA
ATOM     14  N   UNL     1       3.377   4.091  18.510  0.00  0.00    +0.000 N 
ATOM     15  H   UNL     1       3.909   3.636  19.242  0.00  0.00    +0.000 HD
ENDBRANCH   1   3
BRANCH   1  16
ATOM     16  C   UNL     1       1.056   9.192  21.858  0.00  0.00    +0.000 C 
BRANCH  16  25
ATOM     17  C   UNL     1       0.649  12.956  18.520  0.00  0.00    +0.000 C 
ATOM     18  C   UNL     1       1.085  13.140  19.977  0.00  0.00    +0.000 C 
ATOM     19  C   UNL     1       2.398  13.927  20.035  0.00  0.00    +0.000 C 
ATOM     20  C   UNL     1      -0.014  13.825  20.821  0.00  0.00    +0.000 C 
ATOM     21  C   UNL     1      -0.472  12.679  21.640  0.00  0.00    +0.000 A 
ATOM     22  C   UNL     1      -1.513  12.626  22.551  0.00  0.00    +0.000 A 
ATOM     23  C   UNL     1      -1.728  11.429  23.236  0.00  0.00    +0.000 A 
ATOM     24  C   UNL     1      -0.907  10.315  23.001  0.00  0.00    +0.000 A 
ATOM     25  C   UNL     1       0.149  10.375  22.076  0.00  0.00    +0.000 A 
ATOM     26  C   UNL     1       0.342  11.580  21.418  0.00  0.00    +0.000 A 
ATOM     27  O   UNL     1       1.348  11.815  20.518  0.00  0.00    +0.000 OA
ENDBRANCH  16  25
ENDBRANCH   1  16
TORSDOF 3
ENDMDL
MODEL 8
REMARK VINA RESULT:      -8.4      2.471      8.066
REMARK  Name = 
REMARK  5 active torsions:
REMARK  status: ('A' for Active; 'I' for Inactive)
REMARK    1  A    between atoms: C_1  and  C_2
REMARK    2  A    between atoms: C_2  and  C_3
REMARK    3  A    between atoms: C_9  and  C_10
REMARK    4  A    between atoms: C_10  and  N_11
REMARK    5  A    between atoms: N_11  and  C_12
REMARK                            x       y       z     vdW  Elec       q    Type
REMARK                         _______ _______ _______ _____ _____    ______ ____
ROOT
ATOM      1  N   UNL     1       1.806   8.826  18.177  0.00  0.00    +0.000 N 
ATOM      2  H   UNL     1       2.250   9.612  17.709  0.00  0.00    +0.000 HD
ENDROOT
BRANCH   1   3
ATOM      3  C   UNL     1       2.643   7.701  18.222  0.00  0.00    +0.000 A 
ATOM      4  C   UNL     1       2.622   6.882  19.361  0.00  0.00    +0.000 A 
ATOM      5  C   UNL     1       3.516   5.816  19.508  0.00  0.00    +0.000 A 
ATOM      6  C   UNL     1       4.467   5.574  18.522  0.00  0.00    +0.000 A 
ATOM      7  C   UNL     1       4.541   6.387  17.385  0.00  0.00    +0.000 A 
ATOM      8  C   UNL     1       3.624   7.446  17.253  0.00  0.00    +0.000 A 
ATOM      9  C   UNL     1       5.618   6.206  16.341  0.00  0.00    +0.000 C 
ATOM     10  C   UNL     1       7.030   6.370  16.918  0.00  0.00    +0.000 C 
ATOM     11  C   UNL     1       7.516   5.160  17.718  0.00  0.00    +0.000 C 
ATOM     12  C   UNL     1       6.686   4.934  18.971  0.00  0.00    +0.000 C 
ATOM     13  O   UNL     1       7.111   5.144  20.101  0.00  0.00    +0.000 OA
ATOM     14  N   UNL     1       5.385   4.508  18.701  0.00  0.00    +0.000 N 
ATOM     15  H   UNL     1       5.406   3.968  17.843  0.00  0.00    +0.000 HD
ENDBRANCH   1   3
BRANCH   1  16
ATOM     16  C   UNL     1       1.147   9.253  19.411  0.00  0.00    +0.000 C 
BRANCH  16  25
ATOM     17  C   UNL     1      -3.653   9.588  17.884  0.00  0.00    +0.000 C 
ATOM     18  C   UNL     1      -2.465  10.197  17.132  0.00  0.00    +0.000 C 
ATOM     19  C   UNL     1      -2.494   9.759  15.665  0.00  0.00    +0.000 C 
ATOM     20  C   UNL     1      -2.440  11.738  17.255  0.00  0.00    +0.000 C 
ATOM     21  C   UNL     1      -1.290  11.912  18.172  0.00  0.00    +0.000 A 
ATOM     22  C   UNL     1      -0.802  13.078  18.738  0.00  0.00    +0.000 A 
ATOM     23  C   UNL     1       0.331  12.992  19.548  0.00  0.00    +0.000 A 
ATOM     24  C   UNL     1       0.952  11.754  19.778  0.00  0.00    +0.000 A 
ATOM     25  C   UNL     1       0.453  10.574  19.199  0.00  0.00    +0.000 A 
ATOM     26  C   UNL     1      -0.668  10.694  18.393  0.00  0.00    +0.000 A 
ATOM     27  O   UNL     1      -1.254   9.651  17.725  0.00  0.00    +0.000 OA
ENDBRANCH  16  25
ENDBRANCH   1  16
TORSDOF 3
ENDMDL
MODEL 9
REMARK VINA RESULT:      -8.4      1.859      7.874
REMARK  Name = 
REMARK  5 active torsions:
REMARK  status: ('A' for Active; 'I' for Inactive)
REMARK    1  A    between atoms: C_1  and  C_2
REMARK    2  A    between atoms: C_2  and  C_3
REMARK    3  A    between atoms: C_9  and  C_10
REMARK    4  A    between atoms: C_10  and  N_11
REMARK    5  A    between atoms: N_11  and  C_12
REMARK                            x       y       z     vdW  Elec       q    Type
REMARK                         _______ _______ _______ _____ _____    ______ ____
ROOT
ATOM      1  N   UNL     1       1.825   8.893  19.090  0.00  0.00    +0.000 N 
ATOM      2  H   UNL     1       1.297   9.095  19.936  0.00  0.00    +0.000 HD
ENDROOT
BRANCH   1   3
ATOM      3  C   UNL     1       2.333   7.585  19.088  0.00  0.00    +0.000 A 
ATOM      4  C   UNL     1       3.068   7.142  17.978  0.00  0.00    +0.000 A 
ATOM      5  C   UNL     1       3.500   5.815  17.874  0.00  0.00    +0.000 A 
ATOM      6  C   UNL     1       3.173   4.904  18.873  0.00  0.00    +0.000 A 
ATOM      7  C   UNL     1       2.415   5.300  19.981  0.00  0.00    +0.000 A 
ATOM      8  C   UNL     1       2.002   6.642  20.071  0.00  0.00    +0.000 A 
ATOM      9  C   UNL     1       1.968   4.315  21.037  0.00  0.00    +0.000 C 
ATOM     10  C   UNL     1       1.094   3.193  20.463  0.00  0.00    +0.000 C 
ATOM     11  C   UNL     1       1.882   2.120  19.708  0.00  0.00    +0.000 C 
ATOM     12  C   UNL     1       2.547   2.674  18.460  0.00  0.00    +0.000 C 
ATOM     13  O   UNL     1       2.174   2.399  17.325  0.00  0.00    +0.000 OA
ATOM     14  N   UNL     1       3.593   3.556  18.737  0.00  0.00    +0.000 N 
ATOM     15  H   UNL     1       4.016   3.272  19.613  0.00  0.00    +0.000 HD
ENDBRANCH   1   3
BRANCH   1  16
ATOM     16  C   UNL     1       1.112   9.364  17.902  0.00  0.00    +0.000 C 
BRANCH  16  25
ATOM     17  C   UNL     1       2.302  14.247  18.373  0.00  0.00    +0.000 C 
ATOM     18  C   UNL     1       1.706  13.394  19.497  0.00  0.00    +0.000 C 
ATOM     19  C   UNL     1       2.560  13.520  20.761  0.00  0.00    +0.000 C 
ATOM     20  C   UNL     1       0.233  13.768  19.778  0.00  0.00    +0.000 C 
ATOM     21  C   UNL     1      -0.455  12.585  19.211  0.00  0.00    +0.000 A 
ATOM     22  C   UNL     1      -1.813  12.352  19.080  0.00  0.00    +0.000 A 
ATOM     23  C   UNL     1      -2.224  11.131  18.544  0.00  0.00    +0.000 A 
ATOM     24  C   UNL     1      -1.278  10.171  18.148  0.00  0.00    +0.000 A 
ATOM     25  C   UNL     1       0.100  10.412  18.285  0.00  0.00    +0.000 A 
ATOM     26  C   UNL     1       0.475  11.631  18.829  0.00  0.00    +0.000 A 
ATOM     27  O   UNL     1       1.771  12.005  19.064  0.00  0.00    +0.000 OA
ENDBRANCH  16  25
ENDBRANCH   1  16
TORSDOF 3
ENDMDL
