MODEL 1
REMARK VINA RESULT:      -8.1      0.000      0.000
REMARK  Name = 
REMARK  6 active torsions:
REMARK  status: ('A' for Active; 'I' for Inactive)
REMARK    1  A    between atoms: C_1  and  C_2
REMARK    2  A    between atoms: N_5  and  C_6
REMARK    3  A    between atoms: C_10  and  C_11
REMARK    4  A    between atoms: C_11  and  C_12
REMARK    5  A    between atoms: C_12  and  C_13
REMARK    6  A    between atoms: N_17  and  C_18
REMARK                            x       y       z     vdW  Elec       q    Type
REMARK                         _______ _______ _______ _____ _____    ______ ____
ROOT
ATOM      1  C   UNL     1       1.214   9.104  19.894  0.00  0.00    +0.000 A 
ATOM      2  C   UNL     1       1.375  10.040  18.868  0.00  0.00    +0.000 A 
ATOM      3  C   UNL     1       2.046   9.704  17.696  0.00  0.00    +0.000 A 
ATOM      4  C   UNL     1       2.569   8.425  17.536  0.00  0.00    +0.000 A 
ATOM      5  C   UNL     1       2.435   7.439  18.531  0.00  0.00    +0.000 A 
ATOM      6  C   UNL     1       1.735   7.814  19.698  0.00  0.00    +0.000 A 
ENDROOT
BRANCH   1  11
ATOM      7  C   UNL     1      -1.764  11.364  23.259  0.00  0.00    +0.000 C 
ATOM      8  C   UNL     1      -0.723  10.464  22.720  0.00  0.00    +0.000 C 
ATOM      9  C   UNL     1       0.092   9.594  23.333  0.00  0.00    +0.000 C 
ATOM     10  C   UNL     1       0.960   8.860  22.375  0.00  0.00    +0.000 C 
ATOM     11  N   UNL     1       0.582   9.449  21.114  0.00  0.00    +0.000 N 
ATOM     12  C   UNL     1      -0.410  10.409  21.277  0.00  0.00    +0.000 C 
ATOM     13  O   UNL     1      -0.988  11.104  20.455  0.00  0.00    +0.000 OA
ENDBRANCH   1  11
BRANCH   5  14
ATOM     14  C   UNL     1       3.111   5.997  18.373  0.00  0.00    +0.000 C 
ATOM     15  C   UNL     1       4.089   5.584  19.512  0.00  0.00    +0.000 C 
ATOM     16  O   UNL     1       5.000   4.999  18.550  0.00  0.00    +0.000 OA
ATOM     17  C   UNL     1       4.389   5.812  17.506  0.00  0.00    +0.000 C 
BRANCH  14  18
ATOM     18  C   UNL     1       2.031   4.926  18.107  0.00  0.00    +0.000 C 
BRANCH  18  19
ATOM     19  C   UNL     1       1.804   4.008  19.269  0.00  0.00    +0.000 A 
ATOM     20  N   UNL     1       1.133   4.297  20.367  0.00  0.00    +0.000 NA
ATOM     21  N   UNL     1       1.138   3.190  21.183  0.00  0.00    +0.000 NA
ATOM     22  C   UNL     1       1.807   2.248  20.566  0.00  0.00    +0.000 A 
ATOM     23  N   UNL     1       2.272   2.721  19.378  0.00  0.00    +0.000 N 
ATOM     24  C   UNL     1       3.096   1.990  18.455  0.00  0.00    +0.000 C 
ENDBRANCH  18  19
ENDBRANCH  14  18
ENDBRANCH   5  14
TORSDOF 4
ENDMDL
MODEL 2
REMARK VINA RESULT:      -8.0      4.075      6.242
REMARK  Name = 
REMARK  6 active torsions:
REMARK  status: ('A' for Active; 'I' for Inactive)
REMARK    1  A    between atoms: C_1  and  C_2
REMARK    2  A    between atoms: N_5  and  C_6
REMARK    3  A    between atoms: C_10  and  C_11
REMARK    4  A    between atoms: C_11  and  C_12
REMARK    5  A    between atoms: C_12  and  C_13
REMARK    6  A    between atoms: N_17  and  C_18
REMARK                            x       y       z     vdW  Elec       q    Type
REMARK                         _______ _______ _______ _____ _____    ______ ____
ROOT
ATOM      1  C   UNL     1       2.951   4.969  18.091  0.00  0.00    +0.000 A 
ATOM      2  C   UNL     1       2.719   6.343  18.188  0.00  0.00    +0.000 A 
ATOM      3  C   UNL     1       3.462   7.246  17.434  0.00  0.00    +0.000 A 
ATOM      4  C   UNL     1       4.452   6.784  16.572  0.00  0.00    +0.000 A 
ATOM      5  C   UNL     1       4.727   5.411  16.427  0.00  0.00    +0.000 A 
ATOM      6  C   UNL     1       3.941   4.527  17.199  0.00  0.00    +0.000 A 
ENDROOT
BRANCH   1  11
ATOM      7  C   UNL     1       1.134   2.524  22.095  0.00  0.00    +0.000 C 
ATOM      8  C   UNL     1       1.398   2.849  20.677  0.00  0.00    +0.000 C 
ATOM      9  C   UNL     1       1.010   2.240  19.548  0.00  0.00    +0.000 C 
ATOM     10  C   UNL     1       1.479   2.954  18.331  0.00  0.00    +0.000 C 
ATOM     11  N   UNL     1       2.239   4.043  18.894  0.00  0.00    +0.000 N 
ATOM     12  C   UNL     1       2.220   4.013  20.284  0.00  0.00    +0.000 C 
ATOM     13  O   UNL     1       2.728   4.762  21.103  0.00  0.00    +0.000 OA
ENDBRANCH   1  11
BRANCH   5  14
ATOM     14  C   UNL     1       5.922   4.893  15.497  0.00  0.00    +0.000 C 
ATOM     15  C   UNL     1       5.626   4.875  13.969  0.00  0.00    +0.000 C 
ATOM     16  O   UNL     1       6.314   3.608  13.826  0.00  0.00    +0.000 OA
ATOM     17  C   UNL     1       6.133   3.372  15.254  0.00  0.00    +0.000 C 
BRANCH  14  18
ATOM     18  C   UNL     1       7.227   5.645  15.835  0.00  0.00    +0.000 C 
BRANCH  18  19
ATOM     19  C   UNL     1       7.544   5.660  17.300  0.00  0.00    +0.000 A 
ATOM     20  N   UNL     1       7.674   4.602  18.077  0.00  0.00    +0.000 NA
ATOM     21  N   UNL     1       7.978   5.031  19.347  0.00  0.00    +0.000 NA
ATOM     22  C   UNL     1       8.032   6.339  19.320  0.00  0.00    +0.000 A 
ATOM     23  N   UNL     1       7.736   6.783  18.068  0.00  0.00    +0.000 N 
ATOM     24  C   UNL     1       7.641   8.162  17.673  0.00  0.00    +0.000 C 
ENDBRANCH  18  19
ENDBRANCH  14  18
ENDBRANCH   5  14
TORSDOF 4
ENDMDL
MODEL 3
REMARK VINA RESULT:      -7.7      4.072      6.150
REMARK  Name = 
REMARK  6 active torsions:
REMARK  status: ('A' for Active; 'I' for Inactive)
REMARK    1  A    between atoms: C_1  and  C_2
REMARK    2  A    between atoms: N_5  and  C_6
REMARK    3  A    between atoms: C_10  and  C_11
REMARK    4  A    between atoms: C_11  and  C_12
REMARK    5  A    between atoms: C_12  and  C_13
REMARK    6  A    between atoms: N_17  and  C_18
REMARK                            x       y       z     vdW  Elec       q    Type
REMARK                         _______ _______ _______ _____ _____    ______ ____
ROOT
ATOM      1  C   UNL     1       3.085   5.126  18.586  0.00  0.00    +0.000 A 
ATOM      2  C   UNL     1       2.450   6.234  18.018  0.00  0.00    +0.000 A 
ATOM      3  C   UNL     1       3.190   7.251  17.424  0.00  0.00    +0.000 A 
ATOM      4  C   UNL     1       4.579   7.174  17.391  0.00  0.00    +0.000 A 
ATOM      5  C   UNL     1       5.274   6.081  17.940  0.00  0.00    +0.000 A 
ATOM      6  C   UNL     1       4.486   5.063  18.522  0.00  0.00    +0.000 A 
ENDROOT
BRANCH   1  11
ATOM      7  C   UNL     1       1.014   2.300  22.196  0.00  0.00    +0.000 C 
ATOM      8  C   UNL     1       1.398   2.746  20.840  0.00  0.00    +0.000 C 
ATOM      9  C   UNL     1       1.154   2.210  19.636  0.00  0.00    +0.000 C 
ATOM     10  C   UNL     1       1.702   3.036  18.528  0.00  0.00    +0.000 C 
ATOM     11  N   UNL     1       2.347   4.111  19.243  0.00  0.00    +0.000 N 
ATOM     12  C   UNL     1       2.193   3.972  20.617  0.00  0.00    +0.000 C 
ATOM     13  O   UNL     1       2.580   4.676  21.537  0.00  0.00    +0.000 OA
ENDBRANCH   1  11
BRANCH   5  14
ATOM     14  C   UNL     1       6.873   6.040  17.972  0.00  0.00    +0.000 C 
ATOM     15  C   UNL     1       7.523   6.241  19.372  0.00  0.00    +0.000 C 
ATOM     16  O   UNL     1       8.564   7.069  18.797  0.00  0.00    +0.000 OA
ATOM     17  C   UNL     1       7.704   7.313  17.644  0.00  0.00    +0.000 C 
BRANCH  14  18
ATOM     18  C   UNL     1       7.389   4.772  17.260  0.00  0.00    +0.000 C 
BRANCH  18  19
ATOM     19  C   UNL     1       7.093   4.752  15.791  0.00  0.00    +0.000 A 
ATOM     20  N   UNL     1       7.707   5.464  14.865  0.00  0.00    +0.000 NA
ATOM     21  N   UNL     1       7.157   5.153  13.644  0.00  0.00    +0.000 NA
ATOM     22  C   UNL     1       6.225   4.256  13.847  0.00  0.00    +0.000 A 
ATOM     23  N   UNL     1       6.123   3.996  15.178  0.00  0.00    +0.000 N 
ATOM     24  C   UNL     1       5.169   3.108  15.783  0.00  0.00    +0.000 C 
ENDBRANCH  18  19
ENDBRANCH  14  18
ENDBRANCH   5  14
TORSDOF 4
ENDMDL
MODEL 4
REMARK VINA RESULT:      -7.6      3.218      7.573
REMARK  Name = 
REMARK  6 active torsions:
REMARK  status: ('A' for Active; 'I' for Inactive)
REMARK    1  A    between atoms: C_1  and  C_2
REMARK    2  A    between atoms: N_5  and  C_6
REMARK    3  A    between atoms: C_10  and  C_11
REMARK    4  A    between atoms: C_11  and  C_12
REMARK    5  A    between atoms: C_12  and  C_13
REMARK    6  A    between atoms: N_17  and  C_18
REMARK                            x       y       z     vdW  Elec       q    Type
REMARK                         _______ _______ _______ _____ _____    ______ ____
ROOT
ATOM      1  C   UNL     1       5.772   4.717  16.307  0.00  0.00    +0.000 A 
ATOM      2  C   UNL     1       6.790   4.629  17.260  0.00  0.00    +0.000 A 
ATOM      3  C   UNL     1       6.566   5.010  18.580  0.00  0.00    +0.000 A 
ATOM      4  C   UNL     1       5.317   5.488  18.964  0.00  0.00    +0.000 A 
ATOM      5  C   UNL     1       4.251   5.594  18.051  0.00  0.00    +0.000 A 
ATOM      6  C   UNL     1       4.516   5.184  16.725  0.00  0.00    +0.000 A 
ENDROOT
BRANCH   1  11
ATOM      7  C   UNL     1       7.764   4.602  11.689  0.00  0.00    +0.000 C 
ATOM      8  C   UNL     1       6.835   4.308  12.801  0.00  0.00    +0.000 C 
ATOM      9  C   UNL     1       5.734   3.545  12.850  0.00  0.00    +0.000 C 
ATOM     10  C   UNL     1       5.134   3.504  14.210  0.00  0.00    +0.000 C 
ATOM     11  N   UNL     1       6.004   4.386  14.950  0.00  0.00    +0.000 N 
ATOM     12  C   UNL     1       7.023   4.887  14.148  0.00  0.00    +0.000 C 
ATOM     13  O   UNL     1       7.946   5.641  14.413  0.00  0.00    +0.000 OA
ENDBRANCH   1  11
BRANCH   5  14
ATOM     14  C   UNL     1       2.844   6.223  18.481  0.00  0.00    +0.000 C 
ATOM     15  C   UNL     1       2.569   7.668  17.973  0.00  0.00    +0.000 C 
ATOM     16  O   UNL     1       1.972   8.027  19.244  0.00  0.00    +0.000 OA
ATOM     17  C   UNL     1       2.673   6.909  19.866  0.00  0.00    +0.000 C 
BRANCH  14  18
ATOM     18  C   UNL     1       1.697   5.249  18.136  0.00  0.00    +0.000 C 
BRANCH  18  19
ATOM     19  C   UNL     1       1.563   4.118  19.108  0.00  0.00    +0.000 A 
ATOM     20  N   UNL     1       1.052   4.194  20.323  0.00  0.00    +0.000 NA
ATOM     21  N   UNL     1       1.094   2.942  20.891  0.00  0.00    +0.000 NA
ATOM     22  C   UNL     1       1.623   2.128  20.012  0.00  0.00    +0.000 A 
ATOM     23  N   UNL     1       1.964   2.821  18.892  0.00  0.00    +0.000 N 
ATOM     24  C   UNL     1       2.622   2.271  17.739  0.00  0.00    +0.000 C 
ENDBRANCH  18  19
ENDBRANCH  14  18
ENDBRANCH   5  14
TORSDOF 4
ENDMDL
MODEL 5
REMARK VINA RESULT:      -7.5      3.553      8.240
REMARK  Name = 
REMARK  6 active torsions:
REMARK  status: ('A' for Active; 'I' for Inactive)
REMARK    1  A    between atoms: C_1  and  C_2
REMARK    2  A    between atoms: N_5  and  C_6
REMARK    3  A    between atoms: C_10  and  C_11
REMARK    4  A    between atoms: C_11  and  C_12
REMARK    5  A    between atoms: C_12  and  C_13
REMARK    6  A    between atoms: N_17  and  C_18
REMARK                            x       y       z     vdW  Elec       q    Type
REMARK                         _______ _______ _______ _____ _____    ______ ____
ROOT
ATOM      1  C   UNL     1       6.023   4.459  16.310  0.00  0.00    +0.000 A 
ATOM      2  C   UNL     1       7.123   4.706  17.136  0.00  0.00    +0.000 A 
ATOM      3  C   UNL     1       6.950   4.970  18.492  0.00  0.00    +0.000 A 
ATOM      4  C   UNL     1       5.671   4.994  19.039  0.00  0.00    +0.000 A 
ATOM      5  C   UNL     1       4.526   4.749  18.259  0.00  0.00    +0.000 A 
ATOM      6  C   UNL     1       4.745   4.470  16.891  0.00  0.00    +0.000 A 
ENDROOT
BRANCH   1  11
ATOM      7  C   UNL     1       7.704   4.808  11.582  0.00  0.00    +0.000 C 
ATOM      8  C   UNL     1       6.870   4.376  12.723  0.00  0.00    +0.000 C 
ATOM      9  C   UNL     1       5.819   3.546  12.781  0.00  0.00    +0.000 C 
ATOM     10  C   UNL     1       5.315   3.368  14.168  0.00  0.00    +0.000 C 
ATOM     11  N   UNL     1       6.181   4.244  14.919  0.00  0.00    +0.000 N 
ATOM     12  C   UNL     1       7.115   4.864  14.097  0.00  0.00    +0.000 C 
ATOM     13  O   UNL     1       8.010   5.652  14.361  0.00  0.00    +0.000 OA
ENDBRANCH   1  11
BRANCH   5  14
ATOM     14  C   UNL     1       3.055   4.860  18.877  0.00  0.00    +0.000 C 
ATOM     15  C   UNL     1       2.515   3.572  19.566  0.00  0.00    +0.000 C 
ATOM     16  O   UNL     1       1.199   3.793  19.002  0.00  0.00    +0.000 OA
ATOM     17  C   UNL     1       1.801   4.645  17.983  0.00  0.00    +0.000 C 
BRANCH  14  18
ATOM     18  C   UNL     1       2.951   6.102  19.788  0.00  0.00    +0.000 C 
BRANCH  18  19
ATOM     19  C   UNL     1       2.515   7.338  19.061  0.00  0.00    +0.000 A 
ATOM     20  N   UNL     1       2.852   7.675  17.831  0.00  0.00    +0.000 NA
ATOM     21  N   UNL     1       2.239   8.867  17.524  0.00  0.00    +0.000 NA
ATOM     22  C   UNL     1       1.537   9.231  18.568  0.00  0.00    +0.000 A 
ATOM     23  N   UNL     1       1.703   8.324  19.568  0.00  0.00    +0.000 N 
ATOM     24  C   UNL     1       1.133   8.421  20.884  0.00  0.00    +0.000 C 
ENDBRANCH  18  19
ENDBRANCH  14  18
ENDBRANCH   5  14
TORSDOF 4
ENDMDL
MODEL 6
REMARK VINA RESULT:      -7.5      3.331      5.268
REMARK  Name = 
REMARK  6 active torsions:
REMARK  status: ('A' for Active; 'I' for Inactive)
REMARK    1  A    between atoms: C_1  and  C_2
REMARK    2  A    between atoms: N_5  and  C_6
REMARK    3  A    between atoms: C_10  and  C_11
REMARK    4  A    between atoms: C_11  and  C_12
REMARK    5  A    between atoms: C_12  and  C_13
REMARK    6  A    between atoms: N_17  and  C_18
REMARK                            x       y       z     vdW  Elec       q    Type
REMARK                         _______ _______ _______ _____ _____    ______ ____
ROOT
ATOM      1  C   UNL     1       2.675   6.049  18.126  0.00  0.00    +0.000 A 
ATOM      2  C   UNL     1       1.972   4.864  18.357  0.00  0.00    +0.000 A 
ATOM      3  C   UNL     1       2.412   3.658  17.820  0.00  0.00    +0.000 A 
ATOM      4  C   UNL     1       3.563   3.623  17.039  0.00  0.00    +0.000 A 
ATOM      5  C   UNL     1       4.316   4.782  16.775  0.00  0.00    +0.000 A 
ATOM      6  C   UNL     1       3.844   5.983  17.351  0.00  0.00    +0.000 A 
ENDROOT
BRANCH   1  11
ATOM      7  C   UNL     1       0.804   9.573  21.190  0.00  0.00    +0.000 C 
ATOM      8  C   UNL     1       1.319   8.950  19.952  0.00  0.00    +0.000 C 
ATOM      9  C   UNL     1       1.487   9.450  18.719  0.00  0.00    +0.000 C 
ATOM     10  C   UNL     1       2.087   8.461  17.785  0.00  0.00    +0.000 C 
ATOM     11  N   UNL     1       2.208   7.291  18.620  0.00  0.00    +0.000 N 
ATOM     12  C   UNL     1       1.758   7.539  19.912  0.00  0.00    +0.000 C 
ATOM     13  O   UNL     1       1.713   6.813  20.893  0.00  0.00    +0.000 OA
ENDBRANCH   1  11
BRANCH   5  14
ATOM     14  C   UNL     1       5.591   4.747  15.809  0.00  0.00    +0.000 C 
ATOM     15  C   UNL     1       5.280   4.617  14.289  0.00  0.00    +0.000 C 
ATOM     16  O   UNL     1       6.388   3.700  14.116  0.00  0.00    +0.000 OA
ATOM     17  C   UNL     1       6.349   3.415  15.545  0.00  0.00    +0.000 C 
BRANCH  14  18
ATOM     18  C   UNL     1       6.529   5.933  16.119  0.00  0.00    +0.000 C 
BRANCH  18  19
ATOM     19  C   UNL     1       7.168   5.849  17.471  0.00  0.00    +0.000 A 
ATOM     20  N   UNL     1       7.261   4.766  18.220  0.00  0.00    +0.000 NA
ATOM     21  N   UNL     1       7.927   5.095  19.377  0.00  0.00    +0.000 NA
ATOM     22  C   UNL     1       8.230   6.367  19.310  0.00  0.00    +0.000 A 
ATOM     23  N   UNL     1       7.749   6.892  18.151  0.00  0.00    +0.000 N 
ATOM     24  C   UNL     1       7.840   8.272  17.759  0.00  0.00    +0.000 C 
ENDBRANCH  18  19
ENDBRANCH  14  18
ENDBRANCH   5  14
TORSDOF 4
ENDMDL
MODEL 7
REMARK VINA RESULT:      -7.5      3.508      5.236
REMARK  Name = 
REMARK  6 active torsions:
REMARK  status: ('A' for Active; 'I' for Inactive)
REMARK    1  A    between atoms: C_1  and  C_2
REMARK    2  A    between atoms: N_5  and  C_6
REMARK    3  A    between atoms: C_10  and  C_11
REMARK    4  A    between atoms: C_11  and  C_12
REMARK    5  A    between atoms: C_12  and  C_13
REMARK    6  A    between atoms: N_17  and  C_18
REMARK                            x       y       z     vdW  Elec       q    Type
REMARK                         _______ _______ _______ _____ _____    ______ ____
ROOT
ATOM      1  C   UNL     1       2.815   6.485  18.790  0.00  0.00    +0.000 A 
ATOM      2  C   UNL     1       2.416   5.432  19.617  0.00  0.00    +0.000 A 
ATOM      3  C   UNL     1       2.991   4.171  19.494  0.00  0.00    +0.000 A 
ATOM      4  C   UNL     1       3.975   3.946  18.536  0.00  0.00    +0.000 A 
ATOM      5  C   UNL     1       4.422   4.967  17.677  0.00  0.00    +0.000 A 
ATOM      6  C   UNL     1       3.823   6.236  17.844  0.00  0.00    +0.000 A 
ENDROOT
BRANCH   1  11
ATOM      7  C   UNL     1       0.301  10.477  20.535  0.00  0.00    +0.000 C 
ATOM      8  C   UNL     1       1.022   9.607  19.582  0.00  0.00    +0.000 C 
ATOM      9  C   UNL     1       1.320   9.778  18.287  0.00  0.00    +0.000 C 
ATOM     10  C   UNL     1       2.110   8.645  17.734  0.00  0.00    +0.000 C 
ATOM     11  N   UNL     1       2.198   7.757  18.868  0.00  0.00    +0.000 N 
ATOM     12  C   UNL     1       1.561   8.290  19.982  0.00  0.00    +0.000 C 
ATOM     13  O   UNL     1       1.434   7.848  21.114  0.00  0.00    +0.000 OA
ENDBRANCH   1  11
BRANCH   5  14
ATOM     14  C   UNL     1       5.492   4.679  16.524  0.00  0.00    +0.000 C 
ATOM     15  C   UNL     1       5.375   5.576  15.257  0.00  0.00    +0.000 C 
ATOM     16  O   UNL     1       5.650   4.442  14.399  0.00  0.00    +0.000 OA
ATOM     17  C   UNL     1       5.249   3.551  15.481  0.00  0.00    +0.000 C 
BRANCH  14  18
ATOM     18  C   UNL     1       6.921   4.671  17.110  0.00  0.00    +0.000 C 
BRANCH  18  19
ATOM     19  C   UNL     1       7.427   6.037  17.463  0.00  0.00    +0.000 A 
ATOM     20  N   UNL     1       7.509   7.069  16.645  0.00  0.00    +0.000 NA
ATOM     21  N   UNL     1       8.009   8.140  17.347  0.00  0.00    +0.000 NA
ATOM     22  C   UNL     1       8.217   7.743  18.578  0.00  0.00    +0.000 A 
ATOM     23  N   UNL     1       7.899   6.426  18.693  0.00  0.00    +0.000 N 
ATOM     24  C   UNL     1       8.053   5.631  19.881  0.00  0.00    +0.000 C 
ENDBRANCH  18  19
ENDBRANCH  14  18
ENDBRANCH   5  14
TORSDOF 4
ENDMDL
MODEL 8
REMARK VINA RESULT:      -7.4      0.709      1.323
REMARK  Name = 
REMARK  6 active torsions:
REMARK  status: ('A' for Active; 'I' for Inactive)
REMARK    1  A    between atoms: C_1  and  C_2
REMARK    2  A    between atoms: N_5  and  C_6
REMARK    3  A    between atoms: C_10  and  C_11
REMARK    4  A    between atoms: C_11  and  C_12
REMARK    5  A    between atoms: C_12  and  C_13
REMARK    6  A    between atoms: N_17  and  C_18
REMARK                            x       y       z     vdW  Elec       q    Type
REMARK                         _______ _______ _______ _____ _____    ______ ____
ROOT
ATOM      1  C   UNL     1       1.161   9.161  19.912  0.00  0.00    +0.000 A 
ATOM      2  C   UNL     1       1.273  10.087  18.873  0.00  0.00    +0.000 A 
ATOM      3  C   UNL     1       1.949   9.764  17.700  0.00  0.00    +0.000 A 
ATOM      4  C   UNL     1       2.526   8.506  17.553  0.00  0.00    +0.000 A 
ATOM      5  C   UNL     1       2.441   7.529  18.563  0.00  0.00    +0.000 A 
ATOM      6  C   UNL     1       1.735   7.892  19.731  0.00  0.00    +0.000 A 
ENDROOT
BRANCH   1  11
ATOM      7  C   UNL     1      -1.825  11.399  23.285  0.00  0.00    +0.000 C 
ATOM      8  C   UNL     1      -0.785  10.500  22.743  0.00  0.00    +0.000 C 
ATOM      9  C   UNL     1       0.023   9.620  23.351  0.00  0.00    +0.000 C 
ATOM     10  C   UNL     1       0.894   8.893  22.390  0.00  0.00    +0.000 C 
ATOM     11  N   UNL     1       0.524   9.496  21.132  0.00  0.00    +0.000 N 
ATOM     12  C   UNL     1      -0.465  10.458  21.300  0.00  0.00    +0.000 C 
ATOM     13  O   UNL     1      -1.036  11.164  20.483  0.00  0.00    +0.000 OA
ENDBRANCH   1  11
BRANCH   5  14
ATOM     14  C   UNL     1       3.177   6.116  18.420  0.00  0.00    +0.000 C 
ATOM     15  C   UNL     1       3.842   5.569  19.717  0.00  0.00    +0.000 C 
ATOM     16  O   UNL     1       4.986   5.101  18.962  0.00  0.00    +0.000 OA
ATOM     17  C   UNL     1       4.639   6.034  17.896  0.00  0.00    +0.000 C 
BRANCH  14  18
ATOM     18  C   UNL     1       2.234   5.086  17.762  0.00  0.00    +0.000 C 
BRANCH  18  19
ATOM     19  C   UNL     1       2.400   3.698  18.300  0.00  0.00    +0.000 A 
ATOM     20  N   UNL     1       3.157   2.750  17.782  0.00  0.00    +0.000 NA
ATOM     21  N   UNL     1       3.052   1.629  18.572  0.00  0.00    +0.000 NA
ATOM     22  C   UNL     1       2.238   1.916  19.557  0.00  0.00    +0.000 A 
ATOM     23  N   UNL     1       1.778   3.188  19.414  0.00  0.00    +0.000 N 
ATOM     24  C   UNL     1       0.821   3.830  20.273  0.00  0.00    +0.000 C 
ENDBRANCH  18  19
ENDBRANCH  14  18
ENDBRANCH   5  14
TORSDOF 4
ENDMDL
MODEL 9
REMARK VINA RESULT:      -7.4      2.381      3.363
REMARK  Name = 
REMARK  6 active torsions:
REMARK  status: ('A' for Active; 'I' for Inactive)
REMARK    1  A    between atoms: C_1  and  C_2
REMARK    2  A    between atoms: N_5  and  C_6
REMARK    3  A    between atoms: C_10  and  C_11
REMARK    4  A    between atoms: C_11  and  C_12
REMARK    5  A    between atoms: C_12  and  C_13
REMARK    6  A    between atoms: N_17  and  C_18
REMARK                            x       y       z     vdW  Elec       q    Type
REMARK                         _______ _______ _______ _____ _____    ______ ____
ROOT
ATOM      1  C   UNL     1       1.248   8.942  19.925  0.00  0.00    +0.000 A 
ATOM      2  C   UNL     1       1.250   9.748  18.783  0.00  0.00    +0.000 A 
ATOM      3  C   UNL     1       1.934   9.357  17.636  0.00  0.00    +0.000 A 
ATOM      4  C   UNL     1       2.629   8.152  17.618  0.00  0.00    +0.000 A 
ATOM      5  C   UNL     1       2.659   7.296  18.734  0.00  0.00    +0.000 A 
ATOM      6  C   UNL     1       1.940   7.722  19.873  0.00  0.00    +0.000 A 
ENDROOT
BRANCH   1  11
ATOM      7  C   UNL     1      -1.741  11.411  23.131  0.00  0.00    +0.000 C 
ATOM      8  C   UNL     1      -0.709  10.467  22.652  0.00  0.00    +0.000 C 
ATOM      9  C   UNL     1       0.076   9.608  23.318  0.00  0.00    +0.000 C 
ATOM     10  C   UNL     1       0.945   8.815  22.409  0.00  0.00    +0.000 C 
ATOM     11  N   UNL     1       0.602   9.355  21.116  0.00  0.00    +0.000 N 
ATOM     12  C   UNL     1      -0.373  10.341  21.218  0.00  0.00    +0.000 C 
ATOM     13  O   UNL     1      -0.921  11.010  20.356  0.00  0.00    +0.000 OA
ENDBRANCH   1  11
BRANCH   5  14
ATOM     14  C   UNL     1       3.528   5.952  18.732  0.00  0.00    +0.000 C 
ATOM     15  C   UNL     1       3.039   4.835  17.765  0.00  0.00    +0.000 C 
ATOM     16  O   UNL     1       3.323   3.818  18.757  0.00  0.00    +0.000 OA
ATOM     17  C   UNL     1       3.274   4.844  19.793  0.00  0.00    +0.000 C 
BRANCH  14  18
ATOM     18  C   UNL     1       5.024   6.284  18.541  0.00  0.00    +0.000 C 
BRANCH  18  19
ATOM     19  C   UNL     1       5.539   5.942  17.176  0.00  0.00    +0.000 A 
ATOM     20  N   UNL     1       4.983   6.281  16.029  0.00  0.00    +0.000 NA
ATOM     21  N   UNL     1       5.763   5.792  15.007  0.00  0.00    +0.000 NA
ATOM     22  C   UNL     1       6.781   5.172  15.550  0.00  0.00    +0.000 A 
ATOM     23  N   UNL     1       6.669   5.209  16.905  0.00  0.00    +0.000 N 
ATOM     24  C   UNL     1       7.570   4.582  17.833  0.00  0.00    +0.000 C 
ENDBRANCH  18  19
ENDBRANCH  14  18
ENDBRANCH   5  14
TORSDOF 4
ENDMDL
