MODEL 1
REMARK VINA RESULT:      -8.8      0.000      0.000
REMARK  Name = 
REMARK  6 active torsions:
REMARK  status: ('A' for Active; 'I' for Inactive)
REMARK    1  A    between atoms: C_1  and  C_2
REMARK    2  A    between atoms: C_6  and  C_7
REMARK    3  A    between atoms: C_11  and  C_12
REMARK    4  A    between atoms: C_12  and  N_13
REMARK    5  A    between atoms: C_14  and  C_16
REMARK    6  A    between atoms: C_21  and  C_22
REMARK                            x       y       z     vdW  Elec       q    Type
REMARK                         _______ _______ _______ _____ _____    ______ ____
ROOT
ATOM      1  N   UNL     1      -0.191  10.484  17.826  0.00  0.00    +0.000 N 
ATOM      2  C   UNL     1      -1.265  11.140  18.390  0.00  0.00    +0.000 C 
ATOM      3  O   UNL     1      -1.212  11.737  19.458  0.00  0.00    +0.000 OA
ATOM      4  H   UNL     1      -0.322  10.078  16.905  0.00  0.00    +0.000 HD
ENDROOT
BRANCH   2   5
ATOM      5  C   UNL     1      -2.526  11.061  17.554  0.00  0.00    +0.000 A 
ATOM      6  C   UNL     1      -2.359  10.838  16.242  0.00  0.00    +0.000 A 
ATOM      7  C   UNL     1      -3.563  10.760  15.405  0.00  0.00    +0.000 A 
ATOM      8  O   UNL     1      -3.501  10.542  14.202  0.00  0.00    +0.000 OA
ATOM      9  N   UNL     1      -4.742  10.936  16.061  0.00  0.00    +0.000 N 
ATOM     10  C   UNL     1      -4.789  11.139  17.411  0.00  0.00    +0.000 A 
ATOM     11  N   UNL     1      -3.752  11.205  18.178  0.00  0.00    +0.000 NA
ATOM     12  H   UNL     1      -5.585  10.879  15.514  0.00  0.00    +0.000 HD
BRANCH  10  13
ATOM     13  C   UNL     1      -6.135  11.243  18.009  0.00  0.00    +0.000 C 
ATOM     14  C   UNL     1      -6.934  12.523  17.913  0.00  0.00    +0.000 C 
ATOM     15  C   UNL     1      -6.369  12.094  19.234  0.00  0.00    +0.000 C 
ENDBRANCH  10  13
ENDBRANCH   2   5
BRANCH   1  16
ATOM     16  C   UNL     1       1.107  10.495  18.456  0.00  0.00    +0.000 C 
BRANCH  16  21
ATOM     17  C   UNL     1       2.488   6.928  18.864  0.00  0.00    +0.000 A 
ATOM     18  C   UNL     1       2.126   6.684  20.199  0.00  0.00    +0.000 A 
ATOM     19  C   UNL     1       1.453   7.643  20.958  0.00  0.00    +0.000 A 
ATOM     20  C   UNL     1       1.137   8.883  20.405  0.00  0.00    +0.000 A 
ATOM     21  C   UNL     1       1.480   9.173  19.080  0.00  0.00    +0.000 A 
ATOM     22  C   UNL     1       2.154   8.191  18.328  0.00  0.00    +0.000 A 
BRANCH  17  28
ATOM     23  C   UNL     1       6.345   5.555  15.920  0.00  0.00    +0.000 C 
ATOM     24  C   UNL     1       5.060   5.205  16.610  0.00  0.00    +0.000 A 
ATOM     25  C   UNL     1       4.511   3.927  16.505  0.00  0.00    +0.000 A 
ATOM     26  C   UNL     1       3.319   3.623  17.156  0.00  0.00    +0.000 A 
ATOM     27  C   UNL     1       2.663   4.598  17.913  0.00  0.00    +0.000 A 
ATOM     28  C   UNL     1       3.183   5.897  18.052  0.00  0.00    +0.000 A 
ATOM     29  C   UNL     1       4.396   6.172  17.385  0.00  0.00    +0.000 A 
ENDBRANCH  17  28
ENDBRANCH  16  21
ENDBRANCH   1  16
TORSDOF 5
ENDMDL
MODEL 2
REMARK VINA RESULT:      -8.7      0.606      1.462
REMARK  Name = 
REMARK  6 active torsions:
REMARK  status: ('A' for Active; 'I' for Inactive)
REMARK    1  A    between atoms: C_1  and  C_2
REMARK    2  A    between atoms: C_6  and  C_7
REMARK    3  A    between atoms: C_11  and  C_12
REMARK    4  A    between atoms: C_12  and  N_13
REMARK    5  A    between atoms: C_14  and  C_16
REMARK    6  A    between atoms: C_21  and  C_22
REMARK                            x       y       z     vdW  Elec       q    Type
REMARK                         _______ _______ _______ _____ _____    ______ ____
ROOT
ATOM      1  N   UNL     1      -0.172  10.407  17.884  0.00  0.00    +0.000 N 
ATOM      2  C   UNL     1      -0.991  11.468  18.207  0.00  0.00    +0.000 C 
ATOM      3  O   UNL     1      -0.641  12.408  18.910  0.00  0.00    +0.000 OA
ATOM      4  H   UNL     1      -0.537   9.713  17.240  0.00  0.00    +0.000 HD
ENDROOT
BRANCH   2   5
ATOM      5  C   UNL     1      -2.374  11.367  17.598  0.00  0.00    +0.000 A 
ATOM      6  C   UNL     1      -2.448  10.843  16.367  0.00  0.00    +0.000 A 
ATOM      7  C   UNL     1      -3.776  10.735  15.749  0.00  0.00    +0.000 A 
ATOM      8  O   UNL     1      -3.934  10.252  14.635  0.00  0.00    +0.000 OA
ATOM      9  N   UNL     1      -4.809  11.199  16.503  0.00  0.00    +0.000 N 
ATOM     10  C   UNL     1      -4.614  11.697  17.759  0.00  0.00    +0.000 A 
ATOM     11  N   UNL     1      -3.462  11.799  18.336  0.00  0.00    +0.000 NA
ATOM     12  H   UNL     1      -5.733  11.130  16.108  0.00  0.00    +0.000 HD
BRANCH  10  13
ATOM     13  C   UNL     1      -5.827  12.100  18.498  0.00  0.00    +0.000 C 
ATOM     14  C   UNL     1      -6.931  11.108  18.783  0.00  0.00    +0.000 C 
ATOM     15  C   UNL     1      -7.157  12.211  17.792  0.00  0.00    +0.000 C 
ENDBRANCH  10  13
ENDBRANCH   2   5
BRANCH   1  16
ATOM     16  C   UNL     1       1.199  10.357  18.333  0.00  0.00    +0.000 C 
BRANCH  16  21
ATOM     17  C   UNL     1       2.604   6.815  18.865  0.00  0.00    +0.000 A 
ATOM     18  C   UNL     1       2.194   6.594  20.191  0.00  0.00    +0.000 A 
ATOM     19  C   UNL     1       1.483   7.560  20.905  0.00  0.00    +0.000 A 
ATOM     20  C   UNL     1       1.174   8.785  20.315  0.00  0.00    +0.000 A 
ATOM     21  C   UNL     1       1.563   9.051  18.997  0.00  0.00    +0.000 A 
ATOM     22  C   UNL     1       2.276   8.063  18.292  0.00  0.00    +0.000 A 
BRANCH  17  28
ATOM     23  C   UNL     1       3.465   1.961  17.813  0.00  0.00    +0.000 C 
ATOM     24  C   UNL     1       3.777   3.408  17.572  0.00  0.00    +0.000 A 
ATOM     25  C   UNL     1       4.742   3.792  16.641  0.00  0.00    +0.000 A 
ATOM     26  C   UNL     1       5.013   5.141  16.431  0.00  0.00    +0.000 A 
ATOM     27  C   UNL     1       4.324   6.117  17.157  0.00  0.00    +0.000 A 
ATOM     28  C   UNL     1       3.340   5.776  18.101  0.00  0.00    +0.000 A 
ATOM     29  C   UNL     1       3.083   4.401  18.286  0.00  0.00    +0.000 A 
ENDBRANCH  17  28
ENDBRANCH  16  21
ENDBRANCH   1  16
TORSDOF 5
ENDMDL
MODEL 3
REMARK VINA RESULT:      -8.7      4.573     10.135
REMARK  Name = 
REMARK  6 active torsions:
REMARK  status: ('A' for Active; 'I' for Inactive)
REMARK    1  A    between atoms: C_1  and  C_2
REMARK    2  A    between atoms: C_6  and  C_7
REMARK    3  A    between atoms: C_11  and  C_12
REMARK    4  A    between atoms: C_12  and  N_13
REMARK    5  A    between atoms: C_14  and  C_16
REMARK    6  A    between atoms: C_21  and  C_22
REMARK                            x       y       z     vdW  Elec       q    Type
REMARK                         _______ _______ _______ _____ _____    ______ ____
ROOT
ATOM      1  N   UNL     1       3.566   6.014  19.575  0.00  0.00    +0.000 N 
ATOM      2  C   UNL     1       3.617   5.061  18.579  0.00  0.00    +0.000 C 
ATOM      3  O   UNL     1       2.635   4.458  18.164  0.00  0.00    +0.000 OA
ATOM      4  H   UNL     1       4.427   6.503  19.798  0.00  0.00    +0.000 HD
ENDROOT
BRANCH   2   5
ATOM      5  C   UNL     1       5.012   4.833  18.034  0.00  0.00    +0.000 A 
ATOM      6  C   UNL     1       6.026   5.023  18.891  0.00  0.00    +0.000 A 
ATOM      7  C   UNL     1       7.390   4.812  18.391  0.00  0.00    +0.000 A 
ATOM      8  O   UNL     1       8.371   4.946  19.111  0.00  0.00    +0.000 OA
ATOM      9  N   UNL     1       7.482   4.451  17.083  0.00  0.00    +0.000 N 
ATOM     10  C   UNL     1       6.373   4.268  16.308  0.00  0.00    +0.000 A 
ATOM     11  N   UNL     1       5.159   4.436  16.717  0.00  0.00    +0.000 NA
ATOM     12  H   UNL     1       8.406   4.291  16.715  0.00  0.00    +0.000 HD
BRANCH  10  13
ATOM     13  C   UNL     1       6.609   3.807  14.926  0.00  0.00    +0.000 C 
ATOM     14  C   UNL     1       6.974   4.782  13.830  0.00  0.00    +0.000 C 
ATOM     15  C   UNL     1       5.624   4.127  13.828  0.00  0.00    +0.000 C 
ENDBRANCH  10  13
ENDBRANCH   2   5
BRANCH   1  16
ATOM     16  C   UNL     1       2.313   6.400  20.177  0.00  0.00    +0.000 C 
BRANCH  16  21
ATOM     17  C   UNL     1       0.477   9.779  20.122  0.00  0.00    +0.000 A 
ATOM     18  C   UNL     1       0.818  10.215  18.830  0.00  0.00    +0.000 A 
ATOM     19  C   UNL     1       1.624   9.442  17.990  0.00  0.00    +0.000 A 
ATOM     20  C   UNL     1       2.123   8.216  18.428  0.00  0.00    +0.000 A 
ATOM     21  C   UNL     1       1.812   7.743  19.707  0.00  0.00    +0.000 A 
ATOM     22  C   UNL     1       0.995   8.534  20.538  0.00  0.00    +0.000 A 
BRANCH  17  28
ATOM     23  C   UNL     1      -2.674  13.662  20.763  0.00  0.00    +0.000 C 
ATOM     24  C   UNL     1      -1.942  12.486  21.339  0.00  0.00    +0.000 A 
ATOM     25  C   UNL     1      -2.074  12.143  22.684  0.00  0.00    +0.000 A 
ATOM     26  C   UNL     1      -1.387  11.046  23.196  0.00  0.00    +0.000 A 
ATOM     27  C   UNL     1      -0.557  10.287  22.366  0.00  0.00    +0.000 A 
ATOM     28  C   UNL     1      -0.399  10.593  21.003  0.00  0.00    +0.000 A 
ATOM     29  C   UNL     1      -1.113  11.707  20.512  0.00  0.00    +0.000 A 
ENDBRANCH  17  28
ENDBRANCH  16  21
ENDBRANCH   1  16
TORSDOF 5
ENDMDL
MODEL 4
REMARK VINA RESULT:      -8.5      5.659      9.925
REMARK  Name = 
REMARK  6 active torsions:
REMARK  status: ('A' for Active; 'I' for Inactive)
REMARK    1  A    between atoms: C_1  and  C_2
REMARK    2  A    between atoms: C_6  and  C_7
REMARK    3  A    between atoms: C_11  and  C_12
REMARK    4  A    between atoms: C_12  and  N_13
REMARK    5  A    between atoms: C_14  and  C_16
REMARK    6  A    between atoms: C_21  and  C_22
REMARK                            x       y       z     vdW  Elec       q    Type
REMARK                         _______ _______ _______ _____ _____    ______ ____
ROOT
ATOM      1  N   UNL     1       7.248   7.653  16.944  0.00  0.00    +0.000 N 
ATOM      2  C   UNL     1       8.009   7.911  18.064  0.00  0.00    +0.000 C 
ATOM      3  O   UNL     1       8.377   7.047  18.850  0.00  0.00    +0.000 OA
ATOM      4  H   UNL     1       7.053   8.430  16.321  0.00  0.00    +0.000 HD
ENDROOT
BRANCH   2   5
ATOM      5  C   UNL     1       8.360   9.376  18.229  0.00  0.00    +0.000 A 
ATOM      6  C   UNL     1       7.755  10.232  17.393  0.00  0.00    +0.000 A 
ATOM      7  C   UNL     1       8.078  11.658  17.527  0.00  0.00    +0.000 A 
ATOM      8  O   UNL     1       7.558  12.509  16.816  0.00  0.00    +0.000 OA
ATOM      9  N   UNL     1       8.983  11.963  18.496  0.00  0.00    +0.000 N 
ATOM     10  C   UNL     1       9.521  11.003  19.304  0.00  0.00    +0.000 A 
ATOM     11  N   UNL     1       9.253   9.742  19.220  0.00  0.00    +0.000 NA
ATOM     12  H   UNL     1       9.216  12.936  18.617  0.00  0.00    +0.000 HD
BRANCH  10  13
ATOM     13  C   UNL     1      10.434  11.476  20.363  0.00  0.00    +0.000 C 
ATOM     14  C   UNL     1       9.956  12.424  21.439  0.00  0.00    +0.000 C 
ATOM     15  C   UNL     1      10.908  12.909  20.387  0.00  0.00    +0.000 C 
ENDBRANCH  10  13
ENDBRANCH   2   5
BRANCH   1  16
ATOM     16  C   UNL     1       6.861   6.306  16.597  0.00  0.00    +0.000 C 
BRANCH  16  21
ATOM     17  C   UNL     1       3.287   6.662  17.975  0.00  0.00    +0.000 A 
ATOM     18  C   UNL     1       2.864   5.325  17.889  0.00  0.00    +0.000 A 
ATOM     19  C   UNL     1       3.706   4.325  17.397  0.00  0.00    +0.000 A 
ATOM     20  C   UNL     1       4.993   4.641  16.962  0.00  0.00    +0.000 A 
ATOM     21  C   UNL     1       5.456   5.959  17.026  0.00  0.00    +0.000 A 
ATOM     22  C   UNL     1       4.595   6.952  17.530  0.00  0.00    +0.000 A 
BRANCH  17  28
ATOM     23  C   UNL     1       0.813   8.707  21.863  0.00  0.00    +0.000 C 
ATOM     24  C   UNL     1       1.179   8.734  20.408  0.00  0.00    +0.000 A 
ATOM     25  C   UNL     1       0.701   9.736  19.564  0.00  0.00    +0.000 A 
ATOM     26  C   UNL     1       1.056   9.744  18.218  0.00  0.00    +0.000 A 
ATOM     27  C   UNL     1       1.887   8.744  17.705  0.00  0.00    +0.000 A 
ATOM     28  C   UNL     1       2.397   7.719  18.521  0.00  0.00    +0.000 A 
ATOM     29  C   UNL     1       2.025   7.742  19.882  0.00  0.00    +0.000 A 
ENDBRANCH  17  28
ENDBRANCH  16  21
ENDBRANCH   1  16
TORSDOF 5
ENDMDL
MODEL 5
REMARK VINA RESULT:      -8.4      2.461      3.655
REMARK  Name = 
REMARK  6 active torsions:
REMARK  status: ('A' for Active; 'I' for Inactive)
REMARK    1  A    between atoms: C_1  and  C_2
REMARK    2  A    between atoms: C_6  and  C_7
REMARK    3  A    between atoms: C_11  and  C_12
REMARK    4  A    between atoms: C_12  and  N_13
REMARK    5  A    between atoms: C_14  and  C_16
REMARK    6  A    between atoms: C_21  and  C_22
REMARK                            x       y       z     vdW  Elec       q    Type
REMARK                         _______ _______ _______ _____ _____    ______ ____
ROOT
ATOM      1  N   UNL     1       0.830   8.355  20.367  0.00  0.00    +0.000 N 
ATOM      2  C   UNL     1       0.763   9.668  20.781  0.00  0.00    +0.000 C 
ATOM      3  O   UNL     1       1.204  10.067  21.852  0.00  0.00    +0.000 OA
ATOM      4  H   UNL     1       0.496   8.141  19.433  0.00  0.00    +0.000 HD
ENDROOT
BRANCH   2   5
ATOM      5  C   UNL     1       0.095  10.583  19.776  0.00  0.00    +0.000 A 
ATOM      6  C   UNL     1       0.647  11.794  19.613  0.00  0.00    +0.000 A 
ATOM      7  C   UNL     1       0.019  12.705  18.647  0.00  0.00    +0.000 A 
ATOM      8  O   UNL     1       0.469  13.822  18.425  0.00  0.00    +0.000 OA
ATOM      9  N   UNL     1      -1.083  12.218  18.017  0.00  0.00    +0.000 N 
ATOM     10  C   UNL     1      -1.544  10.954  18.251  0.00  0.00    +0.000 A 
ATOM     11  N   UNL     1      -1.013  10.124  19.087  0.00  0.00    +0.000 NA
ATOM     12  H   UNL     1      -1.529  12.818  17.342  0.00  0.00    +0.000 HD
BRANCH  10  13
ATOM     13  C   UNL     1      -2.706  10.523  17.448  0.00  0.00    +0.000 C 
ATOM     14  C   UNL     1      -2.520   9.787  16.141  0.00  0.00    +0.000 C 
ATOM     15  C   UNL     1      -3.028  11.198  16.137  0.00  0.00    +0.000 C 
ENDBRANCH  10  13
ENDBRANCH   2   5
BRANCH   1  16
ATOM     16  C   UNL     1       1.479   7.349  21.173  0.00  0.00    +0.000 C 
BRANCH  16  21
ATOM     17  C   UNL     1       3.340   5.037  18.726  0.00  0.00    +0.000 A 
ATOM     18  C   UNL     1       2.582   3.865  18.883  0.00  0.00    +0.000 A 
ATOM     19  C   UNL     1       1.495   3.812  19.758  0.00  0.00    +0.000 A 
ATOM     20  C   UNL     1       1.145   4.930  20.513  0.00  0.00    +0.000 A 
ATOM     21  C   UNL     1       1.872   6.119  20.392  0.00  0.00    +0.000 A 
ATOM     22  C   UNL     1       2.962   6.155  19.502  0.00  0.00    +0.000 A 
BRANCH  17  28
ATOM     23  C   UNL     1       7.653   7.164  17.212  0.00  0.00    +0.000 C 
ATOM     24  C   UNL     1       6.591   6.122  17.020  0.00  0.00    +0.000 A 
ATOM     25  C   UNL     1       6.661   5.208  15.968  0.00  0.00    +0.000 A 
ATOM     26  C   UNL     1       5.666   4.248  15.810  0.00  0.00    +0.000 A 
ATOM     27  C   UNL     1       4.589   4.200  16.700  0.00  0.00    +0.000 A 
ATOM     28  C   UNL     1       4.482   5.097  17.777  0.00  0.00    +0.000 A 
ATOM     29  C   UNL     1       5.509   6.054  17.915  0.00  0.00    +0.000 A 
ENDBRANCH  17  28
ENDBRANCH  16  21
ENDBRANCH   1  16
TORSDOF 5
ENDMDL
MODEL 6
REMARK VINA RESULT:      -8.4      4.296      6.407
REMARK  Name = 
REMARK  6 active torsions:
REMARK  status: ('A' for Active; 'I' for Inactive)
REMARK    1  A    between atoms: C_1  and  C_2
REMARK    2  A    between atoms: C_6  and  C_7
REMARK    3  A    between atoms: C_11  and  C_12
REMARK    4  A    between atoms: C_12  and  N_13
REMARK    5  A    between atoms: C_14  and  C_16
REMARK    6  A    between atoms: C_21  and  C_22
REMARK                            x       y       z     vdW  Elec       q    Type
REMARK                         _______ _______ _______ _____ _____    ______ ____
ROOT
ATOM      1  N   UNL     1       2.922   6.319  19.096  0.00  0.00    +0.000 N 
ATOM      2  C   UNL     1       1.984   6.465  20.097  0.00  0.00    +0.000 C 
ATOM      3  O   UNL     1       1.519   5.528  20.734  0.00  0.00    +0.000 OA
ATOM      4  H   UNL     1       3.293   7.165  18.676  0.00  0.00    +0.000 HD
ENDROOT
BRANCH   2   5
ATOM      5  C   UNL     1       1.586   7.905  20.344  0.00  0.00    +0.000 A 
ATOM      6  C   UNL     1       1.311   8.239  21.613  0.00  0.00    +0.000 A 
ATOM      7  C   UNL     1       0.919   9.628  21.884  0.00  0.00    +0.000 A 
ATOM      8  O   UNL     1       0.668  10.020  23.017  0.00  0.00    +0.000 OA
ATOM      9  N   UNL     1       0.865  10.441  20.795  0.00  0.00    +0.000 N 
ATOM     10  C   UNL     1       1.189   9.993  19.547  0.00  0.00    +0.000 A 
ATOM     11  N   UNL     1       1.545   8.781  19.274  0.00  0.00    +0.000 NA
ATOM     12  H   UNL     1       0.608  11.403  20.953  0.00  0.00    +0.000 HD
BRANCH  10  13
ATOM     13  C   UNL     1       1.160  10.995  18.464  0.00  0.00    +0.000 C 
ATOM     14  C   UNL     1       2.283  11.993  18.294  0.00  0.00    +0.000 C 
ATOM     15  C   UNL     1       0.940  12.457  18.773  0.00  0.00    +0.000 C 
ENDBRANCH  10  13
ENDBRANCH   2   5
BRANCH   1  16
ATOM     16  C   UNL     1       3.457   5.023  18.756  0.00  0.00    +0.000 C 
BRANCH  16  21
ATOM     17  C   UNL     1       6.376   4.924  16.253  0.00  0.00    +0.000 A 
ATOM     18  C   UNL     1       7.452   5.127  17.134  0.00  0.00    +0.000 A 
ATOM     19  C   UNL     1       7.249   5.295  18.505  0.00  0.00    +0.000 A 
ATOM     20  C   UNL     1       5.958   5.280  19.032  0.00  0.00    +0.000 A 
ATOM     21  C   UNL     1       4.855   5.083  18.193  0.00  0.00    +0.000 A 
ATOM     22  C   UNL     1       5.080   4.910  16.814  0.00  0.00    +0.000 A 
BRANCH  17  28
ATOM     23  C   UNL     1       5.047   2.774  11.891  0.00  0.00    +0.000 C 
ATOM     24  C   UNL     1       5.965   3.680  12.655  0.00  0.00    +0.000 A 
ATOM     25  C   UNL     1       7.020   4.338  12.021  0.00  0.00    +0.000 A 
ATOM     26  C   UNL     1       7.858   5.177  12.750  0.00  0.00    +0.000 A 
ATOM     27  C   UNL     1       7.651   5.360  14.120  0.00  0.00    +0.000 A 
ATOM     28  C   UNL     1       6.598   4.722  14.798  0.00  0.00    +0.000 A 
ATOM     29  C   UNL     1       5.762   3.883  14.032  0.00  0.00    +0.000 A 
ENDBRANCH  17  28
ENDBRANCH  16  21
ENDBRANCH   1  16
TORSDOF 5
ENDMDL
MODEL 7
REMARK VINA RESULT:      -8.3      2.569      3.963
REMARK  Name = 
REMARK  6 active torsions:
REMARK  status: ('A' for Active; 'I' for Inactive)
REMARK    1  A    between atoms: C_1  and  C_2
REMARK    2  A    between atoms: C_6  and  C_7
REMARK    3  A    between atoms: C_11  and  C_12
REMARK    4  A    between atoms: C_12  and  N_13
REMARK    5  A    between atoms: C_14  and  C_16
REMARK    6  A    between atoms: C_21  and  C_22
REMARK                            x       y       z     vdW  Elec       q    Type
REMARK                         _______ _______ _______ _____ _____    ______ ____
ROOT
ATOM      1  N   UNL     1       1.235   8.135  20.356  0.00  0.00    +0.000 N 
ATOM      2  C   UNL     1       0.311   9.048  20.818  0.00  0.00    +0.000 C 
ATOM      3  O   UNL     1      -0.262   8.948  21.896  0.00  0.00    +0.000 OA
ATOM      4  H   UNL     1       1.702   8.345  19.479  0.00  0.00    +0.000 HD
ENDROOT
BRANCH   2   5
ATOM      5  C   UNL     1       0.072  10.200  19.864  0.00  0.00    +0.000 A 
ATOM      6  C   UNL     1       0.956  11.207  19.913  0.00  0.00    +0.000 A 
ATOM      7  C   UNL     1       0.750  12.341  19.002  0.00  0.00    +0.000 A 
ATOM      8  O   UNL     1       1.519  13.293  18.970  0.00  0.00    +0.000 OA
ATOM      9  N   UNL     1      -0.344  12.250  18.198  0.00  0.00    +0.000 N 
ATOM     10  C   UNL     1      -1.166  11.160  18.223  0.00  0.00    +0.000 A 
ATOM     11  N   UNL     1      -1.010  10.144  19.004  0.00  0.00    +0.000 NA
ATOM     12  H   UNL     1      -0.505  13.010  17.556  0.00  0.00    +0.000 HD
BRANCH  10  13
ATOM     13  C   UNL     1      -2.275  11.156  17.249  0.00  0.00    +0.000 C 
ATOM     14  C   UNL     1      -3.486  10.274  17.450  0.00  0.00    +0.000 C 
ATOM     15  C   UNL     1      -2.510   9.963  16.354  0.00  0.00    +0.000 C 
ENDBRANCH  10  13
ENDBRANCH   2   5
BRANCH   1  16
ATOM     16  C   UNL     1       1.627   6.998  21.153  0.00  0.00    +0.000 C 
BRANCH  16  21
ATOM     17  C   UNL     1       3.484   4.628  18.759  0.00  0.00    +0.000 A 
ATOM     18  C   UNL     1       2.582   3.550  18.743  0.00  0.00    +0.000 A 
ATOM     19  C   UNL     1       1.400   3.579  19.487  0.00  0.00    +0.000 A 
ATOM     20  C   UNL     1       1.095   4.684  20.281  0.00  0.00    +0.000 A 
ATOM     21  C   UNL     1       1.965   5.779  20.330  0.00  0.00    +0.000 A 
ATOM     22  C   UNL     1       3.149   5.734  19.570  0.00  0.00    +0.000 A 
BRANCH  17  28
ATOM     23  C   UNL     1       5.780   4.138  14.298  0.00  0.00    +0.000 C 
ATOM     24  C   UNL     1       5.871   4.366  15.777  0.00  0.00    +0.000 A 
ATOM     25  C   UNL     1       7.103   4.560  16.402  0.00  0.00    +0.000 A 
ATOM     26  C   UNL     1       7.164   4.773  17.776  0.00  0.00    +0.000 A 
ATOM     27  C   UNL     1       5.992   4.788  18.537  0.00  0.00    +0.000 A 
ATOM     28  C   UNL     1       4.728   4.603  17.949  0.00  0.00    +0.000 A 
ATOM     29  C   UNL     1       4.699   4.396  16.554  0.00  0.00    +0.000 A 
ENDBRANCH  17  28
ENDBRANCH  16  21
ENDBRANCH   1  16
TORSDOF 5
ENDMDL
MODEL 8
REMARK VINA RESULT:      -8.2      1.370      2.611
REMARK  Name = 
REMARK  6 active torsions:
REMARK  status: ('A' for Active; 'I' for Inactive)
REMARK    1  A    between atoms: C_1  and  C_2
REMARK    2  A    between atoms: C_6  and  C_7
REMARK    3  A    between atoms: C_11  and  C_12
REMARK    4  A    between atoms: C_12  and  N_13
REMARK    5  A    between atoms: C_14  and  C_16
REMARK    6  A    between atoms: C_21  and  C_22
REMARK                            x       y       z     vdW  Elec       q    Type
REMARK                         _______ _______ _______ _____ _____    ______ ____
ROOT
ATOM      1  N   UNL     1      -0.292  11.196  18.417  0.00  0.00    +0.000 N 
ATOM      2  C   UNL     1      -1.497  10.781  17.889  0.00  0.00    +0.000 C 
ATOM      3  O   UNL     1      -1.597   9.949  16.996  0.00  0.00    +0.000 OA
ATOM      4  H   UNL     1      -0.322  11.840  19.201  0.00  0.00    +0.000 HD
ENDROOT
BRANCH   2   5
ATOM      5  C   UNL     1      -2.696  11.449  18.529  0.00  0.00    +0.000 A 
ATOM      6  C   UNL     1      -2.459  12.173  19.632  0.00  0.00    +0.000 A 
ATOM      7  C   UNL     1      -3.603  12.831  20.276  0.00  0.00    +0.000 A 
ATOM      8  O   UNL     1      -3.471  13.525  21.276  0.00  0.00    +0.000 OA
ATOM      9  N   UNL     1      -4.808  12.620  19.680  0.00  0.00    +0.000 N 
ATOM     10  C   UNL     1      -4.925  11.875  18.542  0.00  0.00    +0.000 A 
ATOM     11  N   UNL     1      -3.940  11.291  17.945  0.00  0.00    +0.000 NA
ATOM     12  H   UNL     1      -5.609  13.067  20.095  0.00  0.00    +0.000 HD
BRANCH  10  13
ATOM     13  C   UNL     1      -6.277  11.786  17.956  0.00  0.00    +0.000 C 
ATOM     14  C   UNL     1      -6.834  12.904  17.105  0.00  0.00    +0.000 C 
ATOM     15  C   UNL     1      -7.399  12.656  18.472  0.00  0.00    +0.000 C 
ENDBRANCH  10  13
ENDBRANCH   2   5
BRANCH   1  16
ATOM     16  C   UNL     1       0.956  10.630  17.966  0.00  0.00    +0.000 C 
BRANCH  16  21
ATOM     17  C   UNL     1       2.410   7.159  18.761  0.00  0.00    +0.000 A 
ATOM     18  C   UNL     1       2.080   7.069  20.124  0.00  0.00    +0.000 A 
ATOM     19  C   UNL     1       1.405   8.102  20.780  0.00  0.00    +0.000 A 
ATOM     20  C   UNL     1       1.056   9.262  20.090  0.00  0.00    +0.000 A 
ATOM     21  C   UNL     1       1.366   9.397  18.733  0.00  0.00    +0.000 A 
ATOM     22  C   UNL     1       2.042   8.344  18.088  0.00  0.00    +0.000 A 
BRANCH  17  28
ATOM     23  C   UNL     1       2.790   2.257  17.647  0.00  0.00    +0.000 C 
ATOM     24  C   UNL     1       3.311   3.656  17.505  0.00  0.00    +0.000 A 
ATOM     25  C   UNL     1       4.434   3.931  16.725  0.00  0.00    +0.000 A 
ATOM     26  C   UNL     1       4.898   5.238  16.605  0.00  0.00    +0.000 A 
ATOM     27  C   UNL     1       4.246   6.279  17.271  0.00  0.00    +0.000 A 
ATOM     28  C   UNL     1       3.107   6.049  18.062  0.00  0.00    +0.000 A 
ATOM     29  C   UNL     1       2.657   4.715  18.159  0.00  0.00    +0.000 A 
ENDBRANCH  17  28
ENDBRANCH  16  21
ENDBRANCH   1  16
TORSDOF 5
ENDMDL
MODEL 9
REMARK VINA RESULT:      -8.2      2.199      3.380
REMARK  Name = 
REMARK  6 active torsions:
REMARK  status: ('A' for Active; 'I' for Inactive)
REMARK    1  A    between atoms: C_1  and  C_2
REMARK    2  A    between atoms: C_6  and  C_7
REMARK    3  A    between atoms: C_11  and  C_12
REMARK    4  A    between atoms: C_12  and  N_13
REMARK    5  A    between atoms: C_14  and  C_16
REMARK    6  A    between atoms: C_21  and  C_22
REMARK                            x       y       z     vdW  Elec       q    Type
REMARK                         _______ _______ _______ _____ _____    ______ ____
ROOT
ATOM      1  N   UNL     1       0.601   8.814  20.328  0.00  0.00    +0.000 N 
ATOM      2  C   UNL     1       0.569  10.171  20.570  0.00  0.00    +0.000 C 
ATOM      3  O   UNL     1       1.093  10.700  21.542  0.00  0.00    +0.000 OA
ATOM      4  H   UNL     1       0.194   8.484  19.458  0.00  0.00    +0.000 HD
ENDROOT
BRANCH   2   5
ATOM      5  C   UNL     1      -0.175  10.955  19.509  0.00  0.00    +0.000 A 
ATOM      6  C   UNL     1       0.129  12.256  19.406  0.00  0.00    +0.000 A 
ATOM      7  C   UNL     1      -0.578  13.043  18.387  0.00  0.00    +0.000 A 
ATOM      8  O   UNL     1      -0.347  14.233  18.214  0.00  0.00    +0.000 OA
ATOM      9  N   UNL     1      -1.493  12.357  17.651  0.00  0.00    +0.000 N 
ATOM     10  C   UNL     1      -1.705  11.020  17.834  0.00  0.00    +0.000 A 
ATOM     11  N   UNL     1      -1.096  10.296  18.714  0.00  0.00    +0.000 NA
ATOM     12  H   UNL     1      -1.987  12.870  16.939  0.00  0.00    +0.000 HD
BRANCH  10  13
ATOM     13  C   UNL     1      -2.673  10.381  16.921  0.00  0.00    +0.000 C 
ATOM     14  C   UNL     1      -2.844  10.869  15.500  0.00  0.00    +0.000 C 
ATOM     15  C   UNL     1      -3.933  11.103  16.505  0.00  0.00    +0.000 C 
ENDBRANCH  10  13
ENDBRANCH   2   5
BRANCH   1  16
ATOM     16  C   UNL     1       1.310   7.914  21.206  0.00  0.00    +0.000 C 
BRANCH  16  21
ATOM     17  C   UNL     1       3.062   5.577  18.702  0.00  0.00    +0.000 A 
ATOM     18  C   UNL     1       2.620   4.335  19.187  0.00  0.00    +0.000 A 
ATOM     19  C   UNL     1       1.777   4.244  20.297  0.00  0.00    +0.000 A 
ATOM     20  C   UNL     1       1.365   5.397  20.963  0.00  0.00    +0.000 A 
ATOM     21  C   UNL     1       1.782   6.656  20.518  0.00  0.00    +0.000 A 
ATOM     22  C   UNL     1       2.628   6.728  19.395  0.00  0.00    +0.000 A 
BRANCH  17  28
ATOM     23  C   UNL     1       5.918   3.348  15.196  0.00  0.00    +0.000 C 
ATOM     24  C   UNL     1       5.340   4.602  15.784  0.00  0.00    +0.000 A 
ATOM     25  C   UNL     1       5.611   5.851  15.225  0.00  0.00    +0.000 A 
ATOM     26  C   UNL     1       5.062   7.000  15.786  0.00  0.00    +0.000 A 
ATOM     27  C   UNL     1       4.243   6.909  16.915  0.00  0.00    +0.000 A 
ATOM     28  C   UNL     1       3.939   5.671  17.507  0.00  0.00    +0.000 A 
ATOM     29  C   UNL     1       4.505   4.524  16.913  0.00  0.00    +0.000 A 
ENDBRANCH  17  28
ENDBRANCH  16  21
ENDBRANCH   1  16
TORSDOF 5
ENDMDL
