MODEL 1
REMARK VINA RESULT:      -8.5      0.000      0.000
REMARK  Name = 
REMARK  7 active torsions:
REMARK  status: ('A' for Active; 'I' for Inactive)
REMARK    1  A    between atoms: C_2  and  C_16
REMARK    2  A    between atoms: N_3  and  C_4
REMARK    3  A    between atoms: C_7  and  C_8
REMARK    4  A    between atoms: C_8  and  N_9
REMARK    5  A    between atoms: C_21  and  N_22
REMARK    6  A    between atoms: N_22  and  C_23
REMARK    7  A    between atoms: C_23  and  C_24
REMARK                            x       y       z     vdW  Elec       q    Type
REMARK                         _______ _______ _______ _____ _____    ______ ____
ROOT
ATOM      1  O   UNL     1       4.892   5.856  19.077  0.00  0.00    +0.000 OA
ATOM      2  C   UNL     1       4.268   5.911  18.019  0.00  0.00    +0.000 C 
ATOM      3  N   UNL     1       3.060   6.555  17.828  0.00  0.00    +0.000 N 
ATOM      4  H   UNL     1       2.640   6.443  16.907  0.00  0.00    +0.000 HD
ENDROOT
BRANCH   3   5
ATOM      5  C   UNL     1       2.353   7.302  18.803  0.00  0.00    +0.000 A 
ATOM      6  C   UNL     1       1.926   8.618  18.600  0.00  0.00    +0.000 A 
ATOM      7  C   UNL     1       1.280   9.337  19.607  0.00  0.00    +0.000 A 
ATOM      8  C   UNL     1       1.024   8.751  20.849  0.00  0.00    +0.000 A 
ATOM      9  C   UNL     1       1.403   7.415  21.044  0.00  0.00    +0.000 A 
ATOM     10  C   UNL     1       2.069   6.701  20.033  0.00  0.00    +0.000 A 
BRANCH   8  11
ATOM     11  C   UNL     1       0.385   9.560  21.948  0.00  0.00    +0.000 C 
BRANCH  11  12
ATOM     12  N   UNL     1       0.095  10.928  21.557  0.00  0.00    +0.000 N 
ATOM     13  C   UNL     1      -1.050  11.417  21.007  0.00  0.00    +0.000 A 
ATOM     14  N   UNL     1      -0.865  12.665  20.638  0.00  0.00    +0.000 NA
ATOM     15  C   UNL     1       0.437  12.893  20.979  0.00  0.00    +0.000 A 
ATOM     16  N   UNL     1       1.072  11.859  21.534  0.00  0.00    +0.000 NA
ENDBRANCH  11  12
ENDBRANCH   8  11
ENDBRANCH   3   5
BRANCH   2  17
ATOM     17  C   UNL     1       4.888   5.233  16.842  0.00  0.00    +0.000 A 
ATOM     18  C   UNL     1       5.261   6.105  15.796  0.00  0.00    +0.000 A 
ATOM     19  C   UNL     1       5.921   5.644  14.663  0.00  0.00    +0.000 A 
ATOM     20  C   UNL     1       6.258   4.304  14.582  0.00  0.00    +0.000 A 
ATOM     21  C   UNL     1       5.886   3.427  15.605  0.00  0.00    +0.000 A 
ATOM     22  C   UNL     1       5.134   3.849  16.724  0.00  0.00    +0.000 A 
BRANCH  22  23
ATOM     23  N   UNL     1       4.722   2.928  17.726  0.00  0.00    +0.000 N 
ATOM     24  H   UNL     1       5.328   2.104  17.681  0.00  0.00    +0.000 HD
BRANCH  23  25
ATOM     25  C   UNL     1       3.315   2.507  17.644  0.00  0.00    +0.000 C 
BRANCH  25  26
ATOM     26  C   UNL     1       2.601   2.630  18.966  0.00  0.00    +0.000 A 
ATOM     27  C   UNL     1       3.322   2.601  20.170  0.00  0.00    +0.000 A 
ATOM     28  C   UNL     1       2.697   2.904  21.378  0.00  0.00    +0.000 A 
ATOM     29  C   UNL     1       1.345   3.246  21.398  0.00  0.00    +0.000 A 
ATOM     30  C   UNL     1       0.614   3.266  20.212  0.00  0.00    +0.000 A 
ATOM     31  C   UNL     1       1.237   2.959  19.002  0.00  0.00    +0.000 A 
ENDBRANCH  25  26
ENDBRANCH  23  25
ENDBRANCH  22  23
ENDBRANCH   2  17
TORSDOF 7
ENDMDL
MODEL 2
REMARK VINA RESULT:      -8.4      1.339      1.717
REMARK  Name = 
REMARK  7 active torsions:
REMARK  status: ('A' for Active; 'I' for Inactive)
REMARK    1  A    between atoms: C_2  and  C_16
REMARK    2  A    between atoms: N_3  and  C_4
REMARK    3  A    between atoms: C_7  and  C_8
REMARK    4  A    between atoms: C_8  and  N_9
REMARK    5  A    between atoms: C_21  and  N_22
REMARK    6  A    between atoms: N_22  and  C_23
REMARK    7  A    between atoms: C_23  and  C_24
REMARK                            x       y       z     vdW  Elec       q    Type
REMARK                         _______ _______ _______ _____ _____    ______ ____
ROOT
ATOM      1  O   UNL     1       2.401   5.483  17.822  0.00  0.00    +0.000 OA
ATOM      2  C   UNL     1       3.372   6.235  17.751  0.00  0.00    +0.000 C 
ATOM      3  N   UNL     1       3.368   7.586  18.045  0.00  0.00    +0.000 N 
ATOM      4  H   UNL     1       4.240   8.079  17.864  0.00  0.00    +0.000 HD
ENDROOT
BRANCH   3   5
ATOM      5  C   UNL     1       2.261   8.330  18.523  0.00  0.00    +0.000 A 
ATOM      6  C   UNL     1       1.496   9.173  17.712  0.00  0.00    +0.000 A 
ATOM      7  C   UNL     1       0.446   9.931  18.235  0.00  0.00    +0.000 A 
ATOM      8  C   UNL     1       0.118   9.851  19.591  0.00  0.00    +0.000 A 
ATOM      9  C   UNL     1       0.847   8.969  20.401  0.00  0.00    +0.000 A 
ATOM     10  C   UNL     1       1.914   8.223  19.873  0.00  0.00    +0.000 A 
BRANCH   8  11
ATOM     11  C   UNL     1      -0.975  10.723  20.154  0.00  0.00    +0.000 C 
BRANCH  11  12
ATOM     12  N   UNL     1      -0.484  11.732  21.075  0.00  0.00    +0.000 N 
ATOM     13  C   UNL     1      -0.743  11.848  22.407  0.00  0.00    +0.000 A 
ATOM     14  N   UNL     1      -0.258  12.985  22.853  0.00  0.00    +0.000 NA
ATOM     15  C   UNL     1       0.288  13.545  21.735  0.00  0.00    +0.000 A 
ATOM     16  N   UNL     1       0.166  12.823  20.617  0.00  0.00    +0.000 NA
ENDBRANCH  11  12
ENDBRANCH   8  11
ENDBRANCH   3   5
BRANCH   2  17
ATOM     17  C   UNL     1       4.664   5.619  17.325  0.00  0.00    +0.000 A 
ATOM     18  C   UNL     1       5.035   5.906  15.993  0.00  0.00    +0.000 A 
ATOM     19  C   UNL     1       6.246   5.473  15.465  0.00  0.00    +0.000 A 
ATOM     20  C   UNL     1       7.125   4.782  16.281  0.00  0.00    +0.000 A 
ATOM     21  C   UNL     1       6.766   4.481  17.598  0.00  0.00    +0.000 A 
ATOM     22  C   UNL     1       5.505   4.827  18.134  0.00  0.00    +0.000 A 
BRANCH  22  23
ATOM     23  N   UNL     1       5.142   4.464  19.460  0.00  0.00    +0.000 N 
ATOM     24  H   UNL     1       5.924   4.684  20.084  0.00  0.00    +0.000 HD
BRANCH  23  25
ATOM     25  C   UNL     1       4.753   3.057  19.637  0.00  0.00    +0.000 C 
BRANCH  25  26
ATOM     26  C   UNL     1       3.260   2.882  19.742  0.00  0.00    +0.000 A 
ATOM     27  C   UNL     1       2.533   3.554  20.737  0.00  0.00    +0.000 A 
ATOM     28  C   UNL     1       1.139   3.549  20.722  0.00  0.00    +0.000 A 
ATOM     29  C   UNL     1       0.454   2.878  19.710  0.00  0.00    +0.000 A 
ATOM     30  C   UNL     1       1.163   2.196  18.723  0.00  0.00    +0.000 A 
ATOM     31  C   UNL     1       2.558   2.196  18.738  0.00  0.00    +0.000 A 
ENDBRANCH  25  26
ENDBRANCH  23  25
ENDBRANCH  22  23
ENDBRANCH   2  17
TORSDOF 7
ENDMDL
MODEL 3
REMARK VINA RESULT:      -8.3      0.919      1.468
REMARK  Name = 
REMARK  7 active torsions:
REMARK  status: ('A' for Active; 'I' for Inactive)
REMARK    1  A    between atoms: C_2  and  C_16
REMARK    2  A    between atoms: N_3  and  C_4
REMARK    3  A    between atoms: C_7  and  C_8
REMARK    4  A    between atoms: C_8  and  N_9
REMARK    5  A    between atoms: C_21  and  N_22
REMARK    6  A    between atoms: N_22  and  C_23
REMARK    7  A    between atoms: C_23  and  C_24
REMARK                            x       y       z     vdW  Elec       q    Type
REMARK                         _______ _______ _______ _____ _____    ______ ____
ROOT
ATOM      1  O   UNL     1       4.529   5.708  19.039  0.00  0.00    +0.000 OA
ATOM      2  C   UNL     1       4.175   5.984  17.894  0.00  0.00    +0.000 C 
ATOM      3  N   UNL     1       3.202   6.905  17.552  0.00  0.00    +0.000 N 
ATOM      4  H   UNL     1       2.978   6.961  16.560  0.00  0.00    +0.000 HD
ENDROOT
BRANCH   3   5
ATOM      5  C   UNL     1       2.477   7.723  18.453  0.00  0.00    +0.000 A 
ATOM      6  C   UNL     1       2.154   7.330  19.755  0.00  0.00    +0.000 A 
ATOM      7  C   UNL     1       1.390   8.145  20.593  0.00  0.00    +0.000 A 
ATOM      8  C   UNL     1       0.941   9.393  20.156  0.00  0.00    +0.000 A 
ATOM      9  C   UNL     1       1.304   9.817  18.870  0.00  0.00    +0.000 A 
ATOM     10  C   UNL     1       2.057   8.985  18.024  0.00  0.00    +0.000 A 
BRANCH   8  11
ATOM     11  C   UNL     1       0.063  10.233  21.047  0.00  0.00    +0.000 C 
BRANCH  11  12
ATOM     12  N   UNL     1      -0.863  11.075  20.311  0.00  0.00    +0.000 N 
ATOM     13  C   UNL     1      -1.316  12.314  20.646  0.00  0.00    +0.000 A 
ATOM     14  N   UNL     1      -2.269  12.675  19.816  0.00  0.00    +0.000 NA
ATOM     15  C   UNL     1      -2.372  11.599  18.983  0.00  0.00    +0.000 A 
ATOM     16  N   UNL     1      -1.541  10.588  19.250  0.00  0.00    +0.000 NA
ENDBRANCH  11  12
ENDBRANCH   8  11
ENDBRANCH   3   5
BRANCH   2  17
ATOM     17  C   UNL     1       4.877   5.268  16.788  0.00  0.00    +0.000 A 
ATOM     18  C   UNL     1       5.254   6.094  15.706  0.00  0.00    +0.000 A 
ATOM     19  C   UNL     1       5.983   5.598  14.631  0.00  0.00    +0.000 A 
ATOM     20  C   UNL     1       6.384   4.274  14.647  0.00  0.00    +0.000 A 
ATOM     21  C   UNL     1       6.010   3.442  15.706  0.00  0.00    +0.000 A 
ATOM     22  C   UNL     1       5.191   3.893  16.766  0.00  0.00    +0.000 A 
BRANCH  22  23
ATOM     23  N   UNL     1       4.779   3.015  17.805  0.00  0.00    +0.000 N 
ATOM     24  H   UNL     1       5.409   2.208  17.818  0.00  0.00    +0.000 HD
BRANCH  23  25
ATOM     25  C   UNL     1       3.387   2.551  17.712  0.00  0.00    +0.000 C 
BRANCH  25  26
ATOM     26  C   UNL     1       2.623   2.765  18.994  0.00  0.00    +0.000 A 
ATOM     27  C   UNL     1       3.197   2.425  20.229  0.00  0.00    +0.000 A 
ATOM     28  C   UNL     1       2.579   2.795  21.423  0.00  0.00    +0.000 A 
ATOM     29  C   UNL     1       1.385   3.513  21.398  0.00  0.00    +0.000 A 
ATOM     30  C   UNL     1       0.797   3.846  20.179  0.00  0.00    +0.000 A 
ATOM     31  C   UNL     1       1.412   3.473  18.983  0.00  0.00    +0.000 A 
ENDBRANCH  25  26
ENDBRANCH  23  25
ENDBRANCH  22  23
ENDBRANCH   2  17
TORSDOF 7
ENDMDL
MODEL 4
REMARK VINA RESULT:      -8.3      0.895      1.536
REMARK  Name = 
REMARK  7 active torsions:
REMARK  status: ('A' for Active; 'I' for Inactive)
REMARK    1  A    between atoms: C_2  and  C_16
REMARK    2  A    between atoms: N_3  and  C_4
REMARK    3  A    between atoms: C_7  and  C_8
REMARK    4  A    between atoms: C_8  and  N_9
REMARK    5  A    between atoms: C_21  and  N_22
REMARK    6  A    between atoms: N_22  and  C_23
REMARK    7  A    between atoms: C_23  and  C_24
REMARK                            x       y       z     vdW  Elec       q    Type
REMARK                         _______ _______ _______ _____ _____    ______ ____
ROOT
ATOM      1  O   UNL     1       5.339   7.288  17.767  0.00  0.00    +0.000 OA
ATOM      2  C   UNL     1       4.548   6.443  17.352  0.00  0.00    +0.000 C 
ATOM      3  N   UNL     1       3.213   6.352  17.697  0.00  0.00    +0.000 N 
ATOM      4  H   UNL     1       2.714   5.548  17.321  0.00  0.00    +0.000 HD
ENDROOT
BRANCH   3   5
ATOM      5  C   UNL     1       2.511   7.240  18.550  0.00  0.00    +0.000 A 
ATOM      6  C   UNL     1       2.252   6.967  19.896  0.00  0.00    +0.000 A 
ATOM      7  C   UNL     1       1.510   7.845  20.688  0.00  0.00    +0.000 A 
ATOM      8  C   UNL     1       1.017   9.040  20.156  0.00  0.00    +0.000 A 
ATOM      9  C   UNL     1       1.316   9.345  18.821  0.00  0.00    +0.000 A 
ATOM     10  C   UNL     1       2.048   8.449  18.024  0.00  0.00    +0.000 A 
BRANCH   8  11
ATOM     11  C   UNL     1       0.162   9.946  21.003  0.00  0.00    +0.000 C 
BRANCH  11  12
ATOM     12  N   UNL     1      -0.264  11.146  20.308  0.00  0.00    +0.000 N 
ATOM     13  C   UNL     1      -1.322  11.294  19.462  0.00  0.00    +0.000 A 
ATOM     14  N   UNL     1      -1.277  12.482  18.902  0.00  0.00    +0.000 NA
ATOM     15  C   UNL     1      -0.147  13.029  19.438  0.00  0.00    +0.000 A 
ATOM     16  N   UNL     1       0.515  12.248  20.295  0.00  0.00    +0.000 NA
ENDBRANCH  11  12
ENDBRANCH   8  11
ENDBRANCH   3   5
BRANCH   2  17
ATOM     17  C   UNL     1       5.086   5.446  16.380  0.00  0.00    +0.000 A 
ATOM     18  C   UNL     1       5.380   5.976  15.105  0.00  0.00    +0.000 A 
ATOM     19  C   UNL     1       5.960   5.198  14.109  0.00  0.00    +0.000 A 
ATOM     20  C   UNL     1       6.295   3.886  14.393  0.00  0.00    +0.000 A 
ATOM     21  C   UNL     1       6.000   3.344  15.647  0.00  0.00    +0.000 A 
ATOM     22  C   UNL     1       5.328   4.082  16.648  0.00  0.00    +0.000 A 
BRANCH  22  23
ATOM     23  N   UNL     1       4.991   3.494  17.897  0.00  0.00    +0.000 N 
ATOM     24  H   UNL     1       5.766   2.895  18.196  0.00  0.00    +0.000 HD
BRANCH  23  25
ATOM     25  C   UNL     1       3.741   2.720  17.905  0.00  0.00    +0.000 C 
BRANCH  25  26
ATOM     26  C   UNL     1       2.904   2.991  19.129  0.00  0.00    +0.000 A 
ATOM     27  C   UNL     1       1.566   3.395  19.001  0.00  0.00    +0.000 A 
ATOM     28  C   UNL     1       0.736   3.462  20.119  0.00  0.00    +0.000 A 
ATOM     29  C   UNL     1       1.229   3.119  21.376  0.00  0.00    +0.000 A 
ATOM     30  C   UNL     1       2.559   2.729  21.521  0.00  0.00    +0.000 A 
ATOM     31  C   UNL     1       3.393   2.665  20.404  0.00  0.00    +0.000 A 
ENDBRANCH  25  26
ENDBRANCH  23  25
ENDBRANCH  22  23
ENDBRANCH   2  17
TORSDOF 7
ENDMDL
MODEL 5
REMARK VINA RESULT:      -8.3      0.848      1.504
REMARK  Name = 
REMARK  7 active torsions:
REMARK  status: ('A' for Active; 'I' for Inactive)
REMARK    1  A    between atoms: C_2  and  C_16
REMARK    2  A    between atoms: N_3  and  C_4
REMARK    3  A    between atoms: C_7  and  C_8
REMARK    4  A    between atoms: C_8  and  N_9
REMARK    5  A    between atoms: C_21  and  N_22
REMARK    6  A    between atoms: N_22  and  C_23
REMARK    7  A    between atoms: C_23  and  C_24
REMARK                            x       y       z     vdW  Elec       q    Type
REMARK                         _______ _______ _______ _____ _____    ______ ____
ROOT
ATOM      1  O   UNL     1       4.457   5.861  19.403  0.00  0.00    +0.000 OA
ATOM      2  C   UNL     1       4.184   6.123  18.232  0.00  0.00    +0.000 C 
ATOM      3  N   UNL     1       3.201   6.998  17.811  0.00  0.00    +0.000 N 
ATOM      4  H   UNL     1       3.055   7.047  16.805  0.00  0.00    +0.000 HD
ENDROOT
BRANCH   3   5
ATOM      5  C   UNL     1       2.368   7.779  18.650  0.00  0.00    +0.000 A 
ATOM      6  C   UNL     1       2.095   7.451  19.981  0.00  0.00    +0.000 A 
ATOM      7  C   UNL     1       1.225   8.219  20.757  0.00  0.00    +0.000 A 
ATOM      8  C   UNL     1       0.613   9.357  20.226  0.00  0.00    +0.000 A 
ATOM      9  C   UNL     1       0.922   9.723  18.908  0.00  0.00    +0.000 A 
ATOM     10  C   UNL     1       1.784   8.936  18.125  0.00  0.00    +0.000 A 
BRANCH   8  11
ATOM     11  C   UNL     1      -0.374  10.139  21.054  0.00  0.00    +0.000 C 
BRANCH  11  12
ATOM     12  N   UNL     1      -0.133  11.570  21.032  0.00  0.00    +0.000 N 
ATOM     13  C   UNL     1      -0.896  12.540  20.456  0.00  0.00    +0.000 A 
ATOM     14  N   UNL     1      -0.259  13.688  20.503  0.00  0.00    +0.000 NA
ATOM     15  C   UNL     1       0.915  13.362  21.118  0.00  0.00    +0.000 A 
ATOM     16  N   UNL     1       1.046  12.076  21.452  0.00  0.00    +0.000 NA
ENDBRANCH  11  12
ENDBRANCH   8  11
ENDBRANCH   3   5
BRANCH   2  17
ATOM     17  C   UNL     1       5.005   5.443  17.187  0.00  0.00    +0.000 A 
ATOM     18  C   UNL     1       6.216   6.101  16.877  0.00  0.00    +0.000 A 
ATOM     19  C   UNL     1       7.130   5.559  15.981  0.00  0.00    +0.000 A 
ATOM     20  C   UNL     1       6.865   4.324  15.416  0.00  0.00    +0.000 A 
ATOM     21  C   UNL     1       5.666   3.666  15.705  0.00  0.00    +0.000 A 
ATOM     22  C   UNL     1       4.676   4.234  16.539  0.00  0.00    +0.000 A 
BRANCH  22  23
ATOM     23  N   UNL     1       3.442   3.570  16.777  0.00  0.00    +0.000 N 
ATOM     24  H   UNL     1       2.742   4.269  17.042  0.00  0.00    +0.000 HD
BRANCH  23  25
ATOM     25  C   UNL     1       3.489   2.511  17.796  0.00  0.00    +0.000 C 
BRANCH  25  26
ATOM     26  C   UNL     1       2.810   2.918  19.079  0.00  0.00    +0.000 A 
ATOM     27  C   UNL     1       1.577   3.588  19.050  0.00  0.00    +0.000 A 
ATOM     28  C   UNL     1       0.856   3.795  20.224  0.00  0.00    +0.000 A 
ATOM     29  C   UNL     1       1.353   3.331  21.441  0.00  0.00    +0.000 A 
ATOM     30  C   UNL     1       2.583   2.676  21.487  0.00  0.00    +0.000 A 
ATOM     31  C   UNL     1       3.308   2.471  20.312  0.00  0.00    +0.000 A 
ENDBRANCH  25  26
ENDBRANCH  23  25
ENDBRANCH  22  23
ENDBRANCH   2  17
TORSDOF 7
ENDMDL
MODEL 6
REMARK VINA RESULT:      -8.3      1.074      1.251
REMARK  Name = 
REMARK  7 active torsions:
REMARK  status: ('A' for Active; 'I' for Inactive)
REMARK    1  A    between atoms: C_2  and  C_16
REMARK    2  A    between atoms: N_3  and  C_4
REMARK    3  A    between atoms: C_7  and  C_8
REMARK    4  A    between atoms: C_8  and  N_9
REMARK    5  A    between atoms: C_21  and  N_22
REMARK    6  A    between atoms: N_22  and  C_23
REMARK    7  A    between atoms: C_23  and  C_24
REMARK                            x       y       z     vdW  Elec       q    Type
REMARK                         _______ _______ _______ _____ _____    ______ ____
ROOT
ATOM      1  O   UNL     1       3.496   5.822  19.392  0.00  0.00    +0.000 OA
ATOM      2  C   UNL     1       3.720   6.352  18.305  0.00  0.00    +0.000 C 
ATOM      3  N   UNL     1       3.102   7.491  17.822  0.00  0.00    +0.000 N 
ATOM      4  H   UNL     1       3.350   7.758  16.871  0.00  0.00    +0.000 HD
ENDROOT
BRANCH   3   5
ATOM      5  C   UNL     1       2.140   8.271  18.510  0.00  0.00    +0.000 A 
ATOM      6  C   UNL     1       1.382   9.272  17.895  0.00  0.00    +0.000 A 
ATOM      7  C   UNL     1       0.483  10.055  18.622  0.00  0.00    +0.000 A 
ATOM      8  C   UNL     1       0.302   9.845  19.991  0.00  0.00    +0.000 A 
ATOM      9  C   UNL     1       1.020   8.810  20.605  0.00  0.00    +0.000 A 
ATOM     10  C   UNL     1       1.937   8.036  19.873  0.00  0.00    +0.000 A 
BRANCH   8  11
ATOM     11  C   UNL     1      -0.622  10.741  20.775  0.00  0.00    +0.000 C 
BRANCH  11  12
ATOM     12  N   UNL     1      -0.175  12.120  20.827  0.00  0.00    +0.000 N 
ATOM     13  C   UNL     1      -0.656  13.185  20.128  0.00  0.00    +0.000 A 
ATOM     14  N   UNL     1       0.120  14.228  20.322  0.00  0.00    +0.000 NA
ATOM     15  C   UNL     1       1.086  13.739  21.153  0.00  0.00    +0.000 A 
ATOM     16  N   UNL     1       0.957  12.452  21.484  0.00  0.00    +0.000 NA
ENDBRANCH  11  12
ENDBRANCH   8  11
ENDBRANCH   3   5
BRANCH   2  17
ATOM     17  C   UNL     1       4.763   5.710  17.451  0.00  0.00    +0.000 A 
ATOM     18  C   UNL     1       5.951   6.462  17.317  0.00  0.00    +0.000 A 
ATOM     19  C   UNL     1       7.048   5.971  16.619  0.00  0.00    +0.000 A 
ATOM     20  C   UNL     1       6.987   4.698  16.083  0.00  0.00    +0.000 A 
ATOM     21  C   UNL     1       5.814   3.946  16.198  0.00  0.00    +0.000 A 
ATOM     22  C   UNL     1       4.651   4.453  16.821  0.00  0.00    +0.000 A 
BRANCH  22  23
ATOM     23  N   UNL     1       3.453   3.690  16.881  0.00  0.00    +0.000 N 
ATOM     24  H   UNL     1       2.703   4.290  17.237  0.00  0.00    +0.000 HD
BRANCH  23  25
ATOM     25  C   UNL     1       3.532   2.468  17.693  0.00  0.00    +0.000 C 
BRANCH  25  26
ATOM     26  C   UNL     1       2.743   2.576  18.973  0.00  0.00    +0.000 A 
ATOM     27  C   UNL     1       3.384   2.464  20.216  0.00  0.00    +0.000 A 
ATOM     28  C   UNL     1       2.699   2.752  21.396  0.00  0.00    +0.000 A 
ATOM     29  C   UNL     1       1.368   3.162  21.348  0.00  0.00    +0.000 A 
ATOM     30  C   UNL     1       0.714   3.266  20.121  0.00  0.00    +0.000 A 
ATOM     31  C   UNL     1       1.397   2.974  18.940  0.00  0.00    +0.000 A 
ENDBRANCH  25  26
ENDBRANCH  23  25
ENDBRANCH  22  23
ENDBRANCH   2  17
TORSDOF 7
ENDMDL
MODEL 7
REMARK VINA RESULT:      -8.2      0.934      1.427
REMARK  Name = 
REMARK  7 active torsions:
REMARK  status: ('A' for Active; 'I' for Inactive)
REMARK    1  A    between atoms: C_2  and  C_16
REMARK    2  A    between atoms: N_3  and  C_4
REMARK    3  A    between atoms: C_7  and  C_8
REMARK    4  A    between atoms: C_8  and  N_9
REMARK    5  A    between atoms: C_21  and  N_22
REMARK    6  A    between atoms: N_22  and  C_23
REMARK    7  A    between atoms: C_23  and  C_24
REMARK                            x       y       z     vdW  Elec       q    Type
REMARK                         _______ _______ _______ _____ _____    ______ ____
ROOT
ATOM      1  O   UNL     1       4.297   5.770  19.448  0.00  0.00    +0.000 OA
ATOM      2  C   UNL     1       4.095   6.123  18.287  0.00  0.00    +0.000 C 
ATOM      3  N   UNL     1       3.173   7.070  17.882  0.00  0.00    +0.000 N 
ATOM      4  H   UNL     1       3.081   7.194  16.875  0.00  0.00    +0.000 HD
ENDROOT
BRANCH   3   5
ATOM      5  C   UNL     1       2.333   7.830  18.733  0.00  0.00    +0.000 A 
ATOM      6  C   UNL     1       2.049   7.469  20.053  0.00  0.00    +0.000 A 
ATOM      7  C   UNL     1       1.172   8.218  20.840  0.00  0.00    +0.000 A 
ATOM      8  C   UNL     1       0.565   9.369  20.332  0.00  0.00    +0.000 A 
ATOM      9  C   UNL     1       0.884   9.767  19.027  0.00  0.00    +0.000 A 
ATOM     10  C   UNL     1       1.753   9.000  18.232  0.00  0.00    +0.000 A 
BRANCH   8  11
ATOM     11  C   UNL     1      -0.429  10.130  21.171  0.00  0.00    +0.000 C 
BRANCH  11  12
ATOM     12  N   UNL     1      -0.542  11.527  20.798  0.00  0.00    +0.000 N 
ATOM     13  C   UNL     1       0.275  12.558  21.153  0.00  0.00    +0.000 A 
ATOM     14  N   UNL     1      -0.254  13.695  20.759  0.00  0.00    +0.000 NA
ATOM     15  C   UNL     1      -1.419  13.302  20.168  0.00  0.00    +0.000 A 
ATOM     16  N   UNL     1      -1.648  11.986  20.175  0.00  0.00    +0.000 NA
ENDBRANCH  11  12
ENDBRANCH   8  11
ENDBRANCH   3   5
BRANCH   2  17
ATOM     17  C   UNL     1       4.938   5.478  17.237  0.00  0.00    +0.000 A 
ATOM     18  C   UNL     1       6.129   6.175  16.937  0.00  0.00    +0.000 A 
ATOM     19  C   UNL     1       7.061   5.669  16.038  0.00  0.00    +0.000 A 
ATOM     20  C   UNL     1       6.834   4.433  15.460  0.00  0.00    +0.000 A 
ATOM     21  C   UNL     1       5.654   3.737  15.739  0.00  0.00    +0.000 A 
ATOM     22  C   UNL     1       4.647   4.267  16.576  0.00  0.00    +0.000 A 
BRANCH  22  23
ATOM     23  N   UNL     1       3.432   3.564  16.804  0.00  0.00    +0.000 N 
ATOM     24  H   UNL     1       2.722   4.234  17.115  0.00  0.00    +0.000 HD
BRANCH  23  25
ATOM     25  C   UNL     1       3.522   2.460  17.770  0.00  0.00    +0.000 C 
BRANCH  25  26
ATOM     26  C   UNL     1       2.725   2.724  19.022  0.00  0.00    +0.000 A 
ATOM     27  C   UNL     1       3.242   2.381  20.280  0.00  0.00    +0.000 A 
ATOM     28  C   UNL     1       2.600   2.793  21.447  0.00  0.00    +0.000 A 
ATOM     29  C   UNL     1       1.438   3.559  21.371  0.00  0.00    +0.000 A 
ATOM     30  C   UNL     1       0.905   3.897  20.128  0.00  0.00    +0.000 A 
ATOM     31  C   UNL     1       1.544   3.481  18.959  0.00  0.00    +0.000 A 
ENDBRANCH  25  26
ENDBRANCH  23  25
ENDBRANCH  22  23
ENDBRANCH   2  17
TORSDOF 7
ENDMDL
MODEL 8
REMARK VINA RESULT:      -8.2      0.984      1.477
REMARK  Name = 
REMARK  7 active torsions:
REMARK  status: ('A' for Active; 'I' for Inactive)
REMARK    1  A    between atoms: C_2  and  C_16
REMARK    2  A    between atoms: N_3  and  C_4
REMARK    3  A    between atoms: C_7  and  C_8
REMARK    4  A    between atoms: C_8  and  N_9
REMARK    5  A    between atoms: C_21  and  N_22
REMARK    6  A    between atoms: N_22  and  C_23
REMARK    7  A    between atoms: C_23  and  C_24
REMARK                            x       y       z     vdW  Elec       q    Type
REMARK                         _______ _______ _______ _____ _____    ______ ____
ROOT
ATOM      1  O   UNL     1       3.962   5.929  19.575  0.00  0.00    +0.000 OA
ATOM      2  C   UNL     1       3.891   6.262  18.392  0.00  0.00    +0.000 C 
ATOM      3  N   UNL     1       3.077   7.256  17.883  0.00  0.00    +0.000 N 
ATOM      4  H   UNL     1       3.084   7.357  16.870  0.00  0.00    +0.000 HD
ENDROOT
BRANCH   3   5
ATOM      5  C   UNL     1       2.218   8.095  18.636  0.00  0.00    +0.000 A 
ATOM      6  C   UNL     1       1.921   7.876  19.984  0.00  0.00    +0.000 A 
ATOM      7  C   UNL     1       1.026   8.697  20.675  0.00  0.00    +0.000 A 
ATOM      8  C   UNL     1       0.414   9.778  20.037  0.00  0.00    +0.000 A 
ATOM      9  C   UNL     1       0.747  10.036  18.700  0.00  0.00    +0.000 A 
ATOM     10  C   UNL     1       1.634   9.197  18.004  0.00  0.00    +0.000 A 
BRANCH   8  11
ATOM     11  C   UNL     1      -0.598  10.615  20.776  0.00  0.00    +0.000 C 
BRANCH  11  12
ATOM     12  N   UNL     1      -0.232  12.016  20.859  0.00  0.00    +0.000 N 
ATOM     13  C   UNL     1      -0.819  13.075  20.235  0.00  0.00    +0.000 A 
ATOM     14  N   UNL     1      -0.097  14.156  20.425  0.00  0.00    +0.000 NA
ATOM     15  C   UNL     1       0.947  13.698  21.176  0.00  0.00    +0.000 A 
ATOM     16  N   UNL     1       0.917  12.393  21.460  0.00  0.00    +0.000 NA
ENDBRANCH  11  12
ENDBRANCH   8  11
ENDBRANCH   3   5
BRANCH   2  17
ATOM     17  C   UNL     1       4.779   5.533  17.439  0.00  0.00    +0.000 A 
ATOM     18  C   UNL     1       4.857   6.114  16.154  0.00  0.00    +0.000 A 
ATOM     19  C   UNL     1       5.699   5.602  15.174  0.00  0.00    +0.000 A 
ATOM     20  C   UNL     1       6.511   4.525  15.483  0.00  0.00    +0.000 A 
ATOM     21  C   UNL     1       6.436   3.932  16.746  0.00  0.00    +0.000 A 
ATOM     22  C   UNL     1       5.524   4.371  17.732  0.00  0.00    +0.000 A 
BRANCH  22  23
ATOM     23  N   UNL     1       5.429   3.720  18.992  0.00  0.00    +0.000 N 
ATOM     24  H   UNL     1       6.376   3.530  19.334  0.00  0.00    +0.000 HD
BRANCH  23  25
ATOM     25  C   UNL     1       4.648   2.474  18.992  0.00  0.00    +0.000 C 
BRANCH  25  26
ATOM     26  C   UNL     1       3.234   2.681  19.471  0.00  0.00    +0.000 A 
ATOM     27  C   UNL     1       2.959   2.809  20.841  0.00  0.00    +0.000 A 
ATOM     28  C   UNL     1       1.691   3.189  21.277  0.00  0.00    +0.000 A 
ATOM     29  C   UNL     1       0.684   3.453  20.349  0.00  0.00    +0.000 A 
ATOM     30  C   UNL     1       0.939   3.317  18.986  0.00  0.00    +0.000 A 
ATOM     31  C   UNL     1       2.207   2.932  18.548  0.00  0.00    +0.000 A 
ENDBRANCH  25  26
ENDBRANCH  23  25
ENDBRANCH  22  23
ENDBRANCH   2  17
TORSDOF 7
ENDMDL
MODEL 9
REMARK VINA RESULT:      -8.2      1.265      1.631
REMARK  Name = 
REMARK  7 active torsions:
REMARK  status: ('A' for Active; 'I' for Inactive)
REMARK    1  A    between atoms: C_2  and  C_16
REMARK    2  A    between atoms: N_3  and  C_4
REMARK    3  A    between atoms: C_7  and  C_8
REMARK    4  A    between atoms: C_8  and  N_9
REMARK    5  A    between atoms: C_21  and  N_22
REMARK    6  A    between atoms: N_22  and  C_23
REMARK    7  A    between atoms: C_23  and  C_24
REMARK                            x       y       z     vdW  Elec       q    Type
REMARK                         _______ _______ _______ _____ _____    ______ ____
ROOT
ATOM      1  O   UNL     1       2.484   5.402  17.530  0.00  0.00    +0.000 OA
ATOM      2  C   UNL     1       3.496   6.102  17.561  0.00  0.00    +0.000 C 
ATOM      3  N   UNL     1       3.558   7.409  18.005  0.00  0.00    +0.000 N 
ATOM      4  H   UNL     1       4.459   7.870  17.896  0.00  0.00    +0.000 HD
ENDROOT
BRANCH   3   5
ATOM      5  C   UNL     1       2.482   8.156  18.545  0.00  0.00    +0.000 A 
ATOM      6  C   UNL     1       1.802   9.148  17.832  0.00  0.00    +0.000 A 
ATOM      7  C   UNL     1       0.782   9.899  18.421  0.00  0.00    +0.000 A 
ATOM      8  C   UNL     1       0.397   9.664  19.743  0.00  0.00    +0.000 A 
ATOM      9  C   UNL     1       1.038   8.636  20.449  0.00  0.00    +0.000 A 
ATOM     10  C   UNL     1       2.077   7.896  19.858  0.00  0.00    +0.000 A 
BRANCH   8  11
ATOM     11  C   UNL     1      -0.659  10.525  20.385  0.00  0.00    +0.000 C 
BRANCH  11  12
ATOM     12  N   UNL     1      -0.232  11.896  20.593  0.00  0.00    +0.000 N 
ATOM     13  C   UNL     1      -0.741  13.028  20.032  0.00  0.00    +0.000 A 
ATOM     14  N   UNL     1       0.022  14.054  20.335  0.00  0.00    +0.000 NA
ATOM     15  C   UNL     1       1.009  13.487  21.087  0.00  0.00    +0.000 A 
ATOM     16  N   UNL     1       0.907  12.168  21.266  0.00  0.00    +0.000 NA
ENDBRANCH  11  12
ENDBRANCH   8  11
ENDBRANCH   3   5
BRANCH   2  17
ATOM     17  C   UNL     1       4.762   5.466  17.090  0.00  0.00    +0.000 A 
ATOM     18  C   UNL     1       5.031   5.650  15.716  0.00  0.00    +0.000 A 
ATOM     19  C   UNL     1       6.206   5.188  15.136  0.00  0.00    +0.000 A 
ATOM     20  C   UNL     1       7.152   4.571  15.936  0.00  0.00    +0.000 A 
ATOM     21  C   UNL     1       6.895   4.372  17.295  0.00  0.00    +0.000 A 
ATOM     22  C   UNL     1       5.671   4.748  17.895  0.00  0.00    +0.000 A 
BRANCH  22  23
ATOM     23  N   UNL     1       5.411   4.488  19.267  0.00  0.00    +0.000 N 
ATOM     24  H   UNL     1       6.284   4.600  19.792  0.00  0.00    +0.000 HD
BRANCH  23  25
ATOM     25  C   UNL     1       4.835   3.165  19.553  0.00  0.00    +0.000 C 
BRANCH  25  26
ATOM     26  C   UNL     1       3.328   3.195  19.611  0.00  0.00    +0.000 A 
ATOM     27  C   UNL     1       2.570   2.272  18.874  0.00  0.00    +0.000 A 
ATOM     28  C   UNL     1       1.194   2.170  19.069  0.00  0.00    +0.000 A 
ATOM     29  C   UNL     1       0.559   2.983  20.007  0.00  0.00    +0.000 A 
ATOM     30  C   UNL     1       1.298   3.913  20.736  0.00  0.00    +0.000 A 
ATOM     31  C   UNL     1       2.675   4.020  20.539  0.00  0.00    +0.000 A 
ENDBRANCH  25  26
ENDBRANCH  23  25
ENDBRANCH  22  23
ENDBRANCH   2  17
TORSDOF 7
ENDMDL
