MODEL 1
REMARK VINA RESULT:      -9.3      0.000      0.000
REMARK  Name = 
REMARK  3 active torsions:
REMARK  status: ('A' for Active; 'I' for Inactive)
REMARK    1  A    between atoms: C_1  and  C_2
REMARK    2  A    between atoms: C_8  and  C_9
REMARK    3  A    between atoms: C_16  and  C_18
REMARK                            x       y       z     vdW  Elec       q    Type
REMARK                         _______ _______ _______ _____ _____    ______ ____
ROOT
ATOM      1  C   UNL     1       4.264   4.643  19.124  0.00  0.00    +0.000 C 
ATOM      2  C   UNL     1       4.020   3.204  19.710  0.00  0.00    +0.000 C 
ATOM      3  O   UNL     1       4.918   2.380  19.891  0.00  0.00    +0.000 OA
ATOM      4  N   UNL     1       2.742   2.850  20.067  0.00  0.00    +0.000 N 
ATOM      5  C   UNL     1       1.598   3.659  19.750  0.00  0.00    +0.000 C 
ATOM      6  C   UNL     1       1.930   5.137  19.852  0.00  0.00    +0.000 C 
ATOM      7  N   UNL     1       3.071   5.540  19.021  0.00  0.00    +0.000 N 
ATOM      8  C   UNL     1       3.267   6.862  18.576  0.00  0.00    +0.000 C 
ATOM      9  O   UNL     1       4.255   7.213  17.940  0.00  0.00    +0.000 OA
ATOM     10  H   UNL     1       2.631   1.885  20.347  0.00  0.00    +0.000 HD
ENDROOT
BRANCH   8  11
ATOM     11  C   UNL     1       2.218   7.911  18.877  0.00  0.00    +0.000 A 
ATOM     12  C   UNL     1       1.547   8.687  17.830  0.00  0.00    +0.000 A 
ATOM     13  C   UNL     1       0.749   9.712  18.165  0.00  0.00    +0.000 A 
ATOM     14  N   UNL     1       0.440   9.906  19.504  0.00  0.00    +0.000 N 
ATOM     15  C   UNL     1      -0.360  10.855  20.082  0.00  0.00    +0.000 A 
ATOM     16  C   UNL     1      -0.466  10.483  21.401  0.00  0.00    +0.000 A 
ATOM     17  N   UNL     1       0.315   9.383  21.668  0.00  0.00    +0.000 NA
ATOM     18  C   UNL     1       0.881   9.066  20.522  0.00  0.00    +0.000 A 
ATOM     19  C   UNL     1       1.830   8.056  20.169  0.00  0.00    +0.000 A 
ENDBRANCH   8  11
BRANCH   1  27
ATOM     20  C   UNL     1       7.235   5.460  18.952  0.00  0.00    +0.000 C 
ATOM     21  C   UNL     1       6.483   4.892  17.782  0.00  0.00    +0.000 A 
ATOM     22  C   UNL     1       7.163   4.762  16.558  0.00  0.00    +0.000 A 
ATOM     23  C   UNL     1       6.513   4.266  15.433  0.00  0.00    +0.000 A 
ATOM     24  F   UNL     1       7.192   4.133  14.285  0.00  0.00    +0.000 F 
ATOM     25  C   UNL     1       5.179   3.910  15.483  0.00  0.00    +0.000 A 
ATOM     26  C   UNL     1       4.482   4.050  16.682  0.00  0.00    +0.000 A 
ATOM     27  C   UNL     1       5.119   4.527  17.852  0.00  0.00    +0.000 A 
ENDBRANCH   1  27
TORSDOF 2
ENDMDL
MODEL 2
REMARK VINA RESULT:      -8.9      1.008      1.035
REMARK  Name = 
REMARK  3 active torsions:
REMARK  status: ('A' for Active; 'I' for Inactive)
REMARK    1  A    between atoms: C_1  and  C_2
REMARK    2  A    between atoms: C_8  and  C_9
REMARK    3  A    between atoms: C_16  and  C_18
REMARK                            x       y       z     vdW  Elec       q    Type
REMARK                         _______ _______ _______ _____ _____    ______ ____
ROOT
ATOM      1  C   UNL     1       4.102   4.259  18.031  0.00  0.00    +0.000 C 
ATOM      2  C   UNL     1       3.642   2.756  18.099  0.00  0.00    +0.000 C 
ATOM      3  O   UNL     1       4.424   1.803  18.097  0.00  0.00    +0.000 OA
ATOM      4  N   UNL     1       2.299   2.485  18.196  0.00  0.00    +0.000 N 
ATOM      5  C   UNL     1       1.293   3.498  18.042  0.00  0.00    +0.000 C 
ATOM      6  C   UNL     1       1.749   4.816  18.643  0.00  0.00    +0.000 C 
ATOM      7  N   UNL     1       3.025   5.296  18.102  0.00  0.00    +0.000 N 
ATOM      8  C   UNL     1       3.407   6.652  18.126  0.00  0.00    +0.000 C 
ATOM      9  O   UNL     1       4.502   7.044  17.737  0.00  0.00    +0.000 OA
ATOM     10  H   UNL     1       2.059   1.504  18.140  0.00  0.00    +0.000 HD
ENDROOT
BRANCH   8  11
ATOM     11  C   UNL     1       2.433   7.689  18.639  0.00  0.00    +0.000 A 
ATOM     12  C   UNL     1       1.785   8.673  17.766  0.00  0.00    +0.000 A 
ATOM     13  C   UNL     1       1.060   9.667  18.302  0.00  0.00    +0.000 A 
ATOM     14  N   UNL     1       0.798   9.642  19.664  0.00  0.00    +0.000 N 
ATOM     15  C   UNL     1       0.073  10.520  20.425  0.00  0.00    +0.000 A 
ATOM     16  C   UNL     1      -0.023   9.930  21.663  0.00  0.00    +0.000 A 
ATOM     17  N   UNL     1       0.695   8.758  21.709  0.00  0.00    +0.000 NA
ATOM     18  C   UNL     1       1.211   8.614  20.506  0.00  0.00    +0.000 A 
ATOM     19  C   UNL     1       2.088   7.629  19.951  0.00  0.00    +0.000 A 
ENDBRANCH   8  11
BRANCH   1  27
ATOM     20  C   UNL     1       7.097   4.888  18.424  0.00  0.00    +0.000 C 
ATOM     21  C   UNL     1       6.481   4.700  17.068  0.00  0.00    +0.000 A 
ATOM     22  C   UNL     1       7.307   4.850  15.939  0.00  0.00    +0.000 A 
ATOM     23  C   UNL     1       6.789   4.712  14.656  0.00  0.00    +0.000 A 
ATOM     24  F   UNL     1       7.604   4.839  13.599  0.00  0.00    +0.000 F 
ATOM     25  C   UNL     1       5.448   4.447  14.456  0.00  0.00    +0.000 A 
ATOM     26  C   UNL     1       4.609   4.314  15.561  0.00  0.00    +0.000 A 
ATOM     27  C   UNL     1       5.107   4.423  16.881  0.00  0.00    +0.000 A 
ENDBRANCH   1  27
TORSDOF 2
ENDMDL
MODEL 3
REMARK VINA RESULT:      -8.9      0.567      1.402
REMARK  Name = 
REMARK  3 active torsions:
REMARK  status: ('A' for Active; 'I' for Inactive)
REMARK    1  A    between atoms: C_1  and  C_2
REMARK    2  A    between atoms: C_8  and  C_9
REMARK    3  A    between atoms: C_16  and  C_18
REMARK                            x       y       z     vdW  Elec       q    Type
REMARK                         _______ _______ _______ _____ _____    ______ ____
ROOT
ATOM      1  C   UNL     1       4.222   4.535  19.267  0.00  0.00    +0.000 C 
ATOM      2  C   UNL     1       3.988   3.070  19.790  0.00  0.00    +0.000 C 
ATOM      3  O   UNL     1       4.889   2.238  19.913  0.00  0.00    +0.000 OA
ATOM      4  N   UNL     1       2.718   2.701  20.159  0.00  0.00    +0.000 N 
ATOM      5  C   UNL     1       1.569   3.525  19.906  0.00  0.00    +0.000 C 
ATOM      6  C   UNL     1       1.906   4.997  20.069  0.00  0.00    +0.000 C 
ATOM      7  N   UNL     1       3.028   5.437  19.233  0.00  0.00    +0.000 N 
ATOM      8  C   UNL     1       3.217   6.778  18.846  0.00  0.00    +0.000 C 
ATOM      9  O   UNL     1       4.191   7.158  18.205  0.00  0.00    +0.000 OA
ATOM     10  H   UNL     1       2.612   1.724  20.396  0.00  0.00    +0.000 HD
ENDROOT
BRANCH   8  11
ATOM     11  C   UNL     1       2.177   7.812  19.219  0.00  0.00    +0.000 A 
ATOM     12  C   UNL     1       1.764   8.061  20.603  0.00  0.00    +0.000 A 
ATOM     13  C   UNL     1       0.725   8.872  20.855  0.00  0.00    +0.000 A 
ATOM     14  N   UNL     1       0.172   9.593  19.806  0.00  0.00    +0.000 N 
ATOM     15  C   UNL     1      -0.864  10.488  19.819  0.00  0.00    +0.000 A 
ATOM     16  C   UNL     1      -0.878  11.041  18.560  0.00  0.00    +0.000 A 
ATOM     17  N   UNL     1       0.062  10.448  17.750  0.00  0.00    +0.000 NA
ATOM     18  C   UNL     1       0.665   9.555  18.506  0.00  0.00    +0.000 A 
ATOM     19  C   UNL     1       1.687   8.595  18.224  0.00  0.00    +0.000 A 
ENDBRANCH   8  11
BRANCH   1  27
ATOM     20  C   UNL     1       7.173   5.412  19.053  0.00  0.00    +0.000 C 
ATOM     21  C   UNL     1       6.403   4.870  17.883  0.00  0.00    +0.000 A 
ATOM     22  C   UNL     1       7.056   4.795  16.639  0.00  0.00    +0.000 A 
ATOM     23  C   UNL     1       6.388   4.325  15.514  0.00  0.00    +0.000 A 
ATOM     24  F   UNL     1       7.041   4.243  14.346  0.00  0.00    +0.000 F 
ATOM     25  C   UNL     1       5.062   3.943  15.583  0.00  0.00    +0.000 A 
ATOM     26  C   UNL     1       4.392   4.029  16.801  0.00  0.00    +0.000 A 
ATOM     27  C   UNL     1       5.048   4.478  17.972  0.00  0.00    +0.000 A 
ENDBRANCH   1  27
TORSDOF 2
ENDMDL
MODEL 4
REMARK VINA RESULT:      -8.8      0.779      1.993
REMARK  Name = 
REMARK  3 active torsions:
REMARK  status: ('A' for Active; 'I' for Inactive)
REMARK    1  A    between atoms: C_1  and  C_2
REMARK    2  A    between atoms: C_8  and  C_9
REMARK    3  A    between atoms: C_16  and  C_18
REMARK                            x       y       z     vdW  Elec       q    Type
REMARK                         _______ _______ _______ _____ _____    ______ ____
ROOT
ATOM      1  C   UNL     1       4.102   4.432  19.546  0.00  0.00    +0.000 C 
ATOM      2  C   UNL     1       3.900   2.991  20.145  0.00  0.00    +0.000 C 
ATOM      3  O   UNL     1       4.799   2.151  20.218  0.00  0.00    +0.000 OA
ATOM      4  N   UNL     1       2.664   2.654  20.640  0.00  0.00    +0.000 N 
ATOM      5  C   UNL     1       1.506   3.485  20.459  0.00  0.00    +0.000 C 
ATOM      6  C   UNL     1       1.873   4.957  20.535  0.00  0.00    +0.000 C 
ATOM      7  N   UNL     1       2.921   5.349  19.585  0.00  0.00    +0.000 N 
ATOM      8  C   UNL     1       3.089   6.672  19.132  0.00  0.00    +0.000 C 
ATOM      9  O   UNL     1       4.006   7.013  18.392  0.00  0.00    +0.000 OA
ATOM     10  H   UNL     1       2.568   1.688  20.922  0.00  0.00    +0.000 HD
ENDROOT
BRANCH   8  11
ATOM     11  C   UNL     1       2.099   7.734  19.556  0.00  0.00    +0.000 A 
ATOM     12  C   UNL     1       1.597   7.851  20.929  0.00  0.00    +0.000 A 
ATOM     13  C   UNL     1       0.601   8.707  21.205  0.00  0.00    +0.000 A 
ATOM     14  N   UNL     1       0.184   9.587  20.218  0.00  0.00    +0.000 N 
ATOM     15  C   UNL     1      -0.784  10.554  20.268  0.00  0.00    +0.000 A 
ATOM     16  C   UNL     1      -0.660  11.250  19.089  0.00  0.00    +0.000 A 
ATOM     17  N   UNL     1       0.296  10.684  18.279  0.00  0.00    +0.000 NA
ATOM     18  C   UNL     1       0.773   9.663  18.959  0.00  0.00    +0.000 A 
ATOM     19  C   UNL     1       1.745   8.665  18.633  0.00  0.00    +0.000 A 
ENDBRANCH   8  11
BRANCH   1  27
ATOM     20  C   UNL     1       2.728   3.461  16.960  0.00  0.00    +0.000 C 
ATOM     21  C   UNL     1       4.170   3.879  17.002  0.00  0.00    +0.000 A 
ATOM     22  C   UNL     1       4.921   3.789  15.816  0.00  0.00    +0.000 A 
ATOM     23  C   UNL     1       6.266   4.138  15.798  0.00  0.00    +0.000 A 
ATOM     24  F   UNL     1       6.952   4.063  14.648  0.00  0.00    +0.000 F 
ATOM     25  C   UNL     1       6.906   4.559  16.948  0.00  0.00    +0.000 A 
ATOM     26  C   UNL     1       6.185   4.636  18.138  0.00  0.00    +0.000 A 
ATOM     27  C   UNL     1       4.808   4.314  18.186  0.00  0.00    +0.000 A 
ENDBRANCH   1  27
TORSDOF 2
ENDMDL
MODEL 5
REMARK VINA RESULT:      -8.8      0.445      1.434
REMARK  Name = 
REMARK  3 active torsions:
REMARK  status: ('A' for Active; 'I' for Inactive)
REMARK    1  A    between atoms: C_1  and  C_2
REMARK    2  A    between atoms: C_8  and  C_9
REMARK    3  A    between atoms: C_16  and  C_18
REMARK                            x       y       z     vdW  Elec       q    Type
REMARK                         _______ _______ _______ _____ _____    ______ ____
ROOT
ATOM      1  C   UNL     1       4.150   4.627  19.330  0.00  0.00    +0.000 C 
ATOM      2  C   UNL     1       3.939   3.218  19.998  0.00  0.00    +0.000 C 
ATOM      3  O   UNL     1       4.840   2.391  20.144  0.00  0.00    +0.000 OA
ATOM      4  N   UNL     1       2.690   2.899  20.474  0.00  0.00    +0.000 N 
ATOM      5  C   UNL     1       1.533   3.709  20.213  0.00  0.00    +0.000 C 
ATOM      6  C   UNL     1       1.888   5.185  20.222  0.00  0.00    +0.000 C 
ATOM      7  N   UNL     1       2.961   5.535  19.284  0.00  0.00    +0.000 N 
ATOM      8  C   UNL     1       3.135   6.833  18.766  0.00  0.00    +0.000 C 
ATOM      9  O   UNL     1       4.071   7.142  18.037  0.00  0.00    +0.000 OA
ATOM     10  H   UNL     1       2.593   1.948  20.804  0.00  0.00    +0.000 HD
ENDROOT
BRANCH   8  11
ATOM     11  C   UNL     1       2.125   7.909  19.103  0.00  0.00    +0.000 A 
ATOM     12  C   UNL     1       1.483   8.744  18.083  0.00  0.00    +0.000 A 
ATOM     13  C   UNL     1       0.723   9.785  18.454  0.00  0.00    +0.000 A 
ATOM     14  N   UNL     1       0.421   9.946  19.798  0.00  0.00    +0.000 N 
ATOM     15  C   UNL     1      -0.343  10.904  20.409  0.00  0.00    +0.000 A 
ATOM     16  C   UNL     1      -0.464  10.491  21.714  0.00  0.00    +0.000 A 
ATOM     17  N   UNL     1       0.277   9.356  21.944  0.00  0.00    +0.000 NA
ATOM     18  C   UNL     1       0.831   9.057  20.787  0.00  0.00    +0.000 A 
ATOM     19  C   UNL     1       1.743   8.025  20.400  0.00  0.00    +0.000 A 
ENDBRANCH   8  11
BRANCH   1  27
ATOM     20  C   UNL     1       2.860   3.511  16.758  0.00  0.00    +0.000 C 
ATOM     21  C   UNL     1       4.298   3.941  16.822  0.00  0.00    +0.000 A 
ATOM     22  C   UNL     1       5.085   3.794  15.665  0.00  0.00    +0.000 A 
ATOM     23  C   UNL     1       6.429   4.151  15.670  0.00  0.00    +0.000 A 
ATOM     24  F   UNL     1       7.149   4.020  14.547  0.00  0.00    +0.000 F 
ATOM     25  C   UNL     1       7.031   4.637  16.814  0.00  0.00    +0.000 A 
ATOM     26  C   UNL     1       6.273   4.771  17.977  0.00  0.00    +0.000 A 
ATOM     27  C   UNL     1       4.897   4.442  18.000  0.00  0.00    +0.000 A 
ENDBRANCH   1  27
TORSDOF 2
ENDMDL
MODEL 6
REMARK VINA RESULT:      -8.6      1.152      1.704
REMARK  Name = 
REMARK  3 active torsions:
REMARK  status: ('A' for Active; 'I' for Inactive)
REMARK    1  A    between atoms: C_1  and  C_2
REMARK    2  A    between atoms: C_8  and  C_9
REMARK    3  A    between atoms: C_16  and  C_18
REMARK                            x       y       z     vdW  Elec       q    Type
REMARK                         _______ _______ _______ _____ _____    ______ ____
ROOT
ATOM      1  C   UNL     1       4.094   4.063  18.001  0.00  0.00    +0.000 C 
ATOM      2  C   UNL     1       3.608   2.568  17.967  0.00  0.00    +0.000 C 
ATOM      3  O   UNL     1       4.370   1.605  17.864  0.00  0.00    +0.000 OA
ATOM      4  N   UNL     1       2.263   2.313  18.086  0.00  0.00    +0.000 N 
ATOM      5  C   UNL     1       1.273   3.352  18.044  0.00  0.00    +0.000 C 
ATOM      6  C   UNL     1       1.773   4.610  18.731  0.00  0.00    +0.000 C 
ATOM      7  N   UNL     1       3.041   5.109  18.188  0.00  0.00    +0.000 N 
ATOM      8  C   UNL     1       3.449   6.453  18.304  0.00  0.00    +0.000 C 
ATOM      9  O   UNL     1       4.539   6.856  17.911  0.00  0.00    +0.000 OA
ATOM     10  H   UNL     1       2.002   1.344  17.962  0.00  0.00    +0.000 HD
ENDROOT
BRANCH   8  11
ATOM     11  C   UNL     1       2.512   7.463  18.928  0.00  0.00    +0.000 A 
ATOM     12  C   UNL     1       2.114   7.413  20.338  0.00  0.00    +0.000 A 
ATOM     13  C   UNL     1       1.157   8.236  20.792  0.00  0.00    +0.000 A 
ATOM     14  N   UNL     1       0.685   9.237  19.954  0.00  0.00    +0.000 N 
ATOM     15  C   UNL     1      -0.259  10.199  20.196  0.00  0.00    +0.000 A 
ATOM     16  C   UNL     1      -0.209  11.035  19.106  0.00  0.00    +0.000 A 
ATOM     17  N   UNL     1       0.675  10.565  18.163  0.00  0.00    +0.000 NA
ATOM     18  C   UNL     1       1.182   9.463  18.675  0.00  0.00    +0.000 A 
ATOM     19  C   UNL     1       2.109   8.504  18.156  0.00  0.00    +0.000 A 
ENDBRANCH   8  11
BRANCH   1  27
ATOM     20  C   UNL     1       7.094   4.700  18.346  0.00  0.00    +0.000 C 
ATOM     21  C   UNL     1       6.442   4.579  16.998  0.00  0.00    +0.000 A 
ATOM     22  C   UNL     1       7.235   4.800  15.858  0.00  0.00    +0.000 A 
ATOM     23  C   UNL     1       6.683   4.727  14.583  0.00  0.00    +0.000 A 
ATOM     24  F   UNL     1       7.467   4.919  13.513  0.00  0.00    +0.000 F 
ATOM     25  C   UNL     1       5.339   4.460  14.406  0.00  0.00    +0.000 A 
ATOM     26  C   UNL     1       4.532   4.258  15.525  0.00  0.00    +0.000 A 
ATOM     27  C   UNL     1       5.066   4.299  16.834  0.00  0.00    +0.000 A 
ENDBRANCH   1  27
TORSDOF 2
ENDMDL
MODEL 7
REMARK VINA RESULT:      -7.3      3.668      7.991
REMARK  Name = 
REMARK  3 active torsions:
REMARK  status: ('A' for Active; 'I' for Inactive)
REMARK    1  A    between atoms: C_1  and  C_2
REMARK    2  A    between atoms: C_8  and  C_9
REMARK    3  A    between atoms: C_16  and  C_18
REMARK                            x       y       z     vdW  Elec       q    Type
REMARK                         _______ _______ _______ _____ _____    ______ ____
ROOT
ATOM      1  C   UNL     1       0.201  10.169  20.059  0.00  0.00    +0.000 C 
ATOM      2  C   UNL     1      -0.323  10.239  21.541  0.00  0.00    +0.000 C 
ATOM      3  O   UNL     1      -1.252  10.964  21.902  0.00  0.00    +0.000 OA
ATOM      4  N   UNL     1       0.264   9.430  22.483  0.00  0.00    +0.000 N 
ATOM      5  C   UNL     1       1.455   8.672  22.217  0.00  0.00    +0.000 C 
ATOM      6  C   UNL     1       1.459   8.144  20.793  0.00  0.00    +0.000 C 
ATOM      7  N   UNL     1       1.299   9.193  19.779  0.00  0.00    +0.000 N 
ATOM      8  C   UNL     1       1.737   9.046  18.448  0.00  0.00    +0.000 C 
ATOM      9  O   UNL     1       1.543   9.894  17.584  0.00  0.00    +0.000 OA
ATOM     10  H   UNL     1      -0.048   9.588  23.432  0.00  0.00    +0.000 HD
ENDROOT
BRANCH   8  11
ATOM     11  C   UNL     1       2.493   7.797  18.048  0.00  0.00    +0.000 A 
ATOM     12  C   UNL     1       1.953   6.447  18.236  0.00  0.00    +0.000 A 
ATOM     13  C   UNL     1       2.734   5.379  18.013  0.00  0.00    +0.000 A 
ATOM     14  N   UNL     1       3.984   5.573  17.444  0.00  0.00    +0.000 N 
ATOM     15  C   UNL     1       4.938   4.651  17.105  0.00  0.00    +0.000 A 
ATOM     16  C   UNL     1       5.894   5.357  16.415  0.00  0.00    +0.000 A 
ATOM     17  N   UNL     1       5.599   6.700  16.397  0.00  0.00    +0.000 NA
ATOM     18  C   UNL     1       4.461   6.819  17.048  0.00  0.00    +0.000 A 
ATOM     19  C   UNL     1       3.677   7.961  17.406  0.00  0.00    +0.000 A 
ENDBRANCH   8  11
BRANCH   1  27
ATOM     20  C   UNL     1      -1.654  11.612  18.060  0.00  0.00    +0.000 C 
ATOM     21  C   UNL     1      -0.426  12.257  18.635  0.00  0.00    +0.000 A 
ATOM     22  C   UNL     1      -0.104  13.560  18.213  0.00  0.00    +0.000 A 
ATOM     23  C   UNL     1       1.034  14.201  18.692  0.00  0.00    +0.000 A 
ATOM     24  F   UNL     1       1.305  15.450  18.289  0.00  0.00    +0.000 F 
ATOM     25  C   UNL     1       1.887  13.567  19.575  0.00  0.00    +0.000 A 
ATOM     26  C   UNL     1       1.596  12.269  19.989  0.00  0.00    +0.000 A 
ATOM     27  C   UNL     1       0.433  11.597  19.543  0.00  0.00    +0.000 A 
ENDBRANCH   1  27
TORSDOF 2
ENDMDL
MODEL 8
REMARK VINA RESULT:      -7.2      3.195      7.261
REMARK  Name = 
REMARK  3 active torsions:
REMARK  status: ('A' for Active; 'I' for Inactive)
REMARK    1  A    between atoms: C_1  and  C_2
REMARK    2  A    between atoms: C_8  and  C_9
REMARK    3  A    between atoms: C_16  and  C_18
REMARK                            x       y       z     vdW  Elec       q    Type
REMARK                         _______ _______ _______ _____ _____    ______ ____
ROOT
ATOM      1  C   UNL     1       3.294   6.087  19.357  0.00  0.00    +0.000 C 
ATOM      2  C   UNL     1       2.429   7.381  19.590  0.00  0.00    +0.000 C 
ATOM      3  O   UNL     1       1.959   7.699  20.684  0.00  0.00    +0.000 OA
ATOM      4  N   UNL     1       2.207   8.221  18.526  0.00  0.00    +0.000 N 
ATOM      5  C   UNL     1       2.561   7.872  17.178  0.00  0.00    +0.000 C 
ATOM      6  C   UNL     1       3.859   7.085  17.142  0.00  0.00    +0.000 C 
ATOM      7  N   UNL     1       3.836   5.879  17.978  0.00  0.00    +0.000 N 
ATOM      8  C   UNL     1       4.681   4.774  17.754  0.00  0.00    +0.000 C 
ATOM      9  O   UNL     1       4.710   3.796  18.493  0.00  0.00    +0.000 OA
ATOM     10  H   UNL     1       1.568   8.982  18.712  0.00  0.00    +0.000 HD
ENDROOT
BRANCH   8  11
ATOM     11  C   UNL     1       5.592   4.768  16.546  0.00  0.00    +0.000 A 
ATOM     12  C   UNL     1       6.954   5.310  16.576  0.00  0.00    +0.000 A 
ATOM     13  C   UNL     1       7.652   5.425  15.436  0.00  0.00    +0.000 A 
ATOM     14  N   UNL     1       7.133   4.867  14.277  0.00  0.00    +0.000 N 
ATOM     15  C   UNL     1       7.664   4.835  13.015  0.00  0.00    +0.000 A 
ATOM     16  C   UNL     1       6.835   4.007  12.296  0.00  0.00    +0.000 A 
ATOM     17  N   UNL     1       5.763   3.600  13.056  0.00  0.00    +0.000 NA
ATOM     18  C   UNL     1       5.939   4.153  14.237  0.00  0.00    +0.000 A 
ATOM     19  C   UNL     1       5.144   4.146  15.426  0.00  0.00    +0.000 A 
ENDBRANCH   8  11
BRANCH   1  27
ATOM     20  C   UNL     1       1.181   4.395  17.875  0.00  0.00    +0.000 C 
ATOM     21  C   UNL     1       1.607   4.104  19.286  0.00  0.00    +0.000 A 
ATOM     22  C   UNL     1       0.987   3.034  19.958  0.00  0.00    +0.000 A 
ATOM     23  C   UNL     1       1.321   2.732  21.273  0.00  0.00    +0.000 A 
ATOM     24  F   UNL     1       0.730   1.693  21.881  0.00  0.00    +0.000 F 
ATOM     25  C   UNL     1       2.252   3.487  21.961  0.00  0.00    +0.000 A 
ATOM     26  C   UNL     1       2.863   4.563  21.319  0.00  0.00    +0.000 A 
ATOM     27  C   UNL     1       2.566   4.883  19.974  0.00  0.00    +0.000 A 
ENDBRANCH   1  27
TORSDOF 2
ENDMDL
MODEL 9
REMARK VINA RESULT:      -7.2      3.639      7.863
REMARK  Name = 
REMARK  3 active torsions:
REMARK  status: ('A' for Active; 'I' for Inactive)
REMARK    1  A    between atoms: C_1  and  C_2
REMARK    2  A    between atoms: C_8  and  C_9
REMARK    3  A    between atoms: C_16  and  C_18
REMARK                            x       y       z     vdW  Elec       q    Type
REMARK                         _______ _______ _______ _____ _____    ______ ____
ROOT
ATOM      1  C   UNL     1       0.220  10.179  20.077  0.00  0.00    +0.000 C 
ATOM      2  C   UNL     1      -0.322  10.297  21.549  0.00  0.00    +0.000 C 
ATOM      3  O   UNL     1      -1.237  11.053  21.880  0.00  0.00    +0.000 OA
ATOM      4  N   UNL     1       0.233   9.496  22.518  0.00  0.00    +0.000 N 
ATOM      5  C   UNL     1       1.408   8.703  22.286  0.00  0.00    +0.000 C 
ATOM      6  C   UNL     1       1.417   8.141  20.875  0.00  0.00    +0.000 C 
ATOM      7  N   UNL     1       1.297   9.169  19.835  0.00  0.00    +0.000 N 
ATOM      8  C   UNL     1       1.748   8.980  18.514  0.00  0.00    +0.000 C 
ATOM      9  O   UNL     1       1.587   9.812  17.627  0.00  0.00    +0.000 OA
ATOM     10  H   UNL     1      -0.088   9.684  23.458  0.00  0.00    +0.000 HD
ENDROOT
BRANCH   8  11
ATOM     11  C   UNL     1       2.478   7.704  18.153  0.00  0.00    +0.000 A 
ATOM     12  C   UNL     1       3.889   7.680  17.756  0.00  0.00    +0.000 A 
ATOM     13  C   UNL     1       4.433   6.545  17.292  0.00  0.00    +0.000 A 
ATOM     14  N   UNL     1       3.693   5.374  17.360  0.00  0.00    +0.000 N 
ATOM     15  C   UNL     1       4.037   4.105  16.977  0.00  0.00    +0.000 A 
ATOM     16  C   UNL     1       3.018   3.302  17.432  0.00  0.00    +0.000 A 
ATOM     17  N   UNL     1       2.018   4.051  18.006  0.00  0.00    +0.000 NA
ATOM     18  C   UNL     1       2.424   5.301  17.926  0.00  0.00    +0.000 A 
ATOM     19  C   UNL     1       1.804   6.535  18.300  0.00  0.00    +0.000 A 
ENDBRANCH   8  11
BRANCH   1  27
ATOM     20  C   UNL     1      -1.603  11.642  18.062  0.00  0.00    +0.000 C 
ATOM     21  C   UNL     1      -0.350  12.258  18.616  0.00  0.00    +0.000 A 
ATOM     22  C   UNL     1       0.011  13.541  18.166  0.00  0.00    +0.000 A 
ATOM     23  C   UNL     1       1.173  14.153  18.623  0.00  0.00    +0.000 A 
ATOM     24  F   UNL     1       1.481  15.385  18.194  0.00  0.00    +0.000 F 
ATOM     25  C   UNL     1       2.012  13.510  19.512  0.00  0.00    +0.000 A 
ATOM     26  C   UNL     1       1.681  12.230  19.955  0.00  0.00    +0.000 A 
ATOM     27  C   UNL     1       0.494  11.588  19.530  0.00  0.00    +0.000 A 
ENDBRANCH   1  27
TORSDOF 2
ENDMDL
