MODEL 1
REMARK VINA RESULT:      -8.4      0.000      0.000
REMARK  Name = 
REMARK  8 active torsions:
REMARK  status: ('A' for Active; 'I' for Inactive)
REMARK    1  A    between atoms: C_2  and  C_3
REMARK    2  A    between atoms: C_3  and  O_4
REMARK    3  A    between atoms: O_4  and  C_5
REMARK    4  A    between atoms: C_9  and  C_10
REMARK    5  A    between atoms: N_12  and  C_13
REMARK    6  A    between atoms: C_13  and  C_14
REMARK    7  A    between atoms: N_21  and  C_22
REMARK    8  A    between atoms: C_22  and  C_23
REMARK                            x       y       z     vdW  Elec       q    Type
REMARK                         _______ _______ _______ _____ _____    ______ ____
ROOT
ATOM      1  O   UNL     1       8.995  10.038  18.622  0.00  0.00    +0.000 OA
ENDROOT
BRANCH   1   2
ATOM      2  C   UNL     1       9.561  11.238  18.235  0.00  0.00    +0.000 A 
ATOM      3  C   UNL     1      10.830  11.392  17.659  0.00  0.00    +0.000 A 
ATOM      4  C   UNL     1      11.295  12.661  17.284  0.00  0.00    +0.000 A 
ATOM      5  C   UNL     1      10.504  13.794  17.486  0.00  0.00    +0.000 A 
ATOM      6  C   UNL     1       9.241  13.665  18.076  0.00  0.00    +0.000 A 
ATOM      7  C   UNL     1       8.775  12.385  18.445  0.00  0.00    +0.000 A 
BRANCH   6   8
ATOM      8  C   UNL     1       8.444  14.921  18.244  0.00  0.00    +0.000 C 
ATOM      9  O   UNL     1       8.708  15.904  17.560  0.00  0.00    +0.000 OA
ATOM     10  N   UNL     1       7.452  14.925  19.207  0.00  0.00    +0.000 N 
ATOM     11  H   UNL     1       7.376  14.159  19.856  0.00  0.00    +0.000 HD
BRANCH  10  12
ATOM     12  C   UNL     1       6.713  16.133  19.528  0.00  0.00    +0.000 C 
BRANCH  12  13
ATOM     13  C   UNL     1       5.290  16.081  19.012  0.00  0.00    +0.000 A 
ATOM     14  C   UNL     1       4.924  15.190  17.991  0.00  0.00    +0.000 A 
ATOM     15  C   UNL     1       3.594  15.100  17.571  0.00  0.00    +0.000 A 
ATOM     16  C   UNL     1       2.619  15.893  18.174  0.00  0.00    +0.000 A 
ATOM     17  C   UNL     1       2.964  16.780  19.188  0.00  0.00    +0.000 A 
ATOM     18  C   UNL     1       4.299  16.875  19.606  0.00  0.00    +0.000 A 
ENDBRANCH  12  13
ENDBRANCH  10  12
ENDBRANCH   6   8
ENDBRANCH   1   2
BRANCH   1  19
ATOM     19  C   UNL     1       8.041   9.444  17.734  0.00  0.00    +0.000 C 
BRANCH  19  21
ATOM     20  O   UNL     1       8.408   7.241  18.716  0.00  0.00    +0.000 OA
ATOM     21  C   UNL     1       7.817   7.905  17.871  0.00  0.00    +0.000 C 
ATOM     22  N   UNL     1       6.893   7.367  17.017  0.00  0.00    +0.000 N 
ATOM     23  H   UNL     1       6.574   8.008  16.297  0.00  0.00    +0.000 HD
BRANCH  22  24
ATOM     24  C   UNL     1       6.588   5.958  16.758  0.00  0.00    +0.000 C 
BRANCH  24  25
ATOM     25  C   UNL     1       5.719   5.020  17.635  0.00  0.00    +0.000 C 
ATOM     26  C   UNL     1       5.825   5.149  19.168  0.00  0.00    +0.000 C 
ATOM     27  O   UNL     1       4.622   5.489  19.863  0.00  0.00    +0.000 OA
ATOM     28  C   UNL     1       3.570   4.800  19.332  0.00  0.00    +0.000 A 
ATOM     29  C   UNL     1       2.651   4.196  20.182  0.00  0.00    +0.000 A 
ATOM     30  C   UNL     1       1.529   3.566  19.642  0.00  0.00    +0.000 A 
ATOM     31  C   UNL     1       1.287   3.629  18.267  0.00  0.00    +0.000 A 
ATOM     32  C   UNL     1       2.220   4.235  17.421  0.00  0.00    +0.000 A 
ATOM     33  C   UNL     1       3.400   4.748  17.955  0.00  0.00    +0.000 A 
ATOM     34  O   UNL     1       4.368   5.203  17.111  0.00  0.00    +0.000 OA
ENDBRANCH  24  25
ENDBRANCH  22  24
ENDBRANCH  19  21
ENDBRANCH   1  19
TORSDOF 8
ENDMDL
MODEL 2
REMARK VINA RESULT:      -8.4      3.715      8.812
REMARK  Name = 
REMARK  8 active torsions:
REMARK  status: ('A' for Active; 'I' for Inactive)
REMARK    1  A    between atoms: C_2  and  C_3
REMARK    2  A    between atoms: C_3  and  O_4
REMARK    3  A    between atoms: O_4  and  C_5
REMARK    4  A    between atoms: C_9  and  C_10
REMARK    5  A    between atoms: N_12  and  C_13
REMARK    6  A    between atoms: C_13  and  C_14
REMARK    7  A    between atoms: N_21  and  C_22
REMARK    8  A    between atoms: C_22  and  C_23
REMARK                            x       y       z     vdW  Elec       q    Type
REMARK                         _______ _______ _______ _____ _____    ______ ____
ROOT
ATOM      1  O   UNL     1       5.610   5.166  16.762  0.00  0.00    +0.000 OA
ENDROOT
BRANCH   1   2
ATOM      2  C   UNL     1       4.670   5.474  17.725  0.00  0.00    +0.000 A 
ATOM      3  C   UNL     1       4.422   4.731  18.888  0.00  0.00    +0.000 A 
ATOM      4  C   UNL     1       3.454   5.151  19.812  0.00  0.00    +0.000 A 
ATOM      5  C   UNL     1       2.715   6.314  19.584  0.00  0.00    +0.000 A 
ATOM      6  C   UNL     1       2.934   7.061  18.421  0.00  0.00    +0.000 A 
ATOM      7  C   UNL     1       3.914   6.637  17.499  0.00  0.00    +0.000 A 
BRANCH   6   8
ATOM      8  C   UNL     1       2.116   8.305  18.255  0.00  0.00    +0.000 C 
ATOM      9  O   UNL     1       2.112   8.890  17.177  0.00  0.00    +0.000 OA
ATOM     10  N   UNL     1       1.419   8.763  19.358  0.00  0.00    +0.000 N 
ATOM     11  H   UNL     1       1.577   8.350  20.262  0.00  0.00    +0.000 HD
BRANCH  10  12
ATOM     12  C   UNL     1       0.701  10.025  19.329  0.00  0.00    +0.000 C 
BRANCH  12  13
ATOM     13  C   UNL     1       0.007  10.313  20.643  0.00  0.00    +0.000 A 
ATOM     14  C   UNL     1       0.232   9.507  21.770  0.00  0.00    +0.000 A 
ATOM     15  C   UNL     1      -0.358   9.824  22.997  0.00  0.00    +0.000 A 
ATOM     16  C   UNL     1      -1.170  10.950  23.109  0.00  0.00    +0.000 A 
ATOM     17  C   UNL     1      -1.403  11.760  22.001  0.00  0.00    +0.000 A 
ATOM     18  C   UNL     1      -0.816  11.441  20.770  0.00  0.00    +0.000 A 
ENDBRANCH  12  13
ENDBRANCH  10  12
ENDBRANCH   6   8
ENDBRANCH   1   2
BRANCH   1  19
ATOM     19  C   UNL     1       6.486   6.216  16.337  0.00  0.00    +0.000 C 
BRANCH  19  21
ATOM     20  O   UNL     1       8.004   6.117  18.246  0.00  0.00    +0.000 OA
ATOM     21  C   UNL     1       7.433   6.823  17.421  0.00  0.00    +0.000 C 
ATOM     22  N   UNL     1       7.609   8.178  17.355  0.00  0.00    +0.000 N 
ATOM     23  H   UNL     1       6.985   8.644  16.703  0.00  0.00    +0.000 HD
BRANCH  22  24
ATOM     24  C   UNL     1       8.266   9.069  18.315  0.00  0.00    +0.000 C 
BRANCH  24  25
ATOM     25  C   UNL     1       9.061  10.360  17.988  0.00  0.00    +0.000 C 
ATOM     26  C   UNL     1       8.271  11.622  17.589  0.00  0.00    +0.000 C 
ATOM     27  O   UNL     1       8.436  12.769  18.428  0.00  0.00    +0.000 OA
ATOM     28  C   UNL     1       9.748  12.899  18.781  0.00  0.00    +0.000 A 
ATOM     29  C   UNL     1      10.348  14.151  18.729  0.00  0.00    +0.000 A 
ATOM     30  C   UNL     1      11.663  14.301  19.172  0.00  0.00    +0.000 A 
ATOM     31  C   UNL     1      12.331  13.219  19.753  0.00  0.00    +0.000 A 
ATOM     32  C   UNL     1      11.719  11.962  19.797  0.00  0.00    +0.000 A 
ATOM     33  C   UNL     1      10.456  11.794  19.234  0.00  0.00    +0.000 A 
ATOM     34  O   UNL     1       9.930  10.540  19.149  0.00  0.00    +0.000 OA
ENDBRANCH  24  25
ENDBRANCH  22  24
ENDBRANCH  19  21
ENDBRANCH   1  19
TORSDOF 8
ENDMDL
MODEL 3
REMARK VINA RESULT:      -8.4      3.421      4.047
REMARK  Name = 
REMARK  8 active torsions:
REMARK  status: ('A' for Active; 'I' for Inactive)
REMARK    1  A    between atoms: C_2  and  C_3
REMARK    2  A    between atoms: C_3  and  O_4
REMARK    3  A    between atoms: O_4  and  C_5
REMARK    4  A    between atoms: C_9  and  C_10
REMARK    5  A    between atoms: N_12  and  C_13
REMARK    6  A    between atoms: C_13  and  C_14
REMARK    7  A    between atoms: N_21  and  C_22
REMARK    8  A    between atoms: C_22  and  C_23
REMARK                            x       y       z     vdW  Elec       q    Type
REMARK                         _______ _______ _______ _____ _____    ______ ____
ROOT
ATOM      1  O   UNL     1       8.908   9.243  18.865  0.00  0.00    +0.000 OA
ENDROOT
BRANCH   1   2
ATOM      2  C   UNL     1       9.408  10.530  18.904  0.00  0.00    +0.000 A 
ATOM      3  C   UNL     1      10.194  11.129  17.910  0.00  0.00    +0.000 A 
ATOM      4  C   UNL     1      10.630  12.455  18.045  0.00  0.00    +0.000 A 
ATOM      5  C   UNL     1      10.293  13.200  19.178  0.00  0.00    +0.000 A 
ATOM      6  C   UNL     1       9.524  12.616  20.192  0.00  0.00    +0.000 A 
ATOM      7  C   UNL     1       9.082  11.283  20.046  0.00  0.00    +0.000 A 
BRANCH   6   8
ATOM      8  C   UNL     1       9.189  13.480  21.366  0.00  0.00    +0.000 C 
ATOM      9  O   UNL     1      10.085  14.064  21.967  0.00  0.00    +0.000 OA
ATOM     10  N   UNL     1       7.861  13.555  21.748  0.00  0.00    +0.000 N 
ATOM     11  H   UNL     1       7.183  12.937  21.333  0.00  0.00    +0.000 HD
BRANCH  10  12
ATOM     12  C   UNL     1       7.457  14.266  22.947  0.00  0.00    +0.000 C 
BRANCH  12  13
ATOM     13  C   UNL     1       7.129  13.320  24.083  0.00  0.00    +0.000 A 
ATOM     14  C   UNL     1       6.299  12.208  23.881  0.00  0.00    +0.000 A 
ATOM     15  C   UNL     1       6.061  11.302  24.919  0.00  0.00    +0.000 A 
ATOM     16  C   UNL     1       6.656  11.498  26.163  0.00  0.00    +0.000 A 
ATOM     17  C   UNL     1       7.484  12.595  26.381  0.00  0.00    +0.000 A 
ATOM     18  C   UNL     1       7.718  13.506  25.342  0.00  0.00    +0.000 A 
ENDBRANCH  12  13
ENDBRANCH  10  12
ENDBRANCH   6   8
ENDBRANCH   1   2
BRANCH   1  19
ATOM     19  C   UNL     1       8.055   8.901  17.767  0.00  0.00    +0.000 C 
BRANCH  19  21
ATOM     20  O   UNL     1       7.932   6.574  18.492  0.00  0.00    +0.000 OA
ATOM     21  C   UNL     1       7.512   7.437  17.728  0.00  0.00    +0.000 C 
ATOM     22  N   UNL     1       6.517   7.204  16.818  0.00  0.00    +0.000 N 
ATOM     23  H   UNL     1       6.356   7.973  16.176  0.00  0.00    +0.000 HD
BRANCH  22  24
ATOM     24  C   UNL     1       5.931   5.927  16.401  0.00  0.00    +0.000 C 
BRANCH  24  25
ATOM     25  C   UNL     1       4.608   5.301  16.913  0.00  0.00    +0.000 C 
ATOM     26  C   UNL     1       4.487   3.765  16.934  0.00  0.00    +0.000 C 
ATOM     27  O   UNL     1       4.255   3.161  18.210  0.00  0.00    +0.000 OA
ATOM     28  C   UNL     1       3.351   3.902  18.914  0.00  0.00    +0.000 A 
ATOM     29  C   UNL     1       2.322   3.259  19.592  0.00  0.00    +0.000 A 
ATOM     30  C   UNL     1       1.449   4.007  20.383  0.00  0.00    +0.000 A 
ATOM     31  C   UNL     1       1.671   5.374  20.566  0.00  0.00    +0.000 A 
ATOM     32  C   UNL     1       2.706   6.013  19.877  0.00  0.00    +0.000 A 
ATOM     33  C   UNL     1       3.492   5.281  18.989  0.00  0.00    +0.000 A 
ATOM     34  O   UNL     1       4.400   5.937  18.212  0.00  0.00    +0.000 OA
ENDBRANCH  24  25
ENDBRANCH  22  24
ENDBRANCH  19  21
ENDBRANCH   1  19
TORSDOF 8
ENDMDL
MODEL 4
REMARK VINA RESULT:      -8.3      7.854     12.119
REMARK  Name = 
REMARK  8 active torsions:
REMARK  status: ('A' for Active; 'I' for Inactive)
REMARK    1  A    between atoms: C_2  and  C_3
REMARK    2  A    between atoms: C_3  and  O_4
REMARK    3  A    between atoms: O_4  and  C_5
REMARK    4  A    between atoms: C_9  and  C_10
REMARK    5  A    between atoms: N_12  and  C_13
REMARK    6  A    between atoms: C_13  and  C_14
REMARK    7  A    between atoms: N_21  and  C_22
REMARK    8  A    between atoms: C_22  and  C_23
REMARK                            x       y       z     vdW  Elec       q    Type
REMARK                         _______ _______ _______ _____ _____    ______ ____
ROOT
ATOM      1  O   UNL     1      -1.061  11.242  18.573  0.00  0.00    +0.000 OA
ENDROOT
BRANCH   1   2
ATOM      2  C   UNL     1      -0.292  10.513  19.458  0.00  0.00    +0.000 A 
ATOM      3  C   UNL     1      -0.314  10.641  20.854  0.00  0.00    +0.000 A 
ATOM      4  C   UNL     1       0.499   9.830  21.660  0.00  0.00    +0.000 A 
ATOM      5  C   UNL     1       1.351   8.886  21.083  0.00  0.00    +0.000 A 
ATOM      6  C   UNL     1       1.403   8.753  19.690  0.00  0.00    +0.000 A 
ATOM      7  C   UNL     1       0.577   9.567  18.885  0.00  0.00    +0.000 A 
BRANCH   6   8
ATOM      8  C   UNL     1       2.326   7.708  19.146  0.00  0.00    +0.000 C 
ATOM      9  O   UNL     1       2.650   7.738  17.964  0.00  0.00    +0.000 OA
ATOM     10  N   UNL     1       2.751   6.717  20.013  0.00  0.00    +0.000 N 
ATOM     11  H   UNL     1       2.337   6.635  20.927  0.00  0.00    +0.000 HD
BRANCH  10  12
ATOM     12  C   UNL     1       3.545   5.594  19.547  0.00  0.00    +0.000 C 
BRANCH  12  13
ATOM     13  C   UNL     1       2.694   4.371  19.281  0.00  0.00    +0.000 A 
ATOM     14  C   UNL     1       1.544   4.111  20.043  0.00  0.00    +0.000 A 
ATOM     15  C   UNL     1       0.727   3.017  19.742  0.00  0.00    +0.000 A 
ATOM     16  C   UNL     1       1.048   2.181  18.675  0.00  0.00    +0.000 A 
ATOM     17  C   UNL     1       2.183   2.425  17.908  0.00  0.00    +0.000 A 
ATOM     18  C   UNL     1       3.006   3.518  18.213  0.00  0.00    +0.000 A 
ENDBRANCH  12  13
ENDBRANCH  10  12
ENDBRANCH   6   8
ENDBRANCH   1   2
BRANCH   1  19
ATOM     19  C   UNL     1      -1.687  10.526  17.502  0.00  0.00    +0.000 C 
BRANCH  19  21
ATOM     20  O   UNL     1      -3.486  10.932  15.903  0.00  0.00    +0.000 OA
ATOM     21  C   UNL     1      -3.108  11.010  17.068  0.00  0.00    +0.000 C 
ATOM     22  N   UNL     1      -3.902  11.481  18.077  0.00  0.00    +0.000 N 
ATOM     23  H   UNL     1      -3.419  11.598  18.962  0.00  0.00    +0.000 HD
BRANCH  22  24
ATOM     24  C   UNL     1      -5.191  12.172  17.988  0.00  0.00    +0.000 C 
BRANCH  24  25
ATOM     25  C   UNL     1      -6.054  12.681  19.172  0.00  0.00    +0.000 C 
ATOM     26  C   UNL     1      -7.473  12.102  19.342  0.00  0.00    +0.000 C 
ATOM     27  O   UNL     1      -7.740  11.419  20.570  0.00  0.00    +0.000 OA
ATOM     28  C   UNL     1      -7.179  12.103  21.610  0.00  0.00    +0.000 A 
ATOM     29  C   UNL     1      -7.914  12.298  22.774  0.00  0.00    +0.000 A 
ATOM     30  C   UNL     1      -7.313  12.920  23.869  0.00  0.00    +0.000 A 
ATOM     31  C   UNL     1      -5.956  13.252  23.824  0.00  0.00    +0.000 A 
ATOM     32  C   UNL     1      -5.226  13.054  22.648  0.00  0.00    +0.000 A 
ATOM     33  C   UNL     1      -5.869  12.553  21.519  0.00  0.00    +0.000 A 
ATOM     34  O   UNL     1      -5.191  12.502  20.337  0.00  0.00    +0.000 OA
ENDBRANCH  24  25
ENDBRANCH  22  24
ENDBRANCH  19  21
ENDBRANCH   1  19
TORSDOF 8
ENDMDL
MODEL 5
REMARK VINA RESULT:      -8.3      3.213      8.965
REMARK  Name = 
REMARK  8 active torsions:
REMARK  status: ('A' for Active; 'I' for Inactive)
REMARK    1  A    between atoms: C_2  and  C_3
REMARK    2  A    between atoms: C_3  and  O_4
REMARK    3  A    between atoms: O_4  and  C_5
REMARK    4  A    between atoms: C_9  and  C_10
REMARK    5  A    between atoms: N_12  and  C_13
REMARK    6  A    between atoms: C_13  and  C_14
REMARK    7  A    between atoms: N_21  and  C_22
REMARK    8  A    between atoms: C_22  and  C_23
REMARK                            x       y       z     vdW  Elec       q    Type
REMARK                         _______ _______ _______ _____ _____    ______ ____
ROOT
ATOM      1  O   UNL     1       6.885   4.912  18.956  0.00  0.00    +0.000 OA
ENDROOT
BRANCH   1   2
ATOM      2  C   UNL     1       5.553   4.793  18.609  0.00  0.00    +0.000 A 
ATOM      3  C   UNL     1       5.063   4.136  17.472  0.00  0.00    +0.000 A 
ATOM      4  C   UNL     1       3.683   4.058  17.230  0.00  0.00    +0.000 A 
ATOM      5  C   UNL     1       2.775   4.643  18.115  0.00  0.00    +0.000 A 
ATOM      6  C   UNL     1       3.243   5.320  19.247  0.00  0.00    +0.000 A 
ATOM      7  C   UNL     1       4.632   5.388  19.489  0.00  0.00    +0.000 A 
BRANCH   6   8
ATOM      8  C   UNL     1       2.210   5.905  20.158  0.00  0.00    +0.000 C 
ATOM      9  O   UNL     1       1.444   5.163  20.764  0.00  0.00    +0.000 OA
ATOM     10  N   UNL     1       2.144   7.284  20.249  0.00  0.00    +0.000 N 
ATOM     11  H   UNL     1       2.678   7.857  19.616  0.00  0.00    +0.000 HD
BRANCH  10  12
ATOM     12  C   UNL     1       1.096   7.943  21.008  0.00  0.00    +0.000 C 
BRANCH  12  13
ATOM     13  C   UNL     1       0.849   9.356  20.522  0.00  0.00    +0.000 A 
ATOM     14  C   UNL     1       0.365  10.344  21.393  0.00  0.00    +0.000 A 
ATOM     15  C   UNL     1       0.208  11.662  20.953  0.00  0.00    +0.000 A 
ATOM     16  C   UNL     1       0.540  12.002  19.643  0.00  0.00    +0.000 A 
ATOM     17  C   UNL     1       1.021  11.034  18.767  0.00  0.00    +0.000 A 
ATOM     18  C   UNL     1       1.174   9.712  19.206  0.00  0.00    +0.000 A 
ENDBRANCH  12  13
ENDBRANCH  10  12
ENDBRANCH   6   8
ENDBRANCH   1   2
BRANCH   1  19
ATOM     19  C   UNL     1       7.760   5.528  18.004  0.00  0.00    +0.000 C 
BRANCH  19  21
ATOM     20  O   UNL     1       6.603   7.320  16.822  0.00  0.00    +0.000 OA
ATOM     21  C   UNL     1       7.467   7.017  17.638  0.00  0.00    +0.000 C 
ATOM     22  N   UNL     1       8.206   7.946  18.317  0.00  0.00    +0.000 N 
ATOM     23  H   UNL     1       8.961   7.550  18.869  0.00  0.00    +0.000 HD
BRANCH  22  24
ATOM     24  C   UNL     1       8.312   9.389  18.083  0.00  0.00    +0.000 C 
BRANCH  24  25
ATOM     25  C   UNL     1       9.350  10.356  18.709  0.00  0.00    +0.000 C 
ATOM     26  C   UNL     1      10.196  11.231  17.763  0.00  0.00    +0.000 C 
ATOM     27  O   UNL     1      10.068  12.647  17.921  0.00  0.00    +0.000 OA
ATOM     28  C   UNL     1      10.029  12.963  19.248  0.00  0.00    +0.000 A 
ATOM     29  C   UNL     1      10.783  14.031  19.719  0.00  0.00    +0.000 A 
ATOM     30  C   UNL     1      10.676  14.409  21.058  0.00  0.00    +0.000 A 
ATOM     31  C   UNL     1       9.746  13.779  21.889  0.00  0.00    +0.000 A 
ATOM     32  C   UNL     1       8.994  12.702  21.407  0.00  0.00    +0.000 A 
ATOM     33  C   UNL     1       9.202  12.249  20.106  0.00  0.00    +0.000 A 
ATOM     34  O   UNL     1       8.576  11.112  19.692  0.00  0.00    +0.000 OA
ENDBRANCH  24  25
ENDBRANCH  22  24
ENDBRANCH  19  21
ENDBRANCH   1  19
TORSDOF 8
ENDMDL
MODEL 6
REMARK VINA RESULT:      -8.2      3.147      9.371
REMARK  Name = 
REMARK  8 active torsions:
REMARK  status: ('A' for Active; 'I' for Inactive)
REMARK    1  A    between atoms: C_2  and  C_3
REMARK    2  A    between atoms: C_3  and  O_4
REMARK    3  A    between atoms: O_4  and  C_5
REMARK    4  A    between atoms: C_9  and  C_10
REMARK    5  A    between atoms: N_12  and  C_13
REMARK    6  A    between atoms: C_13  and  C_14
REMARK    7  A    between atoms: N_21  and  C_22
REMARK    8  A    between atoms: C_22  and  C_23
REMARK                            x       y       z     vdW  Elec       q    Type
REMARK                         _______ _______ _______ _____ _____    ______ ____
ROOT
ATOM      1  O   UNL     1       7.374   7.789  16.865  0.00  0.00    +0.000 OA
ENDROOT
BRANCH   1   2
ATOM      2  C   UNL     1       6.641   6.619  16.898  0.00  0.00    +0.000 A 
ATOM      3  C   UNL     1       6.980   5.426  16.244  0.00  0.00    +0.000 A 
ATOM      4  C   UNL     1       6.168   4.289  16.365  0.00  0.00    +0.000 A 
ATOM      5  C   UNL     1       5.002   4.329  17.134  0.00  0.00    +0.000 A 
ATOM      6  C   UNL     1       4.635   5.515  17.781  0.00  0.00    +0.000 A 
ATOM      7  C   UNL     1       5.460   6.654  17.660  0.00  0.00    +0.000 A 
BRANCH   6   8
ATOM      8  C   UNL     1       3.383   5.477  18.600  0.00  0.00    +0.000 C 
ATOM      9  O   UNL     1       2.542   4.610  18.385  0.00  0.00    +0.000 OA
ATOM     10  N   UNL     1       3.214   6.461  19.557  0.00  0.00    +0.000 N 
ATOM     11  H   UNL     1       3.846   7.244  19.591  0.00  0.00    +0.000 HD
BRANCH  10  12
ATOM     12  C   UNL     1       1.980   6.579  20.312  0.00  0.00    +0.000 C 
BRANCH  12  13
ATOM     13  C   UNL     1       1.527   8.019  20.436  0.00  0.00    +0.000 A 
ATOM     14  C   UNL     1       1.358   8.822  19.298  0.00  0.00    +0.000 A 
ATOM     15  C   UNL     1       0.870  10.128  19.418  0.00  0.00    +0.000 A 
ATOM     16  C   UNL     1       0.543  10.635  20.674  0.00  0.00    +0.000 A 
ATOM     17  C   UNL     1       0.703   9.851  21.812  0.00  0.00    +0.000 A 
ATOM     18  C   UNL     1       1.197   8.545  21.693  0.00  0.00    +0.000 A 
ENDBRANCH  12  13
ENDBRANCH  10  12
ENDBRANCH   6   8
ENDBRANCH   1   2
BRANCH   1  19
ATOM     19  C   UNL     1       8.287   8.023  17.943  0.00  0.00    +0.000 C 
BRANCH  19  21
ATOM     20  O   UNL     1       8.066  10.444  17.733  0.00  0.00    +0.000 OA
ATOM     21  C   UNL     1       8.449   9.502  18.419  0.00  0.00    +0.000 C 
ATOM     22  N   UNL     1       9.004   9.663  19.659  0.00  0.00    +0.000 N 
ATOM     23  H   UNL     1       9.381   8.808  20.057  0.00  0.00    +0.000 HD
BRANCH  22  24
ATOM     24  C   UNL     1       9.460  10.893  20.311  0.00  0.00    +0.000 C 
BRANCH  24  25
ATOM     25  C   UNL     1      10.336  12.007  19.681  0.00  0.00    +0.000 C 
ATOM     26  C   UNL     1      11.327  11.614  18.568  0.00  0.00    +0.000 C 
ATOM     27  O   UNL     1      11.139  12.243  17.296  0.00  0.00    +0.000 OA
ATOM     28  C   UNL     1      10.839  13.562  17.474  0.00  0.00    +0.000 A 
ATOM     29  C   UNL     1      11.464  14.517  16.680  0.00  0.00    +0.000 A 
ATOM     30  C   UNL     1      11.094  15.857  16.800  0.00  0.00    +0.000 A 
ATOM     31  C   UNL     1      10.036  16.217  17.640  0.00  0.00    +0.000 A 
ATOM     32  C   UNL     1       9.416  15.249  18.437  0.00  0.00    +0.000 A 
ATOM     33  C   UNL     1       9.880  13.936  18.406  0.00  0.00    +0.000 A 
ATOM     34  O   UNL     1       9.371  13.032  19.290  0.00  0.00    +0.000 OA
ENDBRANCH  24  25
ENDBRANCH  22  24
ENDBRANCH  19  21
ENDBRANCH   1  19
TORSDOF 8
ENDMDL
MODEL 7
REMARK VINA RESULT:      -8.0      3.069      9.060
REMARK  Name = 
REMARK  8 active torsions:
REMARK  status: ('A' for Active; 'I' for Inactive)
REMARK    1  A    between atoms: C_2  and  C_3
REMARK    2  A    between atoms: C_3  and  O_4
REMARK    3  A    between atoms: O_4  and  C_5
REMARK    4  A    between atoms: C_9  and  C_10
REMARK    5  A    between atoms: N_12  and  C_13
REMARK    6  A    between atoms: C_13  and  C_14
REMARK    7  A    between atoms: N_21  and  C_22
REMARK    8  A    between atoms: C_22  and  C_23
REMARK                            x       y       z     vdW  Elec       q    Type
REMARK                         _______ _______ _______ _____ _____    ______ ____
ROOT
ATOM      1  O   UNL     1       6.941   4.930  18.134  0.00  0.00    +0.000 OA
ENDROOT
BRANCH   1   2
ATOM      2  C   UNL     1       5.590   4.677  17.993  0.00  0.00    +0.000 A 
ATOM      3  C   UNL     1       5.013   3.853  17.017  0.00  0.00    +0.000 A 
ATOM      4  C   UNL     1       3.626   3.650  16.981  0.00  0.00    +0.000 A 
ATOM      5  C   UNL     1       2.795   4.274  17.915  0.00  0.00    +0.000 A 
ATOM      6  C   UNL     1       3.348   5.115  18.887  0.00  0.00    +0.000 A 
ATOM      7  C   UNL     1       4.745   5.309  18.922  0.00  0.00    +0.000 A 
BRANCH   6   8
ATOM      8  C   UNL     1       2.396   5.733  19.864  0.00  0.00    +0.000 C 
ATOM      9  O   UNL     1       1.501   5.053  20.354  0.00  0.00    +0.000 OA
ATOM     10  N   UNL     1       2.554   7.078  20.147  0.00  0.00    +0.000 N 
ATOM     11  H   UNL     1       3.194   7.636  19.604  0.00  0.00    +0.000 HD
BRANCH  10  12
ATOM     12  C   UNL     1       1.606   7.792  20.982  0.00  0.00    +0.000 C 
BRANCH  12  13
ATOM     13  C   UNL     1       0.933   8.925  20.235  0.00  0.00    +0.000 A 
ATOM     14  C   UNL     1      -0.065   9.700  20.845  0.00  0.00    +0.000 A 
ATOM     15  C   UNL     1      -0.629  10.788  20.172  0.00  0.00    +0.000 A 
ATOM     16  C   UNL     1      -0.194  11.112  18.889  0.00  0.00    +0.000 A 
ATOM     17  C   UNL     1       0.795  10.355  18.270  0.00  0.00    +0.000 A 
ATOM     18  C   UNL     1       1.357   9.261  18.942  0.00  0.00    +0.000 A 
ENDBRANCH  12  13
ENDBRANCH  10  12
ENDBRANCH   6   8
ENDBRANCH   1   2
BRANCH   1  19
ATOM     19  C   UNL     1       7.318   6.099  18.871  0.00  0.00    +0.000 C 
BRANCH  19  21
ATOM     20  O   UNL     1       7.536   7.438  16.843  0.00  0.00    +0.000 OA
ATOM     21  C   UNL     1       7.789   7.334  18.039  0.00  0.00    +0.000 C 
ATOM     22  N   UNL     1       8.458   8.297  18.743  0.00  0.00    +0.000 N 
ATOM     23  H   UNL     1       8.699   8.023  19.691  0.00  0.00    +0.000 HD
BRANCH  22  24
ATOM     24  C   UNL     1       9.185   9.466  18.242  0.00  0.00    +0.000 C 
BRANCH  24  25
ATOM     25  C   UNL     1       9.121  10.910  18.806  0.00  0.00    +0.000 C 
ATOM     26  C   UNL     1      10.441  11.594  19.213  0.00  0.00    +0.000 C 
ATOM     27  O   UNL     1      10.770  12.804  18.524  0.00  0.00    +0.000 OA
ATOM     28  C   UNL     1       9.651  13.570  18.376  0.00  0.00    +0.000 A 
ATOM     29  C   UNL     1       9.717  14.934  18.638  0.00  0.00    +0.000 A 
ATOM     30  C   UNL     1       8.598  15.733  18.403  0.00  0.00    +0.000 A 
ATOM     31  C   UNL     1       7.456  15.179  17.818  0.00  0.00    +0.000 A 
ATOM     32  C   UNL     1       7.397  13.806  17.562  0.00  0.00    +0.000 A 
ATOM     33  C   UNL     1       8.472  12.996  17.920  0.00  0.00    +0.000 A 
ATOM     34  O   UNL     1       8.350  11.643  17.804  0.00  0.00    +0.000 OA
ENDBRANCH  24  25
ENDBRANCH  22  24
ENDBRANCH  19  21
ENDBRANCH   1  19
TORSDOF 8
ENDMDL
MODEL 8
REMARK VINA RESULT:      -8.0      5.991     10.725
REMARK  Name = 
REMARK  8 active torsions:
REMARK  status: ('A' for Active; 'I' for Inactive)
REMARK    1  A    between atoms: C_2  and  C_3
REMARK    2  A    between atoms: C_3  and  O_4
REMARK    3  A    between atoms: O_4  and  C_5
REMARK    4  A    between atoms: C_9  and  C_10
REMARK    5  A    between atoms: N_12  and  C_13
REMARK    6  A    between atoms: C_13  and  C_14
REMARK    7  A    between atoms: N_21  and  C_22
REMARK    8  A    between atoms: C_22  and  C_23
REMARK                            x       y       z     vdW  Elec       q    Type
REMARK                         _______ _______ _______ _____ _____    ______ ____
ROOT
ATOM      1  O   UNL     1       1.665   6.037  20.703  0.00  0.00    +0.000 OA
ENDROOT
BRANCH   1   2
ATOM      2  C   UNL     1       2.367   4.953  20.213  0.00  0.00    +0.000 A 
ATOM      3  C   UNL     1       1.934   3.620  20.246  0.00  0.00    +0.000 A 
ATOM      4  C   UNL     1       2.723   2.598  19.696  0.00  0.00    +0.000 A 
ATOM      5  C   UNL     1       3.958   2.892  19.113  0.00  0.00    +0.000 A 
ATOM      6  C   UNL     1       4.418   4.214  19.086  0.00  0.00    +0.000 A 
ATOM      7  C   UNL     1       3.616   5.239  19.634  0.00  0.00    +0.000 A 
BRANCH   6   8
ATOM      8  C   UNL     1       5.741   4.454  18.429  0.00  0.00    +0.000 C 
ATOM      9  O   UNL     1       6.749   4.574  19.118  0.00  0.00    +0.000 OA
ATOM     10  N   UNL     1       5.760   4.565  17.051  0.00  0.00    +0.000 N 
ATOM     11  H   UNL     1       4.896   4.623  16.538  0.00  0.00    +0.000 HD
BRANCH  10  12
ATOM     12  C   UNL     1       6.973   4.921  16.337  0.00  0.00    +0.000 C 
BRANCH  12  13
ATOM     13  C   UNL     1       6.849   4.668  14.849  0.00  0.00    +0.000 A 
ATOM     14  C   UNL     1       7.725   5.278  13.937  0.00  0.00    +0.000 A 
ATOM     15  C   UNL     1       7.647   4.982  12.573  0.00  0.00    +0.000 A 
ATOM     16  C   UNL     1       6.700   4.071  12.111  0.00  0.00    +0.000 A 
ATOM     17  C   UNL     1       5.825   3.457  13.002  0.00  0.00    +0.000 A 
ATOM     18  C   UNL     1       5.898   3.756  14.368  0.00  0.00    +0.000 A 
ENDBRANCH  12  13
ENDBRANCH  10  12
ENDBRANCH   6   8
ENDBRANCH   1   2
BRANCH   1  19
ATOM     19  C   UNL     1       2.051   7.335  20.239  0.00  0.00    +0.000 C 
BRANCH  19  21
ATOM     20  O   UNL     1       0.399   8.456  21.642  0.00  0.00    +0.000 OA
ATOM     21  C   UNL     1       1.153   8.535  20.677  0.00  0.00    +0.000 C 
ATOM     22  N   UNL     1       1.298   9.678  19.940  0.00  0.00    +0.000 N 
ATOM     23  H   UNL     1       1.863   9.562  19.104  0.00  0.00    +0.000 HD
BRANCH  22  24
ATOM     24  C   UNL     1       0.487  10.899  19.963  0.00  0.00    +0.000 C 
BRANCH  24  25
ATOM     25  C   UNL     1      -1.049  10.988  20.152  0.00  0.00    +0.000 C 
ATOM     26  C   UNL     1      -1.606  12.068  21.101  0.00  0.00    +0.000 C 
ATOM     27  O   UNL     1      -2.491  13.031  20.521  0.00  0.00    +0.000 OA
ATOM     28  C   UNL     1      -3.346  12.410  19.656  0.00  0.00    +0.000 A 
ATOM     29  C   UNL     1      -4.698  12.733  19.683  0.00  0.00    +0.000 A 
ATOM     30  C   UNL     1      -5.558  12.165  18.742  0.00  0.00    +0.000 A 
ATOM     31  C   UNL     1      -5.043  11.358  17.724  0.00  0.00    +0.000 A 
ATOM     32  C   UNL     1      -3.682  11.036  17.708  0.00  0.00    +0.000 A 
ATOM     33  C   UNL     1      -2.855  11.503  18.727  0.00  0.00    +0.000 A 
ATOM     34  O   UNL     1      -1.566  11.066  18.787  0.00  0.00    +0.000 OA
ENDBRANCH  24  25
ENDBRANCH  22  24
ENDBRANCH  19  21
ENDBRANCH   1  19
TORSDOF 8
ENDMDL
MODEL 9
REMARK VINA RESULT:      -8.0      5.774     10.663
REMARK  Name = 
REMARK  8 active torsions:
REMARK  status: ('A' for Active; 'I' for Inactive)
REMARK    1  A    between atoms: C_2  and  C_3
REMARK    2  A    between atoms: C_3  and  O_4
REMARK    3  A    between atoms: O_4  and  C_5
REMARK    4  A    between atoms: C_9  and  C_10
REMARK    5  A    between atoms: N_12  and  C_13
REMARK    6  A    between atoms: C_13  and  C_14
REMARK    7  A    between atoms: N_21  and  C_22
REMARK    8  A    between atoms: C_22  and  C_23
REMARK                            x       y       z     vdW  Elec       q    Type
REMARK                         _______ _______ _______ _____ _____    ______ ____
ROOT
ATOM      1  O   UNL     1       1.279   6.678  20.993  0.00  0.00    +0.000 OA
ENDROOT
BRANCH   1   2
ATOM      2  C   UNL     1       1.864   5.534  20.488  0.00  0.00    +0.000 A 
ATOM      3  C   UNL     1       1.335   4.239  20.583  0.00  0.00    +0.000 A 
ATOM      4  C   UNL     1       2.008   3.148  20.012  0.00  0.00    +0.000 A 
ATOM      5  C   UNL     1       3.220   3.334  19.344  0.00  0.00    +0.000 A 
ATOM      6  C   UNL     1       3.775   4.616  19.253  0.00  0.00    +0.000 A 
ATOM      7  C   UNL     1       3.090   5.711  19.823  0.00  0.00    +0.000 A 
BRANCH   6   8
ATOM      8  C   UNL     1       5.067   4.740  18.507  0.00  0.00    +0.000 C 
ATOM      9  O   UNL     1       6.083   4.223  18.961  0.00  0.00    +0.000 OA
ATOM     10  N   UNL     1       5.062   5.475  17.336  0.00  0.00    +0.000 N 
ATOM     11  H   UNL     1       4.251   6.016  17.084  0.00  0.00    +0.000 HD
BRANCH  10  12
ATOM     12  C   UNL     1       6.289   5.754  16.612  0.00  0.00    +0.000 C 
BRANCH  12  13
ATOM     13  C   UNL     1       6.327   5.053  15.270  0.00  0.00    +0.000 A 
ATOM     14  C   UNL     1       5.217   4.336  14.798  0.00  0.00    +0.000 A 
ATOM     15  C   UNL     1       5.238   3.753  13.527  0.00  0.00    +0.000 A 
ATOM     16  C   UNL     1       6.364   3.888  12.718  0.00  0.00    +0.000 A 
ATOM     17  C   UNL     1       7.473   4.596  13.171  0.00  0.00    +0.000 A 
ATOM     18  C   UNL     1       7.455   5.177  14.446  0.00  0.00    +0.000 A 
ENDBRANCH  12  13
ENDBRANCH  10  12
ENDBRANCH   6   8
ENDBRANCH   1   2
BRANCH   1  19
ATOM     19  C   UNL     1       1.675   7.929  20.418  0.00  0.00    +0.000 C 
BRANCH  19  21
ATOM     20  O   UNL     1      -0.267   9.063  21.363  0.00  0.00    +0.000 OA
ATOM     21  C   UNL     1       0.701   9.133  20.614  0.00  0.00    +0.000 C 
ATOM     22  N   UNL     1       1.028  10.271  19.928  0.00  0.00    +0.000 N 
ATOM     23  H   UNL     1       1.781  10.148  19.258  0.00  0.00    +0.000 HD
BRANCH  22  24
ATOM     24  C   UNL     1       0.242  11.494  19.744  0.00  0.00    +0.000 C 
BRANCH  24  25
ATOM     25  C   UNL     1      -0.960  11.688  18.784  0.00  0.00    +0.000 C 
ATOM     26  C   UNL     1      -1.216  10.614  17.708  0.00  0.00    +0.000 C 
ATOM     27  O   UNL     1      -2.479   9.945  17.763  0.00  0.00    +0.000 OA
ATOM     28  C   UNL     1      -3.467  10.845  18.041  0.00  0.00    +0.000 A 
ATOM     29  C   UNL     1      -4.655  10.800  17.320  0.00  0.00    +0.000 A 
ATOM     30  C   UNL     1      -5.697  11.662  17.662  0.00  0.00    +0.000 A 
ATOM     31  C   UNL     1      -5.579  12.492  18.780  0.00  0.00    +0.000 A 
ATOM     32  C   UNL     1      -4.379  12.533  19.496  0.00  0.00    +0.000 A 
ATOM     33  C   UNL     1      -3.299  11.763  19.069  0.00  0.00    +0.000 A 
ATOM     34  O   UNL     1      -2.091  11.919  19.680  0.00  0.00    +0.000 OA
ENDBRANCH  24  25
ENDBRANCH  22  24
ENDBRANCH  19  21
ENDBRANCH   1  19
TORSDOF 8
ENDMDL
