MODEL 1
REMARK VINA RESULT:      -9.5      0.000      0.000
REMARK  Name = 
REMARK  7 active torsions:
REMARK  status: ('A' for Active; 'I' for Inactive)
REMARK    1  A    between atoms: C_1  and  C_2
REMARK    2  A    between atoms: C_6  and  C_7
REMARK    3  A    between atoms: N_13  and  C_14
REMARK    4  A    between atoms: C_18  and  C_19
REMARK    5  A    between atoms: C_19  and  C_20
REMARK    6  A    between atoms: C_19  and  N_21
REMARK    7  A    between atoms: N_26  and  C_27
REMARK                            x       y       z     vdW  Elec       q    Type
REMARK                         _______ _______ _______ _____ _____    ______ ____
ROOT
ATOM      1  C   UNL     1       1.770   8.040  19.593  0.00  0.00    +0.000 A 
ATOM      2  C   UNL     1       1.506   7.866  20.961  0.00  0.00    +0.000 A 
ATOM      3  C   UNL     1       0.766   8.789  21.693  0.00  0.00    +0.000 A 
ATOM      4  C   UNL     1       0.279   9.924  21.062  0.00  0.00    +0.000 A 
ATOM      5  C   UNL     1       0.578  10.180  19.712  0.00  0.00    +0.000 A 
ATOM      6  C   UNL     1       1.343   9.233  18.987  0.00  0.00    +0.000 A 
ENDROOT
BRANCH   1  15
ATOM      7  C   UNL     1       6.305   4.086  15.277  0.00  0.00    +0.000 C 
ATOM      8  C   UNL     1       5.213   4.382  16.262  0.00  0.00    +0.000 A 
ATOM      9  C   UNL     1       4.846   5.700  16.517  0.00  0.00    +0.000 A 
ATOM     10  C   UNL     1       3.849   5.922  17.451  0.00  0.00    +0.000 A 
ATOM     11  C   UNL     1       3.201   4.924  18.164  0.00  0.00    +0.000 A 
ATOM     12  C   UNL     1       3.521   3.594  17.896  0.00  0.00    +0.000 A 
ATOM     13  C   UNL     1       4.542   3.340  16.939  0.00  0.00    +0.000 A 
ATOM     14  C   UNL     1       2.252   5.560  19.146  0.00  0.00    +0.000 C 
ATOM     15  N   UNL     1       2.386   6.986  18.866  0.00  0.00    +0.000 N 
ATOM     16  C   UNL     1       3.341   7.220  17.868  0.00  0.00    +0.000 C 
ATOM     17  O   UNL     1       3.781   8.251  17.402  0.00  0.00    +0.000 OA
BRANCH  12  18
ATOM     18  C   UNL     1       2.835   2.428  18.559  0.00  0.00    +0.000 C 
ATOM     19  F   UNL     1       1.513   2.328  18.253  0.00  0.00    +0.000 F 
ATOM     20  F   UNL     1       3.392   1.236  18.211  0.00  0.00    +0.000 F 
ATOM     21  F   UNL     1       2.902   2.490  19.918  0.00  0.00    +0.000 F 
ENDBRANCH  12  18
ENDBRANCH   1  15
BRANCH   5  22
ATOM     22  C   UNL     1       0.001  11.459  19.111  0.00  0.00    +0.000 C 
ATOM     23  C   UNL     1       1.064  12.507  18.778  0.00  0.00    +0.000 C 
BRANCH  22  24
ATOM     24  N   UNL     1      -0.789  11.127  17.914  0.00  0.00    +0.000 N 
ATOM     25  C   UNL     1      -2.131  11.324  17.972  0.00  0.00    +0.000 A 
ATOM     26  N   UNL     1      -2.811  11.876  18.953  0.00  0.00    +0.000 NA
ATOM     27  C   UNL     1      -4.130  11.804  18.595  0.00  0.00    +0.000 A 
ATOM     28  C   UNL     1      -4.266  11.230  17.357  0.00  0.00    +0.000 A 
ATOM     29  N   UNL     1      -2.986  10.939  16.962  0.00  0.00    +0.000 N 
ATOM     30  C   UNL     1      -2.653  10.373  15.678  0.00  0.00    +0.000 C 
ATOM     31  H   UNL     1      -0.461  10.282  17.454  0.00  0.00    +0.000 HD
ENDBRANCH  22  24
ENDBRANCH   5  22
TORSDOF 4
ENDMDL
MODEL 2
REMARK VINA RESULT:      -9.4      2.239      2.810
REMARK  Name = 
REMARK  7 active torsions:
REMARK  status: ('A' for Active; 'I' for Inactive)
REMARK    1  A    between atoms: C_1  and  C_2
REMARK    2  A    between atoms: C_6  and  C_7
REMARK    3  A    between atoms: N_13  and  C_14
REMARK    4  A    between atoms: C_18  and  C_19
REMARK    5  A    between atoms: C_19  and  C_20
REMARK    6  A    between atoms: C_19  and  N_21
REMARK    7  A    between atoms: N_26  and  C_27
REMARK                            x       y       z     vdW  Elec       q    Type
REMARK                         _______ _______ _______ _____ _____    ______ ____
ROOT
ATOM      1  C   UNL     1       1.552   8.513  19.957  0.00  0.00    +0.000 A 
ATOM      2  C   UNL     1       1.149   8.437  21.300  0.00  0.00    +0.000 A 
ATOM      3  C   UNL     1       0.318   9.393  21.876  0.00  0.00    +0.000 A 
ATOM      4  C   UNL     1      -0.121  10.463  21.110  0.00  0.00    +0.000 A 
ATOM      5  C   UNL     1       0.313  10.623  19.783  0.00  0.00    +0.000 A 
ATOM      6  C   UNL     1       1.168   9.644  19.218  0.00  0.00    +0.000 A 
ENDROOT
BRANCH   1  15
ATOM      7  C   UNL     1       3.720   1.742  17.887  0.00  0.00    +0.000 C 
ATOM      8  C   UNL     1       3.666   3.240  17.941  0.00  0.00    +0.000 A 
ATOM      9  C   UNL     1       2.863   3.872  18.886  0.00  0.00    +0.000 A 
ATOM     10  C   UNL     1       2.830   5.256  18.882  0.00  0.00    +0.000 A 
ATOM     11  C   UNL     1       3.527   6.058  17.991  0.00  0.00    +0.000 A 
ATOM     12  C   UNL     1       4.371   5.450  17.062  0.00  0.00    +0.000 A 
ATOM     13  C   UNL     1       4.424   4.029  17.048  0.00  0.00    +0.000 A 
ATOM     14  C   UNL     1       3.165   7.498  18.239  0.00  0.00    +0.000 C 
ATOM     15  N   UNL     1       2.261   7.424  19.383  0.00  0.00    +0.000 N 
ATOM     16  C   UNL     1       2.042   6.096  19.771  0.00  0.00    +0.000 C 
ATOM     17  O   UNL     1       1.321   5.616  20.622  0.00  0.00    +0.000 OA
BRANCH  12  18
ATOM     18  C   UNL     1       5.228   6.222  16.093  0.00  0.00    +0.000 C 
ATOM     19  F   UNL     1       5.880   5.434  15.195  0.00  0.00    +0.000 F 
ATOM     20  F   UNL     1       4.503   7.108  15.357  0.00  0.00    +0.000 F 
ATOM     21  F   UNL     1       6.191   6.954  16.719  0.00  0.00    +0.000 F 
ENDBRANCH  12  18
ENDBRANCH   1  15
BRANCH   5  22
ATOM     22  C   UNL     1      -0.222  11.836  19.026  0.00  0.00    +0.000 C 
ATOM     23  C   UNL     1       0.866  12.840  18.642  0.00  0.00    +0.000 C 
BRANCH  22  24
ATOM     24  N   UNL     1      -0.954  11.386  17.831  0.00  0.00    +0.000 N 
ATOM     25  C   UNL     1      -2.311  11.429  17.871  0.00  0.00    +0.000 A 
ATOM     26  N   UNL     1      -3.061  11.923  18.831  0.00  0.00    +0.000 NA
ATOM     27  C   UNL     1      -4.358  11.691  18.463  0.00  0.00    +0.000 A 
ATOM     28  C   UNL     1      -4.412  11.075  17.239  0.00  0.00    +0.000 A 
ATOM     29  N   UNL     1      -3.103  10.923  16.863  0.00  0.00    +0.000 N 
ATOM     30  C   UNL     1      -2.692  10.369  15.597  0.00  0.00    +0.000 C 
ATOM     31  H   UNL     1      -0.525  10.574  17.396  0.00  0.00    +0.000 HD
ENDBRANCH  22  24
ENDBRANCH   5  22
TORSDOF 4
ENDMDL
MODEL 3
REMARK VINA RESULT:      -9.2      1.159      1.653
REMARK  Name = 
REMARK  7 active torsions:
REMARK  status: ('A' for Active; 'I' for Inactive)
REMARK    1  A    between atoms: C_1  and  C_2
REMARK    2  A    between atoms: C_6  and  C_7
REMARK    3  A    between atoms: N_13  and  C_14
REMARK    4  A    between atoms: C_18  and  C_19
REMARK    5  A    between atoms: C_19  and  C_20
REMARK    6  A    between atoms: C_19  and  N_21
REMARK    7  A    between atoms: N_26  and  C_27
REMARK                            x       y       z     vdW  Elec       q    Type
REMARK                         _______ _______ _______ _____ _____    ______ ____
ROOT
ATOM      1  C   UNL     1       1.163   8.842  20.318  0.00  0.00    +0.000 A 
ATOM      2  C   UNL     1       0.855   8.949  21.683  0.00  0.00    +0.000 A 
ATOM      3  C   UNL     1       0.152  10.035  22.198  0.00  0.00    +0.000 A 
ATOM      4  C   UNL     1      -0.248  11.052  21.344  0.00  0.00    +0.000 A 
ATOM      5  C   UNL     1       0.099  11.027  19.983  0.00  0.00    +0.000 A 
ATOM      6  C   UNL     1       0.824   9.918  19.480  0.00  0.00    +0.000 A 
ENDROOT
BRANCH   1  15
ATOM      7  C   UNL     1       5.162   3.898  16.524  0.00  0.00    +0.000 C 
ATOM      8  C   UNL     1       4.257   4.449  17.586  0.00  0.00    +0.000 A 
ATOM      9  C   UNL     1       3.811   5.765  17.503  0.00  0.00    +0.000 A 
ATOM     10  C   UNL     1       2.996   6.235  18.519  0.00  0.00    +0.000 A 
ATOM     11  C   UNL     1       2.607   5.491  19.623  0.00  0.00    +0.000 A 
ATOM     12  C   UNL     1       3.007   4.158  19.708  0.00  0.00    +0.000 A 
ATOM     13  C   UNL     1       3.843   3.652  18.675  0.00  0.00    +0.000 A 
ATOM     14  C   UNL     1       1.806   6.370  20.548  0.00  0.00    +0.000 C 
ATOM     15  N   UNL     1       1.734   7.636  19.828  0.00  0.00    +0.000 N 
ATOM     16  C   UNL     1       2.447   7.577  18.623  0.00  0.00    +0.000 C 
ATOM     17  O   UNL     1       2.677   8.423  17.784  0.00  0.00    +0.000 OA
BRANCH  12  18
ATOM     18  C   UNL     1       2.588   3.238  20.825  0.00  0.00    +0.000 C 
ATOM     19  F   UNL     1       3.495   2.259  21.094  0.00  0.00    +0.000 F 
ATOM     20  F   UNL     1       2.396   3.904  21.997  0.00  0.00    +0.000 F 
ATOM     21  F   UNL     1       1.415   2.600  20.560  0.00  0.00    +0.000 F 
ENDBRANCH  12  18
ENDBRANCH   1  15
BRANCH   5  22
ATOM     22  C   UNL     1      -0.384  12.195  19.127  0.00  0.00    +0.000 C 
ATOM     23  C   UNL     1       0.732  13.168  18.741  0.00  0.00    +0.000 C 
BRANCH  22  24
ATOM     24  N   UNL     1      -1.058  11.679  17.926  0.00  0.00    +0.000 N 
ATOM     25  C   UNL     1      -2.414  11.601  17.949  0.00  0.00    +0.000 A 
ATOM     26  N   UNL     1      -3.217  12.029  18.898  0.00  0.00    +0.000 NA
ATOM     27  C   UNL     1      -4.484  11.682  18.516  0.00  0.00    +0.000 A 
ATOM     28  C   UNL     1      -4.468  11.060  17.293  0.00  0.00    +0.000 A 
ATOM     29  N   UNL     1      -3.146  11.025  16.933  0.00  0.00    +0.000 N 
ATOM     30  C   UNL     1      -2.671  10.506  15.674  0.00  0.00    +0.000 C 
ATOM     31  H   UNL     1      -0.554  10.907  17.499  0.00  0.00    +0.000 HD
ENDBRANCH  22  24
ENDBRANCH   5  22
TORSDOF 4
ENDMDL
MODEL 4
REMARK VINA RESULT:      -9.2      3.640      8.732
REMARK  Name = 
REMARK  7 active torsions:
REMARK  status: ('A' for Active; 'I' for Inactive)
REMARK    1  A    between atoms: C_1  and  C_2
REMARK    2  A    between atoms: C_6  and  C_7
REMARK    3  A    between atoms: N_13  and  C_14
REMARK    4  A    between atoms: C_18  and  C_19
REMARK    5  A    between atoms: C_19  and  C_20
REMARK    6  A    between atoms: C_19  and  N_21
REMARK    7  A    between atoms: N_26  and  C_27
REMARK                            x       y       z     vdW  Elec       q    Type
REMARK                         _______ _______ _______ _____ _____    ______ ____
ROOT
ATOM      1  C   UNL     1       2.780   6.518  18.464  0.00  0.00    +0.000 A 
ATOM      2  C   UNL     1       2.231   5.269  18.797  0.00  0.00    +0.000 A 
ATOM      3  C   UNL     1       2.857   4.074  18.455  0.00  0.00    +0.000 A 
ATOM      4  C   UNL     1       4.053   4.108  17.754  0.00  0.00    +0.000 A 
ATOM      5  C   UNL     1       4.606   5.331  17.335  0.00  0.00    +0.000 A 
ATOM      6  C   UNL     1       3.947   6.537  17.683  0.00  0.00    +0.000 A 
ENDROOT
BRANCH   1  15
ATOM      7  C   UNL     1      -0.436  13.154  19.133  0.00  0.00    +0.000 C 
ATOM      8  C   UNL     1       0.077  11.800  19.525  0.00  0.00    +0.000 A 
ATOM      9  C   UNL     1       0.817  11.048  18.617  0.00  0.00    +0.000 A 
ATOM     10  C   UNL     1       1.249   9.796  19.018  0.00  0.00    +0.000 A 
ATOM     11  C   UNL     1       0.982   9.230  20.256  0.00  0.00    +0.000 A 
ATOM     12  C   UNL     1       0.279   9.980  21.198  0.00  0.00    +0.000 A 
ATOM     13  C   UNL     1      -0.174  11.271  20.810  0.00  0.00    +0.000 A 
ATOM     14  C   UNL     1       1.535   7.829  20.284  0.00  0.00    +0.000 C 
ATOM     15  N   UNL     1       2.183   7.698  18.983  0.00  0.00    +0.000 N 
ATOM     16  C   UNL     1       2.012   8.855  18.212  0.00  0.00    +0.000 C 
ATOM     17  O   UNL     1       2.339   9.118  17.073  0.00  0.00    +0.000 OA
BRANCH  12  18
ATOM     18  C   UNL     1      -0.007   9.495  22.595  0.00  0.00    +0.000 C 
ATOM     19  F   UNL     1      -0.759   8.361  22.635  0.00  0.00    +0.000 F 
ATOM     20  F   UNL     1       1.131   9.215  23.287  0.00  0.00    +0.000 F 
ATOM     21  F   UNL     1      -0.680  10.417  23.338  0.00  0.00    +0.000 F 
ENDBRANCH  12  18
ENDBRANCH   1  15
BRANCH   5  22
ATOM     22  C   UNL     1       5.922   5.263  16.565  0.00  0.00    +0.000 C 
ATOM     23  C   UNL     1       7.079   4.697  17.388  0.00  0.00    +0.000 C 
BRANCH  22  24
ATOM     24  N   UNL     1       5.731   4.479  15.334  0.00  0.00    +0.000 N 
ATOM     25  C   UNL     1       6.585   4.708  14.303  0.00  0.00    +0.000 A 
ATOM     26  N   UNL     1       7.640   5.492  14.306  0.00  0.00    +0.000 NA
ATOM     27  C   UNL     1       8.151   5.455  13.037  0.00  0.00    +0.000 A 
ATOM     28  C   UNL     1       7.420   4.606  12.245  0.00  0.00    +0.000 A 
ATOM     29  N   UNL     1       6.432   4.124  13.064  0.00  0.00    +0.000 N 
ATOM     30  C   UNL     1       5.460   3.141  12.654  0.00  0.00    +0.000 C 
ATOM     31  H   UNL     1       4.749   4.346  15.106  0.00  0.00    +0.000 HD
ENDBRANCH  22  24
ENDBRANCH   5  22
TORSDOF 4
ENDMDL
MODEL 5
REMARK VINA RESULT:      -9.1      1.205      1.509
REMARK  Name = 
REMARK  7 active torsions:
REMARK  status: ('A' for Active; 'I' for Inactive)
REMARK    1  A    between atoms: C_1  and  C_2
REMARK    2  A    between atoms: C_6  and  C_7
REMARK    3  A    between atoms: N_13  and  C_14
REMARK    4  A    between atoms: C_18  and  C_19
REMARK    5  A    between atoms: C_19  and  C_20
REMARK    6  A    between atoms: C_19  and  N_21
REMARK    7  A    between atoms: N_26  and  C_27
REMARK                            x       y       z     vdW  Elec       q    Type
REMARK                         _______ _______ _______ _____ _____    ______ ____
ROOT
ATOM      1  C   UNL     1       0.991   8.779  20.643  0.00  0.00    +0.000 A 
ATOM      2  C   UNL     1       1.041   8.829  22.046  0.00  0.00    +0.000 A 
ATOM      3  C   UNL     1       0.365   9.804  22.773  0.00  0.00    +0.000 A 
ATOM      4  C   UNL     1      -0.374  10.766  22.099  0.00  0.00    +0.000 A 
ATOM      5  C   UNL     1      -0.396  10.801  20.694  0.00  0.00    +0.000 A 
ATOM      6  C   UNL     1       0.309   9.806  19.971  0.00  0.00    +0.000 A 
ENDROOT
BRANCH   1  15
ATOM      7  C   UNL     1       5.089   4.497  16.204  0.00  0.00    +0.000 C 
ATOM      8  C   UNL     1       4.140   4.872  17.304  0.00  0.00    +0.000 A 
ATOM      9  C   UNL     1       3.724   6.192  17.443  0.00  0.00    +0.000 A 
ATOM     10  C   UNL     1       2.866   6.492  18.487  0.00  0.00    +0.000 A 
ATOM     11  C   UNL     1       2.405   5.571  19.416  0.00  0.00    +0.000 A 
ATOM     12  C   UNL     1       2.774   4.234  19.274  0.00  0.00    +0.000 A 
ATOM     13  C   UNL     1       3.653   3.901  18.207  0.00  0.00    +0.000 A 
ATOM     14  C   UNL     1       1.573   6.288  20.447  0.00  0.00    +0.000 C 
ATOM     15  N   UNL     1       1.563   7.667  19.969  0.00  0.00    +0.000 N 
ATOM     16  C   UNL     1       2.338   7.808  18.810  0.00  0.00    +0.000 C 
ATOM     17  O   UNL     1       2.628   8.786  18.152  0.00  0.00    +0.000 OA
BRANCH  12  18
ATOM     18  C   UNL     1       2.279   3.138  20.181  0.00  0.00    +0.000 C 
ATOM     19  F   UNL     1       0.926   3.117  20.323  0.00  0.00    +0.000 F 
ATOM     20  F   UNL     1       2.628   1.900  19.733  0.00  0.00    +0.000 F 
ATOM     21  F   UNL     1       2.787   3.237  21.441  0.00  0.00    +0.000 F 
ENDBRANCH  12  18
ENDBRANCH   1  15
BRANCH   5  22
ATOM     22  C   UNL     1      -1.233  11.902  20.047  0.00  0.00    +0.000 C 
ATOM     23  C   UNL     1      -0.550  13.270  20.056  0.00  0.00    +0.000 C 
BRANCH  22  24
ATOM     24  N   UNL     1      -1.583  11.509  18.673  0.00  0.00    +0.000 N 
ATOM     25  C   UNL     1      -2.891  11.572  18.314  0.00  0.00    +0.000 A 
ATOM     26  N   UNL     1      -3.889  12.042  19.030  0.00  0.00    +0.000 NA
ATOM     27  C   UNL     1      -5.021  11.846  18.289  0.00  0.00    +0.000 A 
ATOM     28  C   UNL     1      -4.716  11.276  17.079  0.00  0.00    +0.000 A 
ATOM     29  N   UNL     1      -3.355  11.117  17.098  0.00  0.00    +0.000 N 
ATOM     30  C   UNL     1      -2.592  10.604  15.987  0.00  0.00    +0.000 C 
ATOM     31  H   UNL     1      -1.049  10.706  18.350  0.00  0.00    +0.000 HD
ENDBRANCH  22  24
ENDBRANCH   5  22
TORSDOF 4
ENDMDL
MODEL 6
REMARK VINA RESULT:      -8.8      1.430      2.081
REMARK  Name = 
REMARK  7 active torsions:
REMARK  status: ('A' for Active; 'I' for Inactive)
REMARK    1  A    between atoms: C_1  and  C_2
REMARK    2  A    between atoms: C_6  and  C_7
REMARK    3  A    between atoms: N_13  and  C_14
REMARK    4  A    between atoms: C_18  and  C_19
REMARK    5  A    between atoms: C_19  and  C_20
REMARK    6  A    between atoms: C_19  and  N_21
REMARK    7  A    between atoms: N_26  and  C_27
REMARK                            x       y       z     vdW  Elec       q    Type
REMARK                         _______ _______ _______ _____ _____    ______ ____
ROOT
ATOM      1  C   UNL     1       0.920   9.000  20.734  0.00  0.00    +0.000 A 
ATOM      2  C   UNL     1       0.673   9.033  22.116  0.00  0.00    +0.000 A 
ATOM      3  C   UNL     1      -0.005  10.088  22.719  0.00  0.00    +0.000 A 
ATOM      4  C   UNL     1      -0.443  11.149  21.940  0.00  0.00    +0.000 A 
ATOM      5  C   UNL     1      -0.157  11.197  20.565  0.00  0.00    +0.000 A 
ATOM      6  C   UNL     1       0.545  10.118  19.971  0.00  0.00    +0.000 A 
ENDROOT
BRANCH   1  15
ATOM      7  C   UNL     1       4.900   4.276  16.650  0.00  0.00    +0.000 C 
ATOM      8  C   UNL     1       3.971   4.762  17.723  0.00  0.00    +0.000 A 
ATOM      9  C   UNL     1       3.575   6.096  17.747  0.00  0.00    +0.000 A 
ATOM     10  C   UNL     1       2.735   6.501  18.770  0.00  0.00    +0.000 A 
ATOM     11  C   UNL     1       2.272   5.674  19.783  0.00  0.00    +0.000 A 
ATOM     12  C   UNL     1       2.620   4.323  19.757  0.00  0.00    +0.000 A 
ATOM     13  C   UNL     1       3.481   3.883  18.714  0.00  0.00    +0.000 A 
ATOM     14  C   UNL     1       1.464   6.493  20.755  0.00  0.00    +0.000 C 
ATOM     15  N   UNL     1       1.468   7.823  20.155  0.00  0.00    +0.000 N 
ATOM     16  C   UNL     1       2.230   7.849  18.979  0.00  0.00    +0.000 C 
ATOM     17  O   UNL     1       2.526   8.759  18.234  0.00  0.00    +0.000 OA
BRANCH  12  18
ATOM     18  C   UNL     1       2.121   3.321  20.764  0.00  0.00    +0.000 C 
ATOM     19  F   UNL     1       2.572   2.056  20.544  0.00  0.00    +0.000 F 
ATOM     20  F   UNL     1       2.495   3.636  22.034  0.00  0.00    +0.000 F 
ATOM     21  F   UNL     1       0.761   3.237  20.783  0.00  0.00    +0.000 F 
ENDBRANCH  12  18
ENDBRANCH   1  15
BRANCH   5  22
ATOM     22  C   UNL     1      -0.677  12.409  19.796  0.00  0.00    +0.000 C 
ATOM     23  C   UNL     1       0.411  13.146  19.015  0.00  0.00    +0.000 C 
BRANCH  22  24
ATOM     24  N   UNL     1      -1.764  11.991  18.897  0.00  0.00    +0.000 N 
ATOM     25  C   UNL     1      -3.040  12.190  19.318  0.00  0.00    +0.000 A 
ATOM     26  N   UNL     1      -3.428  12.811  20.410  0.00  0.00    +0.000 NA
ATOM     27  C   UNL     1      -4.792  12.712  20.445  0.00  0.00    +0.000 A 
ATOM     28  C   UNL     1      -5.259  12.050  19.338  0.00  0.00    +0.000 A 
ATOM     29  N   UNL     1      -4.137  11.732  18.619  0.00  0.00    +0.000 N 
ATOM     30  C   UNL     1      -4.167  11.076  17.335  0.00  0.00    +0.000 C 
ATOM     31  H   UNL     1      -1.561  11.116  18.422  0.00  0.00    +0.000 HD
ENDBRANCH  22  24
ENDBRANCH   5  22
TORSDOF 4
ENDMDL
MODEL 7
REMARK VINA RESULT:      -8.8      4.175      8.542
REMARK  Name = 
REMARK  7 active torsions:
REMARK  status: ('A' for Active; 'I' for Inactive)
REMARK    1  A    between atoms: C_1  and  C_2
REMARK    2  A    between atoms: C_6  and  C_7
REMARK    3  A    between atoms: N_13  and  C_14
REMARK    4  A    between atoms: C_18  and  C_19
REMARK    5  A    between atoms: C_19  and  C_20
REMARK    6  A    between atoms: C_19  and  N_21
REMARK    7  A    between atoms: N_26  and  C_27
REMARK                            x       y       z     vdW  Elec       q    Type
REMARK                         _______ _______ _______ _____ _____    ______ ____
ROOT
ATOM      1  C   UNL     1       1.864   5.561  20.170  0.00  0.00    +0.000 A 
ATOM      2  C   UNL     1       0.844   4.641  20.458  0.00  0.00    +0.000 A 
ATOM      3  C   UNL     1       1.081   3.272  20.521  0.00  0.00    +0.000 A 
ATOM      4  C   UNL     1       2.361   2.792  20.282  0.00  0.00    +0.000 A 
ATOM      5  C   UNL     1       3.400   3.666  19.918  0.00  0.00    +0.000 A 
ATOM      6  C   UNL     1       3.135   5.056  19.848  0.00  0.00    +0.000 A 
ENDROOT
BRANCH   1  15
ATOM      7  C   UNL     1       0.740  12.728  18.685  0.00  0.00    +0.000 C 
ATOM      8  C   UNL     1       0.775  11.448  19.467  0.00  0.00    +0.000 A 
ATOM      9  C   UNL     1       1.350  10.310  18.909  0.00  0.00    +0.000 A 
ATOM     10  C   UNL     1       1.339   9.148  19.661  0.00  0.00    +0.000 A 
ATOM     11  C   UNL     1       0.780   9.033  20.925  0.00  0.00    +0.000 A 
ATOM     12  C   UNL     1       0.236  10.169  21.523  0.00  0.00    +0.000 A 
ATOM     13  C   UNL     1       0.237  11.376  20.770  0.00  0.00    +0.000 A 
ATOM     14  C   UNL     1       0.879   7.599  21.377  0.00  0.00    +0.000 C 
ATOM     15  N   UNL     1       1.597   6.952  20.283  0.00  0.00    +0.000 N 
ATOM     16  C   UNL     1       1.868   7.857  19.248  0.00  0.00    +0.000 C 
ATOM     17  O   UNL     1       2.382   7.701  18.160  0.00  0.00    +0.000 OA
BRANCH  12  18
ATOM     18  C   UNL     1      -0.335  10.178  22.916  0.00  0.00    +0.000 C 
ATOM     19  F   UNL     1      -1.447   9.405  23.055  0.00  0.00    +0.000 F 
ATOM     20  F   UNL     1       0.554   9.724  23.841  0.00  0.00    +0.000 F 
ATOM     21  F   UNL     1      -0.694  11.428  23.323  0.00  0.00    +0.000 F 
ENDBRANCH  12  18
ENDBRANCH   1  15
BRANCH   5  22
ATOM     22  C   UNL     1       4.770   3.039  19.670  0.00  0.00    +0.000 C 
ATOM     23  C   UNL     1       4.781   1.519  19.831  0.00  0.00    +0.000 C 
BRANCH  22  24
ATOM     24  N   UNL     1       5.249   3.421  18.332  0.00  0.00    +0.000 N 
ATOM     25  C   UNL     1       6.140   4.443  18.250  0.00  0.00    +0.000 A 
ATOM     26  N   UNL     1       6.708   5.082  19.248  0.00  0.00    +0.000 NA
ATOM     27  C   UNL     1       7.478   6.065  18.688  0.00  0.00    +0.000 A 
ATOM     28  C   UNL     1       7.411   6.012  17.319  0.00  0.00    +0.000 A 
ATOM     29  N   UNL     1       6.567   4.967  17.048  0.00  0.00    +0.000 N 
ATOM     30  C   UNL     1       6.257   4.511  15.716  0.00  0.00    +0.000 C 
ATOM     31  H   UNL     1       4.514   3.385  17.631  0.00  0.00    +0.000 HD
ENDBRANCH  22  24
ENDBRANCH   5  22
TORSDOF 4
ENDMDL
MODEL 8
REMARK VINA RESULT:      -8.7      1.655      3.332
REMARK  Name = 
REMARK  7 active torsions:
REMARK  status: ('A' for Active; 'I' for Inactive)
REMARK    1  A    between atoms: C_1  and  C_2
REMARK    2  A    between atoms: C_6  and  C_7
REMARK    3  A    between atoms: N_13  and  C_14
REMARK    4  A    between atoms: C_18  and  C_19
REMARK    5  A    between atoms: C_19  and  C_20
REMARK    6  A    between atoms: C_19  and  N_21
REMARK    7  A    between atoms: N_26  and  C_27
REMARK                            x       y       z     vdW  Elec       q    Type
REMARK                         _______ _______ _______ _____ _____    ______ ____
ROOT
ATOM      1  C   UNL     1       1.784   7.963  19.669  0.00  0.00    +0.000 A 
ATOM      2  C   UNL     1       1.514   7.762  21.032  0.00  0.00    +0.000 A 
ATOM      3  C   UNL     1       0.776   8.674  21.780  0.00  0.00    +0.000 A 
ATOM      4  C   UNL     1       0.299   9.825  21.171  0.00  0.00    +0.000 A 
ATOM      5  C   UNL     1       0.604  10.107  19.828  0.00  0.00    +0.000 A 
ATOM      6  C   UNL     1       1.366   9.171  19.086  0.00  0.00    +0.000 A 
ENDROOT
BRANCH   1  15
ATOM      7  C   UNL     1       6.271   4.090  15.230  0.00  0.00    +0.000 C 
ATOM      8  C   UNL     1       5.198   4.367  16.241  0.00  0.00    +0.000 A 
ATOM      9  C   UNL     1       4.820   5.679  16.511  0.00  0.00    +0.000 A 
ATOM     10  C   UNL     1       3.841   5.883  17.468  0.00  0.00    +0.000 A 
ATOM     11  C   UNL     1       3.222   4.874  18.190  0.00  0.00    +0.000 A 
ATOM     12  C   UNL     1       3.553   3.549  17.908  0.00  0.00    +0.000 A 
ATOM     13  C   UNL     1       4.555   3.313  16.927  0.00  0.00    +0.000 A 
ATOM     14  C   UNL     1       2.288   5.492  19.197  0.00  0.00    +0.000 C 
ATOM     15  N   UNL     1       2.398   6.921  18.922  0.00  0.00    +0.000 N 
ATOM     16  C   UNL     1       3.327   7.173  17.904  0.00  0.00    +0.000 C 
ATOM     17  O   UNL     1       3.742   8.212  17.434  0.00  0.00    +0.000 OA
BRANCH  12  18
ATOM     18  C   UNL     1       2.897   2.371  18.579  0.00  0.00    +0.000 C 
ATOM     19  F   UNL     1       3.418   1.171  18.206  0.00  0.00    +0.000 F 
ATOM     20  F   UNL     1       3.008   2.422  19.935  0.00  0.00    +0.000 F 
ATOM     21  F   UNL     1       1.562   2.300  18.315  0.00  0.00    +0.000 F 
ENDBRANCH  12  18
ENDBRANCH   1  15
BRANCH   5  22
ATOM     22  C   UNL     1       0.036  11.402  19.251  0.00  0.00    +0.000 C 
ATOM     23  C   UNL     1      -1.491  11.419  19.184  0.00  0.00    +0.000 C 
BRANCH  22  24
ATOM     24  N   UNL     1       0.533  12.546  20.031  0.00  0.00    +0.000 N 
ATOM     25  C   UNL     1       1.611  13.216  19.549  0.00  0.00    +0.000 A 
ATOM     26  N   UNL     1       2.218  13.021  18.400  0.00  0.00    +0.000 NA
ATOM     27  C   UNL     1       3.281  13.882  18.375  0.00  0.00    +0.000 A 
ATOM     28  C   UNL     1       3.312  14.647  19.513  0.00  0.00    +0.000 A 
ATOM     29  N   UNL     1       2.237  14.225  20.250  0.00  0.00    +0.000 N 
ATOM     30  C   UNL     1       1.850  14.810  21.510  0.00  0.00    +0.000 C 
ATOM     31  H   UNL     1       0.497  12.378  21.033  0.00  0.00    +0.000 HD
ENDBRANCH  22  24
ENDBRANCH   5  22
TORSDOF 4
ENDMDL
MODEL 9
REMARK VINA RESULT:      -8.6      3.218      4.381
REMARK  Name = 
REMARK  7 active torsions:
REMARK  status: ('A' for Active; 'I' for Inactive)
REMARK    1  A    between atoms: C_1  and  C_2
REMARK    2  A    between atoms: C_6  and  C_7
REMARK    3  A    between atoms: N_13  and  C_14
REMARK    4  A    between atoms: C_18  and  C_19
REMARK    5  A    between atoms: C_19  and  C_20
REMARK    6  A    between atoms: C_19  and  N_21
REMARK    7  A    between atoms: N_26  and  C_27
REMARK                            x       y       z     vdW  Elec       q    Type
REMARK                         _______ _______ _______ _____ _____    ______ ____
ROOT
ATOM      1  C   UNL     1       1.527   8.816  19.337  0.00  0.00    +0.000 A 
ATOM      2  C   UNL     1       1.557   9.929  18.481  0.00  0.00    +0.000 A 
ATOM      3  C   UNL     1       0.959  11.138  18.822  0.00  0.00    +0.000 A 
ATOM      4  C   UNL     1       0.301  11.252  20.038  0.00  0.00    +0.000 A 
ATOM      5  C   UNL     1       0.181  10.146  20.897  0.00  0.00    +0.000 A 
ATOM      6  C   UNL     1       0.787   8.921  20.526  0.00  0.00    +0.000 A 
ENDROOT
BRANCH   1  15
ATOM      7  C   UNL     1       4.106   1.892  18.842  0.00  0.00    +0.000 C 
ATOM      8  C   UNL     1       3.948   3.354  18.541  0.00  0.00    +0.000 A 
ATOM      9  C   UNL     1       3.130   4.144  19.343  0.00  0.00    +0.000 A 
ATOM     10  C   UNL     1       2.999   5.481  19.011  0.00  0.00    +0.000 A 
ATOM     11  C   UNL     1       3.612   6.086  17.924  0.00  0.00    +0.000 A 
ATOM     12  C   UNL     1       4.470   5.326  17.130  0.00  0.00    +0.000 A 
ATOM     13  C   UNL     1       4.622   3.949  17.452  0.00  0.00    +0.000 A 
ATOM     14  C   UNL     1       3.157   7.519  17.839  0.00  0.00    +0.000 C 
ATOM     15  N   UNL     1       2.295   7.667  19.007  0.00  0.00    +0.000 N 
ATOM     16  C   UNL     1       2.180   6.460  19.710  0.00  0.00    +0.000 C 
ATOM     17  O   UNL     1       1.521   6.155  20.682  0.00  0.00    +0.000 OA
BRANCH  12  18
ATOM     18  C   UNL     1       5.241   5.893  15.967  0.00  0.00    +0.000 C 
ATOM     19  F   UNL     1       6.540   6.174  16.260  0.00  0.00    +0.000 F 
ATOM     20  F   UNL     1       5.272   5.043  14.904  0.00  0.00    +0.000 F 
ATOM     21  F   UNL     1       4.701   7.054  15.502  0.00  0.00    +0.000 F 
ENDBRANCH  12  18
ENDBRANCH   1  15
BRANCH   5  22
ATOM     22  C   UNL     1      -0.567  10.372  22.209  0.00  0.00    +0.000 C 
ATOM     23  C   UNL     1      -0.016   9.547  23.372  0.00  0.00    +0.000 C 
BRANCH  22  24
ATOM     24  N   UNL     1      -0.554  11.806  22.541  0.00  0.00    +0.000 N 
ATOM     25  C   UNL     1      -1.686  12.340  23.068  0.00  0.00    +0.000 A 
ATOM     26  N   UNL     1      -2.780  11.698  23.412  0.00  0.00    +0.000 NA
ATOM     27  C   UNL     1      -3.668  12.650  23.834  0.00  0.00    +0.000 A 
ATOM     28  C   UNL     1      -3.101  13.898  23.783  0.00  0.00    +0.000 A 
ATOM     29  N   UNL     1      -1.833  13.690  23.306  0.00  0.00    +0.000 N 
ATOM     30  C   UNL     1      -0.853  14.736  23.150  0.00  0.00    +0.000 C 
ATOM     31  H   UNL     1      -0.053  12.360  21.852  0.00  0.00    +0.000 HD
ENDBRANCH  22  24
ENDBRANCH   5  22
TORSDOF 4
ENDMDL
