MODEL 1
REMARK VINA RESULT:      -8.9      0.000      0.000
REMARK  Name = 
REMARK  6 active torsions:
REMARK  status: ('A' for Active; 'I' for Inactive)
REMARK    1  A    between atoms: C_2  and  C_3
REMARK    2  A    between atoms: C_3  and  C_4
REMARK    3  A    between atoms: C_4  and  C_5
REMARK    4  A    between atoms: C_8  and  C_9
REMARK    5  A    between atoms: N_18  and  C_19
REMARK    6  A    between atoms: C_19  and  C_20
REMARK                            x       y       z     vdW  Elec       q    Type
REMARK                         _______ _______ _______ _____ _____    ______ ____
ROOT
ATOM      1  C   UNL     1       8.157   7.522  18.269  0.00  0.00    +0.000 C 
ENDROOT
BRANCH   1   3
ATOM      2  O   UNL     1       7.750   5.268  17.502  0.00  0.00    +0.000 OA
ATOM      3  C   UNL     1       7.414   6.445  17.504  0.00  0.00    +0.000 C 
ATOM      4  N   UNL     1       6.324   6.926  16.815  0.00  0.00    +0.000 N 
ATOM      5  H   UNL     1       6.119   7.916  16.831  0.00  0.00    +0.000 HD
BRANCH   4   6
ATOM      6  C   UNL     1       5.461   6.072  16.027  0.00  0.00    +0.000 C 
BRANCH   6   7
ATOM      7  C   UNL     1       4.357   5.497  16.880  0.00  0.00    +0.000 A 
ATOM      8  C   UNL     1       3.634   6.339  17.756  0.00  0.00    +0.000 A 
ATOM      9  C   UNL     1       2.632   5.826  18.587  0.00  0.00    +0.000 A 
ATOM     10  C   UNL     1       2.387   4.471  18.534  0.00  0.00    +0.000 A 
ATOM     11  C   UNL     1       3.084   3.644  17.686  0.00  0.00    +0.000 A 
ATOM     12  C   UNL     1       4.069   4.122  16.846  0.00  0.00    +0.000 A 
ATOM     13  O   UNL     1       2.695   2.344  17.794  0.00  0.00    +0.000 OA
ATOM     14  C   UNL     1       1.715   2.443  18.849  0.00  0.00    +0.000 C 
ATOM     15  O   UNL     1       1.473   3.798  19.283  0.00  0.00    +0.000 OA
ENDBRANCH   6   7
ENDBRANCH   4   6
ENDBRANCH   1   3
BRANCH   1  16
ATOM     16  C   UNL     1       7.850   8.907  17.710  0.00  0.00    +0.000 C 
BRANCH  16  17
ATOM     17  C   UNL     1       8.646   9.957  18.392  0.00  0.00    +0.000 A 
ATOM     18  N   UNL     1       9.306   9.879  19.528  0.00  0.00    +0.000 NA
ATOM     19  C   UNL     1       9.906  11.108  19.642  0.00  0.00    +0.000 A 
ATOM     20  C   UNL     1       9.574  11.910  18.571  0.00  0.00    +0.000 A 
ATOM     21  O   UNL     1       8.744  11.170  17.762  0.00  0.00    +0.000 OA
BRANCH  20  22
ATOM     22  C   UNL     1       9.915  13.257  18.131  0.00  0.00    +0.000 A 
ATOM     23  C   UNL     1       9.050  14.340  18.360  0.00  0.00    +0.000 A 
ATOM     24  C   UNL     1       9.371  15.623  17.899  0.00  0.00    +0.000 A 
ATOM     25  C   UNL     1      10.558  15.828  17.210  0.00  0.00    +0.000 A 
ATOM     26  F   UNL     1      10.855  17.055  16.757  0.00  0.00    +0.000 F 
ATOM     27  C   UNL     1      11.440  14.785  16.982  0.00  0.00    +0.000 A 
ATOM     28  C   UNL     1      11.114  13.511  17.443  0.00  0.00    +0.000 A 
ATOM     29  F   UNL     1      11.984  12.520  17.203  0.00  0.00    +0.000 F 
ENDBRANCH  20  22
ENDBRANCH  16  17
ENDBRANCH   1  16
TORSDOF 6
ENDMDL
MODEL 2
REMARK VINA RESULT:      -8.9      5.454      8.168
REMARK  Name = 
REMARK  6 active torsions:
REMARK  status: ('A' for Active; 'I' for Inactive)
REMARK    1  A    between atoms: C_2  and  C_3
REMARK    2  A    between atoms: C_3  and  C_4
REMARK    3  A    between atoms: C_4  and  C_5
REMARK    4  A    between atoms: C_8  and  C_9
REMARK    5  A    between atoms: N_18  and  C_19
REMARK    6  A    between atoms: C_19  and  C_20
REMARK                            x       y       z     vdW  Elec       q    Type
REMARK                         _______ _______ _______ _____ _____    ______ ____
ROOT
ATOM      1  C   UNL     1       1.074   2.423  19.910  0.00  0.00    +0.000 C 
ENDROOT
BRANCH   1   3
ATOM      2  O   UNL     1       2.058   3.276  21.945  0.00  0.00    +0.000 OA
ATOM      3  C   UNL     1       1.633   3.500  20.818  0.00  0.00    +0.000 C 
ATOM      4  N   UNL     1       1.615   4.752  20.247  0.00  0.00    +0.000 N 
ATOM      5  H   UNL     1       1.220   4.874  19.324  0.00  0.00    +0.000 HD
BRANCH   4   6
ATOM      6  C   UNL     1       2.114   5.927  20.928  0.00  0.00    +0.000 C 
BRANCH   6   7
ATOM      7  C   UNL     1       1.972   7.150  20.057  0.00  0.00    +0.000 A 
ATOM      8  C   UNL     1       2.513   7.148  18.749  0.00  0.00    +0.000 A 
ATOM      9  C   UNL     1       2.430   8.283  17.934  0.00  0.00    +0.000 A 
ATOM     10  C   UNL     1       1.820   9.403  18.454  0.00  0.00    +0.000 A 
ATOM     11  C   UNL     1       1.292   9.415  19.723  0.00  0.00    +0.000 A 
ATOM     12  C   UNL     1       1.347   8.309  20.546  0.00  0.00    +0.000 A 
ATOM     13  O   UNL     1       0.743  10.618  20.045  0.00  0.00    +0.000 OA
ATOM     14  C   UNL     1       1.040  11.377  18.853  0.00  0.00    +0.000 C 
ATOM     15  O   UNL     1       1.672  10.595  17.817  0.00  0.00    +0.000 OA
ENDBRANCH   6   7
ENDBRANCH   4   6
ENDBRANCH   1   3
BRANCH   1  16
ATOM     16  C   UNL     1       2.179   1.764  19.092  0.00  0.00    +0.000 C 
BRANCH  16  17
ATOM     17  C   UNL     1       2.852   2.741  18.200  0.00  0.00    +0.000 A 
ATOM     18  N   UNL     1       2.500   3.127  16.992  0.00  0.00    +0.000 NA
ATOM     19  C   UNL     1       3.432   4.082  16.671  0.00  0.00    +0.000 A 
ATOM     20  C   UNL     1       4.342   4.235  17.696  0.00  0.00    +0.000 A 
ATOM     21  O   UNL     1       3.976   3.355  18.686  0.00  0.00    +0.000 OA
BRANCH  20  22
ATOM     22  C   UNL     1       5.498   5.086  17.946  0.00  0.00    +0.000 A 
ATOM     23  C   UNL     1       6.304   4.906  19.083  0.00  0.00    +0.000 A 
ATOM     24  C   UNL     1       7.389   5.755  19.333  0.00  0.00    +0.000 A 
ATOM     25  C   UNL     1       7.675   6.784  18.446  0.00  0.00    +0.000 A 
ATOM     26  F   UNL     1       8.706   7.603  18.696  0.00  0.00    +0.000 F 
ATOM     27  C   UNL     1       6.911   6.978  17.308  0.00  0.00    +0.000 A 
ATOM     28  C   UNL     1       5.832   6.129  17.066  0.00  0.00    +0.000 A 
ATOM     29  F   UNL     1       5.106   6.344  15.959  0.00  0.00    +0.000 F 
ENDBRANCH  20  22
ENDBRANCH  16  17
ENDBRANCH   1  16
TORSDOF 6
ENDMDL
MODEL 3
REMARK VINA RESULT:      -8.7      4.369     10.925
REMARK  Name = 
REMARK  6 active torsions:
REMARK  status: ('A' for Active; 'I' for Inactive)
REMARK    1  A    between atoms: C_2  and  C_3
REMARK    2  A    between atoms: C_3  and  C_4
REMARK    3  A    between atoms: C_4  and  C_5
REMARK    4  A    between atoms: C_8  and  C_9
REMARK    5  A    between atoms: N_18  and  C_19
REMARK    6  A    between atoms: C_19  and  C_20
REMARK                            x       y       z     vdW  Elec       q    Type
REMARK                         _______ _______ _______ _____ _____    ______ ____
ROOT
ATOM      1  C   UNL     1       7.139   6.886  17.034  0.00  0.00    +0.000 C 
ENDROOT
BRANCH   1   3
ATOM      2  O   UNL     1       8.305   6.712  19.142  0.00  0.00    +0.000 OA
ATOM      3  C   UNL     1       7.954   7.410  18.199  0.00  0.00    +0.000 C 
ATOM      4  N   UNL     1       8.259   8.746  18.088  0.00  0.00    +0.000 N 
ATOM      5  H   UNL     1       7.910   9.275  17.299  0.00  0.00    +0.000 HD
BRANCH   4   6
ATOM      6  C   UNL     1       9.042   9.453  19.079  0.00  0.00    +0.000 C 
BRANCH   6   7
ATOM      7  C   UNL     1       9.441  10.816  18.572  0.00  0.00    +0.000 A 
ATOM      8  C   UNL     1       8.480  11.642  17.942  0.00  0.00    +0.000 A 
ATOM      9  C   UNL     1       8.831  12.894  17.427  0.00  0.00    +0.000 A 
ATOM     10  C   UNL     1      10.146  13.287  17.540  0.00  0.00    +0.000 A 
ATOM     11  C   UNL     1      11.088  12.494  18.150  0.00  0.00    +0.000 A 
ATOM     12  C   UNL     1      10.770  11.259  18.679  0.00  0.00    +0.000 A 
ATOM     13  O   UNL     1      12.324  13.062  18.150  0.00  0.00    +0.000 OA
ATOM     14  C   UNL     1      12.061  14.278  17.418  0.00  0.00    +0.000 C 
ATOM     15  O   UNL     1      10.670  14.454  17.078  0.00  0.00    +0.000 OA
ENDBRANCH   6   7
ENDBRANCH   4   6
ENDBRANCH   1   3
BRANCH   1  16
ATOM     16  C   UNL     1       7.178   5.363  16.974  0.00  0.00    +0.000 C 
BRANCH  16  17
ATOM     17  C   UNL     1       5.813   4.782  16.994  0.00  0.00    +0.000 A 
ATOM     18  N   UNL     1       5.079   4.377  15.978  0.00  0.00    +0.000 NA
ATOM     19  C   UNL     1       3.949   3.874  16.573  0.00  0.00    +0.000 A 
ATOM     20  C   UNL     1       4.023   4.008  17.943  0.00  0.00    +0.000 A 
ATOM     21  O   UNL     1       5.227   4.610  18.220  0.00  0.00    +0.000 OA
BRANCH  20  22
ATOM     22  C   UNL     1       3.177   3.646  19.074  0.00  0.00    +0.000 A 
ATOM     23  C   UNL     1       1.884   4.177  19.218  0.00  0.00    +0.000 A 
ATOM     24  C   UNL     1       1.096   3.852  20.328  0.00  0.00    +0.000 A 
ATOM     25  C   UNL     1       1.595   2.991  21.297  0.00  0.00    +0.000 A 
ATOM     26  F   UNL     1       0.843   2.693  22.365  0.00  0.00    +0.000 F 
ATOM     27  C   UNL     1       2.858   2.437  21.176  0.00  0.00    +0.000 A 
ATOM     28  C   UNL     1       3.637   2.766  20.069  0.00  0.00    +0.000 A 
ATOM     29  F   UNL     1       4.858   2.219  19.981  0.00  0.00    +0.000 F 
ENDBRANCH  20  22
ENDBRANCH  16  17
ENDBRANCH   1  16
TORSDOF 6
ENDMDL
MODEL 4
REMARK VINA RESULT:      -8.7      0.623      1.319
REMARK  Name = 
REMARK  6 active torsions:
REMARK  status: ('A' for Active; 'I' for Inactive)
REMARK    1  A    between atoms: C_2  and  C_3
REMARK    2  A    between atoms: C_3  and  C_4
REMARK    3  A    between atoms: C_4  and  C_5
REMARK    4  A    between atoms: C_8  and  C_9
REMARK    5  A    between atoms: N_18  and  C_19
REMARK    6  A    between atoms: C_19  and  C_20
REMARK                            x       y       z     vdW  Elec       q    Type
REMARK                         _______ _______ _______ _____ _____    ______ ____
ROOT
ATOM      1  C   UNL     1       8.104   7.593  18.277  0.00  0.00    +0.000 C 
ENDROOT
BRANCH   1   3
ATOM      2  O   UNL     1       7.742   5.352  17.452  0.00  0.00    +0.000 OA
ATOM      3  C   UNL     1       7.357   6.512  17.522  0.00  0.00    +0.000 C 
ATOM      4  N   UNL     1       6.203   6.967  16.927  0.00  0.00    +0.000 N 
ATOM      5  H   UNL     1       5.958   7.946  16.996  0.00  0.00    +0.000 HD
BRANCH   4   6
ATOM      6  C   UNL     1       5.325   6.104  16.167  0.00  0.00    +0.000 C 
BRANCH   6   7
ATOM      7  C   UNL     1       4.386   5.358  17.082  0.00  0.00    +0.000 A 
ATOM      8  C   UNL     1       4.098   3.995  16.836  0.00  0.00    +0.000 A 
ATOM      9  C   UNL     1       3.200   3.290  17.646  0.00  0.00    +0.000 A 
ATOM     10  C   UNL     1       2.595   3.973  18.677  0.00  0.00    +0.000 A 
ATOM     11  C   UNL     1       2.867   5.298  18.925  0.00  0.00    +0.000 A 
ATOM     12  C   UNL     1       3.757   6.016  18.153  0.00  0.00    +0.000 A 
ATOM     13  O   UNL     1       2.161   5.784  19.981  0.00  0.00    +0.000 OA
ATOM     14  C   UNL     1       1.370   4.628  20.331  0.00  0.00    +0.000 C 
ATOM     15  O   UNL     1       1.683   3.459  19.545  0.00  0.00    +0.000 OA
ENDBRANCH   6   7
ENDBRANCH   4   6
ENDBRANCH   1   3
BRANCH   1  16
ATOM     16  C   UNL     1       7.932   8.952  17.609  0.00  0.00    +0.000 C 
BRANCH  16  17
ATOM     17  C   UNL     1       8.680  10.012  18.329  0.00  0.00    +0.000 A 
ATOM     18  N   UNL     1       9.281   9.941  19.499  0.00  0.00    +0.000 NA
ATOM     19  C   UNL     1       9.862  11.177  19.642  0.00  0.00    +0.000 A 
ATOM     20  C   UNL     1       9.577  11.974  18.553  0.00  0.00    +0.000 A 
ATOM     21  O   UNL     1       8.798  11.225  17.704  0.00  0.00    +0.000 OA
BRANCH  20  22
ATOM     22  C   UNL     1       9.926  13.324  18.129  0.00  0.00    +0.000 A 
ATOM     23  C   UNL     1       9.074  14.412  18.381  0.00  0.00    +0.000 A 
ATOM     24  C   UNL     1       9.402  15.698  17.936  0.00  0.00    +0.000 A 
ATOM     25  C   UNL     1      10.586  15.903  17.239  0.00  0.00    +0.000 A 
ATOM     26  F   UNL     1      10.890  17.132  16.801  0.00  0.00    +0.000 F 
ATOM     27  C   UNL     1      11.456  14.854  16.988  0.00  0.00    +0.000 A 
ATOM     28  C   UNL     1      11.122  13.577  17.435  0.00  0.00    +0.000 A 
ATOM     29  F   UNL     1      11.981  12.582  17.173  0.00  0.00    +0.000 F 
ENDBRANCH  20  22
ENDBRANCH  16  17
ENDBRANCH   1  16
TORSDOF 6
ENDMDL
MODEL 5
REMARK VINA RESULT:      -8.7      4.112     10.805
REMARK  Name = 
REMARK  6 active torsions:
REMARK  status: ('A' for Active; 'I' for Inactive)
REMARK    1  A    between atoms: C_2  and  C_3
REMARK    2  A    between atoms: C_3  and  C_4
REMARK    3  A    between atoms: C_4  and  C_5
REMARK    4  A    between atoms: C_8  and  C_9
REMARK    5  A    between atoms: N_18  and  C_19
REMARK    6  A    between atoms: C_19  and  C_20
REMARK                            x       y       z     vdW  Elec       q    Type
REMARK                         _______ _______ _______ _____ _____    ______ ____
ROOT
ATOM      1  C   UNL     1       7.871   6.239  18.808  0.00  0.00    +0.000 C 
ENDROOT
BRANCH   1   3
ATOM      2  O   UNL     1       6.926   7.504  16.979  0.00  0.00    +0.000 OA
ATOM      3  C   UNL     1       7.687   7.466  17.938  0.00  0.00    +0.000 C 
ATOM      4  N   UNL     1       8.459   8.532  18.336  0.00  0.00    +0.000 N 
ATOM      5  H   UNL     1       9.093   8.426  19.118  0.00  0.00    +0.000 HD
BRANCH   4   6
ATOM      6  C   UNL     1       8.433   9.812  17.659  0.00  0.00    +0.000 C 
BRANCH   6   7
ATOM      7  C   UNL     1       9.185  10.851  18.453  0.00  0.00    +0.000 A 
ATOM      8  C   UNL     1       9.402  10.659  19.837  0.00  0.00    +0.000 A 
ATOM      9  C   UNL     1      10.062  11.625  20.605  0.00  0.00    +0.000 A 
ATOM     10  C   UNL     1      10.476  12.774  19.970  0.00  0.00    +0.000 A 
ATOM     11  C   UNL     1      10.270  12.972  18.625  0.00  0.00    +0.000 A 
ATOM     12  C   UNL     1       9.635  12.032  17.839  0.00  0.00    +0.000 A 
ATOM     13  O   UNL     1      10.748  14.172  18.198  0.00  0.00    +0.000 OA
ATOM     14  C   UNL     1      11.224  14.730  19.441  0.00  0.00    +0.000 C 
ATOM     15  O   UNL     1      11.107  13.825  20.559  0.00  0.00    +0.000 OA
ENDBRANCH   6   7
ENDBRANCH   4   6
ENDBRANCH   1   3
BRANCH   1  16
ATOM     16  C   UNL     1       8.160   5.003  17.963  0.00  0.00    +0.000 C 
BRANCH  16  17
ATOM     17  C   UNL     1       6.943   4.527  17.260  0.00  0.00    +0.000 A 
ATOM     18  N   UNL     1       6.789   4.252  15.982  0.00  0.00    +0.000 NA
ATOM     19  C   UNL     1       5.497   3.795  15.900  0.00  0.00    +0.000 A 
ATOM     20  C   UNL     1       4.894   3.825  17.140  0.00  0.00    +0.000 A 
ATOM     21  O   UNL     1       5.826   4.313  18.024  0.00  0.00    +0.000 OA
BRANCH  20  22
ATOM     22  C   UNL     1       3.592   3.448  17.677  0.00  0.00    +0.000 A 
ATOM     23  C   UNL     1       3.302   2.118  18.021  0.00  0.00    +0.000 A 
ATOM     24  C   UNL     1       2.036   1.762  18.499  0.00  0.00    +0.000 A 
ATOM     25  C   UNL     1       1.055   2.734  18.638  0.00  0.00    +0.000 A 
ATOM     26  F   UNL     1      -0.161   2.388  19.083  0.00  0.00    +0.000 F 
ATOM     27  C   UNL     1       1.314   4.058  18.323  0.00  0.00    +0.000 A 
ATOM     28  C   UNL     1       2.577   4.405  17.847  0.00  0.00    +0.000 A 
ATOM     29  F   UNL     1       2.797   5.693  17.545  0.00  0.00    +0.000 F 
ENDBRANCH  20  22
ENDBRANCH  16  17
ENDBRANCH   1  16
TORSDOF 6
ENDMDL
MODEL 6
REMARK VINA RESULT:      -8.7      6.270      9.495
REMARK  Name = 
REMARK  6 active torsions:
REMARK  status: ('A' for Active; 'I' for Inactive)
REMARK    1  A    between atoms: C_2  and  C_3
REMARK    2  A    between atoms: C_3  and  C_4
REMARK    3  A    between atoms: C_4  and  C_5
REMARK    4  A    between atoms: C_8  and  C_9
REMARK    5  A    between atoms: N_18  and  C_19
REMARK    6  A    between atoms: C_19  and  C_20
REMARK                            x       y       z     vdW  Elec       q    Type
REMARK                         _______ _______ _______ _____ _____    ______ ____
ROOT
ATOM      1  C   UNL     1       6.757   6.785  17.153  0.00  0.00    +0.000 C 
ENDROOT
BRANCH   1   3
ATOM      2  O   UNL     1       5.114   7.004  15.396  0.00  0.00    +0.000 OA
ATOM      3  C   UNL     1       5.369   7.020  16.594  0.00  0.00    +0.000 C 
ATOM      4  N   UNL     1       4.425   7.250  17.568  0.00  0.00    +0.000 N 
ATOM      5  H   UNL     1       4.706   7.282  18.539  0.00  0.00    +0.000 HD
BRANCH   4   6
ATOM      6  C   UNL     1       3.029   7.484  17.263  0.00  0.00    +0.000 C 
BRANCH   6   7
ATOM      7  C   UNL     1       2.301   8.017  18.471  0.00  0.00    +0.000 A 
ATOM      8  C   UNL     1       2.284   7.266  19.670  0.00  0.00    +0.000 A 
ATOM      9  C   UNL     1       1.583   7.718  20.794  0.00  0.00    +0.000 A 
ATOM     10  C   UNL     1       0.898   8.908  20.686  0.00  0.00    +0.000 A 
ATOM     11  C   UNL     1       0.908   9.646  19.526  0.00  0.00    +0.000 A 
ATOM     12  C   UNL     1       1.600   9.233  18.406  0.00  0.00    +0.000 A 
ATOM     13  O   UNL     1       0.166  10.782  19.627  0.00  0.00    +0.000 OA
ATOM     14  C   UNL     1      -0.360  10.642  20.965  0.00  0.00    +0.000 C 
ATOM     15  O   UNL     1       0.147   9.485  21.663  0.00  0.00    +0.000 OA
ENDBRANCH   6   7
ENDBRANCH   4   6
ENDBRANCH   1   3
BRANCH   1  16
ATOM     16  C   UNL     1       7.086   5.297  17.206  0.00  0.00    +0.000 C 
BRANCH  16  17
ATOM     17  C   UNL     1       5.856   4.470  17.264  0.00  0.00    +0.000 A 
ATOM     18  N   UNL     1       5.341   3.698  16.330  0.00  0.00    +0.000 NA
ATOM     19  C   UNL     1       4.253   3.127  16.941  0.00  0.00    +0.000 A 
ATOM     20  C   UNL     1       4.128   3.588  18.235  0.00  0.00    +0.000 A 
ATOM     21  O   UNL     1       5.160   4.471  18.444  0.00  0.00    +0.000 OA
BRANCH  20  22
ATOM     22  C   UNL     1       3.225   3.333  19.351  0.00  0.00    +0.000 A 
ATOM     23  C   UNL     1       3.663   2.660  20.504  0.00  0.00    +0.000 A 
ATOM     24  C   UNL     1       2.776   2.388  21.553  0.00  0.00    +0.000 A 
ATOM     25  C   UNL     1       1.451   2.789  21.455  0.00  0.00    +0.000 A 
ATOM     26  F   UNL     1       0.602   2.513  22.455  0.00  0.00    +0.000 F 
ATOM     27  C   UNL     1       0.992   3.468  20.338  0.00  0.00    +0.000 A 
ATOM     28  C   UNL     1       1.880   3.735  19.298  0.00  0.00    +0.000 A 
ATOM     29  F   UNL     1       1.406   4.390  18.228  0.00  0.00    +0.000 F 
ENDBRANCH  20  22
ENDBRANCH  16  17
ENDBRANCH   1  16
TORSDOF 6
ENDMDL
MODEL 7
REMARK VINA RESULT:      -8.6      1.487      1.992
REMARK  Name = 
REMARK  6 active torsions:
REMARK  status: ('A' for Active; 'I' for Inactive)
REMARK    1  A    between atoms: C_2  and  C_3
REMARK    2  A    between atoms: C_3  and  C_4
REMARK    3  A    between atoms: C_4  and  C_5
REMARK    4  A    between atoms: C_8  and  C_9
REMARK    5  A    between atoms: N_18  and  C_19
REMARK    6  A    between atoms: C_19  and  C_20
REMARK                            x       y       z     vdW  Elec       q    Type
REMARK                         _______ _______ _______ _____ _____    ______ ____
ROOT
ATOM      1  C   UNL     1       8.121   7.620  18.334  0.00  0.00    +0.000 C 
ENDROOT
BRANCH   1   3
ATOM      2  O   UNL     1       7.545   6.535  16.254  0.00  0.00    +0.000 OA
ATOM      3  C   UNL     1       7.537   6.514  17.479  0.00  0.00    +0.000 C 
ATOM      4  N   UNL     1       7.001   5.484  18.217  0.00  0.00    +0.000 N 
ATOM      5  H   UNL     1       6.998   5.543  19.227  0.00  0.00    +0.000 HD
BRANCH   4   6
ATOM      6  C   UNL     1       6.403   4.316  17.608  0.00  0.00    +0.000 C 
BRANCH   6   7
ATOM      7  C   UNL     1       4.962   4.173  18.029  0.00  0.00    +0.000 A 
ATOM      8  C   UNL     1       3.994   3.741  17.091  0.00  0.00    +0.000 A 
ATOM      9  C   UNL     1       2.644   3.638  17.443  0.00  0.00    +0.000 A 
ATOM     10  C   UNL     1       2.289   3.987  18.727  0.00  0.00    +0.000 A 
ATOM     11  C   UNL     1       3.220   4.407  19.646  0.00  0.00    +0.000 A 
ATOM     12  C   UNL     1       4.560   4.507  19.333  0.00  0.00    +0.000 A 
ATOM     13  O   UNL     1       2.662   4.709  20.850  0.00  0.00    +0.000 OA
ATOM     14  C   UNL     1       1.265   4.486  20.563  0.00  0.00    +0.000 C 
ATOM     15  O   UNL     1       1.027   3.972  19.235  0.00  0.00    +0.000 OA
ENDBRANCH   6   7
ENDBRANCH   4   6
ENDBRANCH   1   3
BRANCH   1  16
ATOM     16  C   UNL     1       7.842   8.991  17.728  0.00  0.00    +0.000 C 
BRANCH  16  17
ATOM     17  C   UNL     1       8.654  10.049  18.379  0.00  0.00    +0.000 A 
ATOM     18  N   UNL     1       9.353   9.978  19.492  0.00  0.00    +0.000 NA
ATOM     19  C   UNL     1       9.949  11.212  19.581  0.00  0.00    +0.000 A 
ATOM     20  C   UNL     1       9.574  12.008  18.519  0.00  0.00    +0.000 A 
ATOM     21  O   UNL     1       8.722  11.261  17.743  0.00  0.00    +0.000 OA
BRANCH  20  22
ATOM     22  C   UNL     1       9.890  13.356  18.064  0.00  0.00    +0.000 A 
ATOM     23  C   UNL     1      11.013  13.609  17.258  0.00  0.00    +0.000 A 
ATOM     24  C   UNL     1      11.328  14.913  16.858  0.00  0.00    +0.000 A 
ATOM     25  C   UNL     1      10.520  15.970  17.260  0.00  0.00    +0.000 A 
ATOM     26  F   UNL     1      10.833  17.219  16.887  0.00  0.00    +0.000 F 
ATOM     27  C   UNL     1       9.398  15.752  18.041  0.00  0.00    +0.000 A 
ATOM     28  C   UNL     1       9.091  14.451  18.435  0.00  0.00    +0.000 A 
ATOM     29  F   UNL     1       8.001  14.271  19.195  0.00  0.00    +0.000 F 
ENDBRANCH  20  22
ENDBRANCH  16  17
ENDBRANCH   1  16
TORSDOF 6
ENDMDL
MODEL 8
REMARK VINA RESULT:      -8.5      5.649      8.586
REMARK  Name = 
REMARK  6 active torsions:
REMARK  status: ('A' for Active; 'I' for Inactive)
REMARK    1  A    between atoms: C_2  and  C_3
REMARK    2  A    between atoms: C_3  and  C_4
REMARK    3  A    between atoms: C_4  and  C_5
REMARK    4  A    between atoms: C_8  and  C_9
REMARK    5  A    between atoms: N_18  and  C_19
REMARK    6  A    between atoms: C_19  and  C_20
REMARK                            x       y       z     vdW  Elec       q    Type
REMARK                         _______ _______ _______ _____ _____    ______ ____
ROOT
ATOM      1  C   UNL     1       0.977   3.698  19.946  0.00  0.00    +0.000 C 
ENDROOT
BRANCH   1   3
ATOM      2  O   UNL     1       1.265   3.850  17.552  0.00  0.00    +0.000 OA
ATOM      3  C   UNL     1       1.748   3.585  18.646  0.00  0.00    +0.000 C 
ATOM      4  N   UNL     1       3.044   3.157  18.821  0.00  0.00    +0.000 N 
ATOM      5  H   UNL     1       3.372   2.923  19.748  0.00  0.00    +0.000 HD
BRANCH   4   6
ATOM      6  C   UNL     1       3.966   2.992  17.718  0.00  0.00    +0.000 C 
BRANCH   6   7
ATOM      7  C   UNL     1       4.789   4.241  17.518  0.00  0.00    +0.000 A 
ATOM      8  C   UNL     1       4.589   5.039  16.368  0.00  0.00    +0.000 A 
ATOM      9  C   UNL     1       5.365   6.180  16.138  0.00  0.00    +0.000 A 
ATOM     10  C   UNL     1       6.339   6.489  17.061  0.00  0.00    +0.000 A 
ATOM     11  C   UNL     1       6.542   5.721  18.182  0.00  0.00    +0.000 A 
ATOM     12  C   UNL     1       5.785   4.597  18.443  0.00  0.00    +0.000 A 
ATOM     13  O   UNL     1       7.554   6.193  18.959  0.00  0.00    +0.000 OA
ATOM     14  C   UNL     1       8.002   7.313  18.165  0.00  0.00    +0.000 C 
ATOM     15  O   UNL     1       7.198   7.541  16.989  0.00  0.00    +0.000 OA
ENDBRANCH   6   7
ENDBRANCH   4   6
ENDBRANCH   1   3
BRANCH   1  16
ATOM     16  C   UNL     1       1.722   4.565  20.955  0.00  0.00    +0.000 C 
BRANCH  16  17
ATOM     17  C   UNL     1       1.850   5.964  20.480  0.00  0.00    +0.000 A 
ATOM     18  N   UNL     1       2.667   6.449  19.568  0.00  0.00    +0.000 NA
ATOM     19  C   UNL     1       2.312   7.773  19.483  0.00  0.00    +0.000 A 
ATOM     20  C   UNL     1       1.294   8.058  20.369  0.00  0.00    +0.000 A 
ATOM     21  O   UNL     1       1.000   6.888  21.028  0.00  0.00    +0.000 OA
BRANCH  20  22
ATOM     22  C   UNL     1       0.503   9.236  20.705  0.00  0.00    +0.000 A 
ATOM     23  C   UNL     1      -0.208   9.942  19.720  0.00  0.00    +0.000 A 
ATOM     24  C   UNL     1      -0.933  11.093  20.049  0.00  0.00    +0.000 A 
ATOM     25  C   UNL     1      -0.953  11.542  21.363  0.00  0.00    +0.000 A 
ATOM     26  F   UNL     1      -1.636  12.653  21.671  0.00  0.00    +0.000 F 
ATOM     27  C   UNL     1      -0.276  10.859  22.359  0.00  0.00    +0.000 A 
ATOM     28  C   UNL     1       0.444   9.714  22.025  0.00  0.00    +0.000 A 
ATOM     29  F   UNL     1       1.094   9.077  23.009  0.00  0.00    +0.000 F 
ENDBRANCH  20  22
ENDBRANCH  16  17
ENDBRANCH   1  16
TORSDOF 6
ENDMDL
MODEL 9
REMARK VINA RESULT:      -8.5      5.192      8.039
REMARK  Name = 
REMARK  6 active torsions:
REMARK  status: ('A' for Active; 'I' for Inactive)
REMARK    1  A    between atoms: C_2  and  C_3
REMARK    2  A    between atoms: C_3  and  C_4
REMARK    3  A    between atoms: C_4  and  C_5
REMARK    4  A    between atoms: C_8  and  C_9
REMARK    5  A    between atoms: N_18  and  C_19
REMARK    6  A    between atoms: C_19  and  C_20
REMARK                            x       y       z     vdW  Elec       q    Type
REMARK                         _______ _______ _______ _____ _____    ______ ____
ROOT
ATOM      1  C   UNL     1       2.276   1.938  19.261  0.00  0.00    +0.000 C 
ENDROOT
BRANCH   1   3
ATOM      2  O   UNL     1       2.003   2.858  17.044  0.00  0.00    +0.000 OA
ATOM      3  C   UNL     1       2.758   2.469  17.926  0.00  0.00    +0.000 C 
ATOM      4  N   UNL     1       4.129   2.470  17.807  0.00  0.00    +0.000 N 
ATOM      5  H   UNL     1       4.696   2.104  18.560  0.00  0.00    +0.000 HD
BRANCH   4   6
ATOM      6  C   UNL     1       4.809   2.949  16.622  0.00  0.00    +0.000 C 
BRANCH   6   7
ATOM      7  C   UNL     1       5.347   4.341  16.841  0.00  0.00    +0.000 A 
ATOM      8  C   UNL     1       4.744   5.440  16.185  0.00  0.00    +0.000 A 
ATOM      9  C   UNL     1       5.247   6.737  16.339  0.00  0.00    +0.000 A 
ATOM     10  C   UNL     1       6.357   6.902  17.137  0.00  0.00    +0.000 A 
ATOM     11  C   UNL     1       6.951   5.842  17.779  0.00  0.00    +0.000 A 
ATOM     12  C   UNL     1       6.471   4.554  17.657  0.00  0.00    +0.000 A 
ATOM     13  O   UNL     1       8.035   6.219  18.510  0.00  0.00    +0.000 OA
ATOM     14  C   UNL     1       8.089   7.629  18.204  0.00  0.00    +0.000 C 
ATOM     15  O   UNL     1       6.993   8.080  17.380  0.00  0.00    +0.000 OA
ENDBRANCH   6   7
ENDBRANCH   4   6
ENDBRANCH   1   3
BRANCH   1  16
ATOM     16  C   UNL     1       1.638   3.042  20.095  0.00  0.00    +0.000 C 
BRANCH  16  17
ATOM     17  C   UNL     1       2.375   4.323  19.958  0.00  0.00    +0.000 A 
ATOM     18  N   UNL     1       3.675   4.528  19.988  0.00  0.00    +0.000 NA
ATOM     19  C   UNL     1       3.798   5.874  19.746  0.00  0.00    +0.000 A 
ATOM     20  C   UNL     1       2.555   6.454  19.595  0.00  0.00    +0.000 A 
ATOM     21  O   UNL     1       1.628   5.451  19.746  0.00  0.00    +0.000 OA
BRANCH  20  22
ATOM     22  C   UNL     1       2.057   7.792  19.300  0.00  0.00    +0.000 A 
ATOM     23  C   UNL     1       2.271   8.390  18.047  0.00  0.00    +0.000 A 
ATOM     24  C   UNL     1       1.821   9.690  17.788  0.00  0.00    +0.000 A 
ATOM     25  C   UNL     1       1.153  10.397  18.780  0.00  0.00    +0.000 A 
ATOM     26  F   UNL     1       0.737  11.646  18.534  0.00  0.00    +0.000 F 
ATOM     27  C   UNL     1       0.913   9.829  20.021  0.00  0.00    +0.000 A 
ATOM     28  C   UNL     1       1.364   8.535  20.271  0.00  0.00    +0.000 A 
ATOM     29  F   UNL     1       1.121   8.014  21.482  0.00  0.00    +0.000 F 
ENDBRANCH  20  22
ENDBRANCH  16  17
ENDBRANCH   1  16
TORSDOF 6
ENDMDL
