MODEL 1
REMARK VINA RESULT:      -9.5      0.000      0.000
REMARK  Name = 
REMARK  4 active torsions:
REMARK  status: ('A' for Active; 'I' for Inactive)
REMARK    1  A    between atoms: C_2  and  C_5
REMARK    2  A    between atoms: C_9  and  C_10
REMARK    3  A    between atoms: C_10  and  C_11
REMARK    4  A    between atoms: C_14  and  C_15
REMARK                            x       y       z     vdW  Elec       q    Type
REMARK                         _______ _______ _______ _____ _____    ______ ____
ROOT
ATOM      1  C   UNL     1       5.149   4.754  16.759  0.00  0.00    +0.000 A 
ATOM      2  N   UNL     1       4.204   5.688  16.941  0.00  0.00    +0.000 NA
ATOM      3  O   UNL     1       3.156   4.975  17.530  0.00  0.00    +0.000 OA
ATOM      4  C   UNL     1       3.564   3.674  17.605  0.00  0.00    +0.000 A 
ATOM      5  N   UNL     1       4.770   3.483  17.124  0.00  0.00    +0.000 NA
ENDROOT
BRANCH   4   6
ATOM      6  C   UNL     1       2.649   2.692  18.255  0.00  0.00    +0.000 C 
ATOM      7  C   UNL     1       1.172   3.173  18.205  0.00  0.00    +0.000 C 
ATOM      8  C   UNL     1       0.340   3.285  19.510  0.00  0.00    +0.000 C 
ATOM      9  C   UNL     1       1.017   3.151  20.883  0.00  0.00    +0.000 C 
ATOM     10  C   UNL     1       2.376   2.622  20.768  0.00  0.00    +0.000 A 
ATOM     11  N   UNL     1       3.228   2.294  21.776  0.00  0.00    +0.000 N 
ATOM     12  N   UNL     1       4.398   1.842  21.290  0.00  0.00    +0.000 NA
ATOM     13  N   UNL     1       4.328   1.902  19.961  0.00  0.00    +0.000 NA
ATOM     14  C   UNL     1       3.103   2.403  19.631  0.00  0.00    +0.000 A 
ATOM     15  H   UNL     1       3.109   2.345  22.782  0.00  0.00    +0.000 HD
ENDBRANCH   4   6
BRANCH   1  16
ATOM     16  C   UNL     1       6.592   5.078  16.305  0.00  0.00    +0.000 C 
ATOM     17  C   UNL     1       7.012   6.523  16.782  0.00  0.00    +0.000 C 
ATOM     18  C   UNL     1       7.599   5.898  18.055  0.00  0.00    +0.000 C 
ATOM     19  C   UNL     1       7.697   4.562  17.293  0.00  0.00    +0.000 C 
BRANCH  16  24
ATOM     20  C   UNL     1       5.995   3.900  12.581  0.00  0.00    +0.000 A 
ATOM     21  C   UNL     1       7.077   4.492  11.921  0.00  0.00    +0.000 A 
ATOM     22  C   UNL     1       8.031   5.203  12.644  0.00  0.00    +0.000 A 
ATOM     23  C   UNL     1       7.894   5.351  14.027  0.00  0.00    +0.000 A 
ATOM     24  C   UNL     1       6.811   4.793  14.738  0.00  0.00    +0.000 A 
ATOM     25  C   UNL     1       5.898   4.033  13.978  0.00  0.00    +0.000 A 
BRANCH  20  27
ATOM     26  F   UNL     1       5.280   1.916  11.426  0.00  0.00    +0.000 F 
ATOM     27  C   UNL     1       4.914   3.165  11.829  0.00  0.00    +0.000 C 
ATOM     28  F   UNL     1       4.539   3.822  10.695  0.00  0.00    +0.000 F 
ATOM     29  F   UNL     1       3.778   3.005  12.560  0.00  0.00    +0.000 F 
ENDBRANCH  20  27
ENDBRANCH  16  24
ENDBRANCH   1  16
TORSDOF 4
ENDMDL
MODEL 2
REMARK VINA RESULT:      -9.2      3.905      7.468
REMARK  Name = 
REMARK  4 active torsions:
REMARK  status: ('A' for Active; 'I' for Inactive)
REMARK    1  A    between atoms: C_2  and  C_5
REMARK    2  A    between atoms: C_9  and  C_10
REMARK    3  A    between atoms: C_10  and  C_11
REMARK    4  A    between atoms: C_14  and  C_15
REMARK                            x       y       z     vdW  Elec       q    Type
REMARK                         _______ _______ _______ _____ _____    ______ ____
ROOT
ATOM      1  C   UNL     1       3.417   3.952  19.350  0.00  0.00    +0.000 A 
ATOM      2  N   UNL     1       3.992   2.962  20.049  0.00  0.00    +0.000 NA
ATOM      3  O   UNL     1       5.343   3.073  19.712  0.00  0.00    +0.000 OA
ATOM      4  C   UNL     1       5.438   4.096  18.812  0.00  0.00    +0.000 A 
ATOM      5  N   UNL     1       4.280   4.651  18.539  0.00  0.00    +0.000 NA
ENDROOT
BRANCH   4   6
ATOM      6  C   UNL     1       6.796   4.473  18.324  0.00  0.00    +0.000 C 
ATOM      7  C   UNL     1       7.370   5.678  19.122  0.00  0.00    +0.000 C 
ATOM      8  C   UNL     1       7.853   6.951  18.377  0.00  0.00    +0.000 C 
ATOM      9  C   UNL     1       7.561   7.140  16.880  0.00  0.00    +0.000 C 
ATOM     10  C   UNL     1       7.093   5.901  16.258  0.00  0.00    +0.000 A 
ATOM     11  N   UNL     1       6.828   5.680  14.943  0.00  0.00    +0.000 N 
ATOM     12  N   UNL     1       6.413   4.417  14.741  0.00  0.00    +0.000 NA
ATOM     13  N   UNL     1       6.374   3.814  15.928  0.00  0.00    +0.000 NA
ATOM     14  C   UNL     1       6.765   4.722  16.868  0.00  0.00    +0.000 A 
ATOM     15  H   UNL     1       6.893   6.302  14.144  0.00  0.00    +0.000 HD
ENDBRANCH   4   6
BRANCH   1  16
ATOM     16  C   UNL     1       1.939   4.373  19.525  0.00  0.00    +0.000 C 
ATOM     17  C   UNL     1       1.065   3.850  18.318  0.00  0.00    +0.000 C 
ATOM     18  C   UNL     1       0.757   2.585  19.130  0.00  0.00    +0.000 C 
ATOM     19  C   UNL     1       1.099   3.380  20.405  0.00  0.00    +0.000 C 
BRANCH  16  24
ATOM     20  C   UNL     1       1.722   8.291  19.064  0.00  0.00    +0.000 A 
ATOM     21  C   UNL     1       1.294   8.701  20.331  0.00  0.00    +0.000 A 
ATOM     22  C   UNL     1       1.136   7.766  21.350  0.00  0.00    +0.000 A 
ATOM     23  C   UNL     1       1.377   6.412  21.102  0.00  0.00    +0.000 A 
ATOM     24  C   UNL     1       1.790   5.943  19.837  0.00  0.00    +0.000 A 
ATOM     25  C   UNL     1       1.992   6.928  18.848  0.00  0.00    +0.000 A 
BRANCH  20  27
ATOM     26  F   UNL     1       0.664   9.653  17.389  0.00  0.00    +0.000 F 
ATOM     27  C   UNL     1       1.857   9.264  17.919  0.00  0.00    +0.000 C 
ATOM     28  F   UNL     1       2.569   8.741  16.882  0.00  0.00    +0.000 F 
ATOM     29  F   UNL     1       2.501  10.409  18.274  0.00  0.00    +0.000 F 
ENDBRANCH  20  27
ENDBRANCH  16  24
ENDBRANCH   1  16
TORSDOF 4
ENDMDL
MODEL 3
REMARK VINA RESULT:      -9.1      4.854      7.999
REMARK  Name = 
REMARK  4 active torsions:
REMARK  status: ('A' for Active; 'I' for Inactive)
REMARK    1  A    between atoms: C_2  and  C_5
REMARK    2  A    between atoms: C_9  and  C_10
REMARK    3  A    between atoms: C_10  and  C_11
REMARK    4  A    between atoms: C_14  and  C_15
REMARK                            x       y       z     vdW  Elec       q    Type
REMARK                         _______ _______ _______ _____ _____    ______ ____
ROOT
ATOM      1  C   UNL     1       3.453   4.085  19.335  0.00  0.00    +0.000 A 
ATOM      2  N   UNL     1       3.981   3.079  20.047  0.00  0.00    +0.000 NA
ATOM      3  O   UNL     1       5.347   3.168  19.766  0.00  0.00    +0.000 OA
ATOM      4  C   UNL     1       5.496   4.197  18.880  0.00  0.00    +0.000 A 
ATOM      5  N   UNL     1       4.361   4.775  18.566  0.00  0.00    +0.000 NA
ENDROOT
BRANCH   4   6
ATOM      6  C   UNL     1       6.879   4.553  18.451  0.00  0.00    +0.000 C 
ATOM      7  C   UNL     1       7.423   5.774  19.246  0.00  0.00    +0.000 C 
ATOM      8  C   UNL     1       7.952   7.024  18.495  0.00  0.00    +0.000 C 
ATOM      9  C   UNL     1       7.735   7.178  16.981  0.00  0.00    +0.000 C 
ATOM     10  C   UNL     1       7.289   5.927  16.368  0.00  0.00    +0.000 A 
ATOM     11  N   UNL     1       7.088   5.675  15.046  0.00  0.00    +0.000 N 
ATOM     12  N   UNL     1       6.673   4.410  14.855  0.00  0.00    +0.000 NA
ATOM     13  N   UNL     1       6.571   3.837  16.053  0.00  0.00    +0.000 NA
ATOM     14  C   UNL     1       6.922   4.766  16.990  0.00  0.00    +0.000 A 
ATOM     15  H   UNL     1       7.196   6.276  14.237  0.00  0.00    +0.000 HD
ENDBRANCH   4   6
BRANCH   1  16
ATOM     16  C   UNL     1       1.977   4.532  19.454  0.00  0.00    +0.000 C 
ATOM     17  C   UNL     1       1.066   3.710  18.461  0.00  0.00    +0.000 C 
ATOM     18  C   UNL     1       0.806   2.699  19.586  0.00  0.00    +0.000 C 
ATOM     19  C   UNL     1       1.185   3.800  20.595  0.00  0.00    +0.000 C 
BRANCH  16  24
ATOM     20  C   UNL     1       1.418   8.322  20.424  0.00  0.00    +0.000 A 
ATOM     21  C   UNL     1       1.768   8.972  19.236  0.00  0.00    +0.000 A 
ATOM     22  C   UNL     1       2.115   8.229  18.111  0.00  0.00    +0.000 A 
ATOM     23  C   UNL     1       2.141   6.833  18.174  0.00  0.00    +0.000 A 
ATOM     24  C   UNL     1       1.818   6.129  19.353  0.00  0.00    +0.000 A 
ATOM     25  C   UNL     1       1.418   6.916  20.453  0.00  0.00    +0.000 A 
BRANCH  20  27
ATOM     26  F   UNL     1       0.900  10.423  21.472  0.00  0.00    +0.000 F 
ATOM     27  C   UNL     1       1.085   9.089  21.679  0.00  0.00    +0.000 C 
ATOM     28  F   UNL     1       2.072   8.995  22.615  0.00  0.00    +0.000 F 
ATOM     29  F   UNL     1      -0.048   8.643  22.286  0.00  0.00    +0.000 F 
ENDBRANCH  20  27
ENDBRANCH  16  24
ENDBRANCH   1  16
TORSDOF 4
ENDMDL
MODEL 4
REMARK VINA RESULT:      -9.1      1.503      1.808
REMARK  Name = 
REMARK  4 active torsions:
REMARK  status: ('A' for Active; 'I' for Inactive)
REMARK    1  A    between atoms: C_2  and  C_5
REMARK    2  A    between atoms: C_9  and  C_10
REMARK    3  A    between atoms: C_10  and  C_11
REMARK    4  A    between atoms: C_14  and  C_15
REMARK                            x       y       z     vdW  Elec       q    Type
REMARK                         _______ _______ _______ _____ _____    ______ ____
ROOT
ATOM      1  C   UNL     1       5.240   5.772  16.830  0.00  0.00    +0.000 A 
ATOM      2  N   UNL     1       4.657   6.952  16.574  0.00  0.00    +0.000 NA
ATOM      3  O   UNL     1       3.409   6.834  17.190  0.00  0.00    +0.000 OA
ATOM      4  C   UNL     1       3.353   5.577  17.722  0.00  0.00    +0.000 A 
ATOM      5  N   UNL     1       4.443   4.878  17.506  0.00  0.00    +0.000 NA
ENDROOT
BRANCH   4   6
ATOM      6  C   UNL     1       2.137   5.200  18.498  0.00  0.00    +0.000 C 
ATOM      7  C   UNL     1       2.186   5.774  19.942  0.00  0.00    +0.000 C 
ATOM      8  C   UNL     1       2.025   4.831  21.164  0.00  0.00    +0.000 C 
ATOM      9  C   UNL     1       2.051   3.305  20.984  0.00  0.00    +0.000 C 
ATOM     10  C   UNL     1       1.928   2.923  19.577  0.00  0.00    +0.000 A 
ATOM     11  N   UNL     1       1.826   1.668  19.062  0.00  0.00    +0.000 N 
ATOM     12  N   UNL     1       1.734   1.704  17.722  0.00  0.00    +0.000 NA
ATOM     13  N   UNL     1       1.806   2.980  17.349  0.00  0.00    +0.000 NA
ATOM     14  C   UNL     1       1.952   3.735  18.477  0.00  0.00    +0.000 A 
ATOM     15  H   UNL     1       1.815   0.765  19.525  0.00  0.00    +0.000 HD
ENDBRANCH   4   6
BRANCH   1  16
ATOM     16  C   UNL     1       6.725   5.469  16.518  0.00  0.00    +0.000 C 
ATOM     17  C   UNL     1       7.654   6.626  17.058  0.00  0.00    +0.000 C 
ATOM     18  C   UNL     1       7.813   5.843  18.368  0.00  0.00    +0.000 C 
ATOM     19  C   UNL     1       7.427   4.567  17.595  0.00  0.00    +0.000 C 
BRANCH  16  24
ATOM     20  C   UNL     1       6.156   4.042  12.878  0.00  0.00    +0.000 A 
ATOM     21  C   UNL     1       7.231   4.605  12.182  0.00  0.00    +0.000 A 
ATOM     22  C   UNL     1       8.172   5.377  12.859  0.00  0.00    +0.000 A 
ATOM     23  C   UNL     1       8.029   5.613  14.229  0.00  0.00    +0.000 A 
ATOM     24  C   UNL     1       6.953   5.086  14.973  0.00  0.00    +0.000 A 
ATOM     25  C   UNL     1       6.053   4.264  14.262  0.00  0.00    +0.000 A 
BRANCH  20  27
ATOM     26  F   UNL     1       5.489   1.993  11.812  0.00  0.00    +0.000 F 
ATOM     27  C   UNL     1       5.088   3.243  12.173  0.00  0.00    +0.000 C 
ATOM     28  F   UNL     1       4.672   3.844  11.023  0.00  0.00    +0.000 F 
ATOM     29  F   UNL     1       3.970   3.074  12.931  0.00  0.00    +0.000 F 
ENDBRANCH  20  27
ENDBRANCH  16  24
ENDBRANCH   1  16
TORSDOF 4
ENDMDL
MODEL 5
REMARK VINA RESULT:      -8.7      3.817      5.807
REMARK  Name = 
REMARK  4 active torsions:
REMARK  status: ('A' for Active; 'I' for Inactive)
REMARK    1  A    between atoms: C_2  and  C_5
REMARK    2  A    between atoms: C_9  and  C_10
REMARK    3  A    between atoms: C_10  and  C_11
REMARK    4  A    between atoms: C_14  and  C_15
REMARK                            x       y       z     vdW  Elec       q    Type
REMARK                         _______ _______ _______ _____ _____    ______ ____
ROOT
ATOM      1  C   UNL     1       2.377   4.887  19.638  0.00  0.00    +0.000 A 
ATOM      2  N   UNL     1       1.421   4.679  20.555  0.00  0.00    +0.000 NA
ATOM      3  O   UNL     1       1.138   5.966  21.021  0.00  0.00    +0.000 OA
ATOM      4  C   UNL     1       1.982   6.814  20.363  0.00  0.00    +0.000 A 
ATOM      5  N   UNL     1       2.779   6.197  19.521  0.00  0.00    +0.000 NA
ENDROOT
BRANCH   4   6
ATOM      6  C   UNL     1       1.852   8.275  20.629  0.00  0.00    +0.000 C 
ATOM      7  C   UNL     1       0.770   8.560  21.708  0.00  0.00    +0.000 C 
ATOM      8  C   UNL     1      -0.398   9.537  21.407  0.00  0.00    +0.000 C 
ATOM      9  C   UNL     1      -0.637  10.053  19.979  0.00  0.00    +0.000 C 
ATOM     10  C   UNL     1       0.498   9.768  19.102  0.00  0.00    +0.000 A 
ATOM     11  N   UNL     1       0.668  10.154  17.809  0.00  0.00    +0.000 N 
ATOM     12  N   UNL     1       1.836   9.703  17.320  0.00  0.00    +0.000 NA
ATOM     13  N   UNL     1       2.424   8.992  18.281  0.00  0.00    +0.000 NA
ATOM     14  C   UNL     1       1.600   9.004  19.369  0.00  0.00    +0.000 A 
ATOM     15  H   UNL     1       0.066  10.699  17.200  0.00  0.00    +0.000 HD
ENDBRANCH   4   6
BRANCH   1  16
ATOM     16  C   UNL     1       2.903   3.784  18.689  0.00  0.00    +0.000 C 
ATOM     17  C   UNL     1       2.700   2.356  19.332  0.00  0.00    +0.000 C 
ATOM     18  C   UNL     1       1.344   2.263  18.620  0.00  0.00    +0.000 C 
ATOM     19  C   UNL     1       1.853   3.317  17.619  0.00  0.00    +0.000 C 
BRANCH  16  24
ATOM     20  C   UNL     1       5.998   4.470  16.330  0.00  0.00    +0.000 A 
ATOM     21  C   UNL     1       6.975   4.859  17.253  0.00  0.00    +0.000 A 
ATOM     22  C   UNL     1       6.692   4.844  18.616  0.00  0.00    +0.000 A 
ATOM     23  C   UNL     1       5.423   4.468  19.064  0.00  0.00    +0.000 A 
ATOM     24  C   UNL     1       4.396   4.088  18.175  0.00  0.00    +0.000 A 
ATOM     25  C   UNL     1       4.739   4.062  16.807  0.00  0.00    +0.000 A 
BRANCH  20  27
ATOM     26  F   UNL     1       6.229   3.297  14.245  0.00  0.00    +0.000 F 
ATOM     27  C   UNL     1       6.247   4.520  14.844  0.00  0.00    +0.000 C 
ATOM     28  F   UNL     1       7.464   5.058  14.545  0.00  0.00    +0.000 F 
ATOM     29  F   UNL     1       5.332   5.277  14.181  0.00  0.00    +0.000 F 
ENDBRANCH  20  27
ENDBRANCH  16  24
ENDBRANCH   1  16
TORSDOF 4
ENDMDL
MODEL 6
REMARK VINA RESULT:      -8.6      4.979      6.714
REMARK  Name = 
REMARK  4 active torsions:
REMARK  status: ('A' for Active; 'I' for Inactive)
REMARK    1  A    between atoms: C_2  and  C_5
REMARK    2  A    between atoms: C_9  and  C_10
REMARK    3  A    between atoms: C_10  and  C_11
REMARK    4  A    between atoms: C_14  and  C_15
REMARK                            x       y       z     vdW  Elec       q    Type
REMARK                         _______ _______ _______ _____ _____    ______ ____
ROOT
ATOM      1  C   UNL     1       2.440   6.826  19.137  0.00  0.00    +0.000 A 
ATOM      2  N   UNL     1       1.961   7.370  20.266  0.00  0.00    +0.000 NA
ATOM      3  O   UNL     1       1.541   8.639  19.857  0.00  0.00    +0.000 OA
ATOM      4  C   UNL     1       1.847   8.743  18.530  0.00  0.00    +0.000 A 
ATOM      5  N   UNL     1       2.422   7.666  18.048  0.00  0.00    +0.000 NA
ENDROOT
BRANCH   4   6
ATOM      6  C   UNL     1       1.449   9.991  17.817  0.00  0.00    +0.000 C 
ATOM      7  C   UNL     1       2.380  11.178  18.189  0.00  0.00    +0.000 C 
ATOM      8  C   UNL     1       1.782  12.501  18.735  0.00  0.00    +0.000 C 
ATOM      9  C   UNL     1       0.301  12.583  19.138  0.00  0.00    +0.000 C 
ATOM     10  C   UNL     1      -0.456  11.426  18.658  0.00  0.00    +0.000 A 
ATOM     11  N   UNL     1      -1.796  11.211  18.753  0.00  0.00    +0.000 N 
ATOM     12  N   UNL     1      -2.135  10.033  18.202  0.00  0.00    +0.000 NA
ATOM     13  N   UNL     1      -1.014   9.456  17.770  0.00  0.00    +0.000 NA
ATOM     14  C   UNL     1       0.024  10.289  18.068  0.00  0.00    +0.000 A 
ATOM     15  H   UNL     1      -2.526  11.783  19.162  0.00  0.00    +0.000 HD
ENDBRANCH   4   6
BRANCH   1  16
ATOM     16  C   UNL     1       2.859   5.341  19.018  0.00  0.00    +0.000 C 
ATOM     17  C   UNL     1       2.534   4.564  20.354  0.00  0.00    +0.000 C 
ATOM     18  C   UNL     1       1.170   4.183  19.763  0.00  0.00    +0.000 C 
ATOM     19  C   UNL     1       1.764   4.427  18.362  0.00  0.00    +0.000 C 
BRANCH  16  24
ATOM     20  C   UNL     1       5.976   4.853  16.640  0.00  0.00    +0.000 A 
ATOM     21  C   UNL     1       7.039   5.127  17.508  0.00  0.00    +0.000 A 
ATOM     22  C   UNL     1       6.790   5.400  18.850  0.00  0.00    +0.000 A 
ATOM     23  C   UNL     1       5.477   5.427  19.328  0.00  0.00    +0.000 A 
ATOM     24  C   UNL     1       4.369   5.179  18.491  0.00  0.00    +0.000 A 
ATOM     25  C   UNL     1       4.666   4.852  17.151  0.00  0.00    +0.000 A 
BRANCH  20  27
ATOM     26  F   UNL     1       6.149   3.286  14.825  0.00  0.00    +0.000 F 
ATOM     27  C   UNL     1       6.198   4.603  15.170  0.00  0.00    +0.000 C 
ATOM     28  F   UNL     1       7.417   5.048  14.751  0.00  0.00    +0.000 F 
ATOM     29  F   UNL     1       5.283   5.231  14.383  0.00  0.00    +0.000 F 
ENDBRANCH  20  27
ENDBRANCH  16  24
ENDBRANCH   1  16
TORSDOF 4
ENDMDL
MODEL 7
REMARK VINA RESULT:      -8.5      5.635      7.428
REMARK  Name = 
REMARK  4 active torsions:
REMARK  status: ('A' for Active; 'I' for Inactive)
REMARK    1  A    between atoms: C_2  and  C_5
REMARK    2  A    between atoms: C_9  and  C_10
REMARK    3  A    between atoms: C_10  and  C_11
REMARK    4  A    between atoms: C_14  and  C_15
REMARK                            x       y       z     vdW  Elec       q    Type
REMARK                         _______ _______ _______ _____ _____    ______ ____
ROOT
ATOM      1  C   UNL     1       2.244   6.876  19.258  0.00  0.00    +0.000 A 
ATOM      2  N   UNL     1       1.790   7.458  20.378  0.00  0.00    +0.000 NA
ATOM      3  O   UNL     1       1.410   8.732  19.946  0.00  0.00    +0.000 OA
ATOM      4  C   UNL     1       1.710   8.798  18.616  0.00  0.00    +0.000 A 
ATOM      5  N   UNL     1       2.246   7.693  18.153  0.00  0.00    +0.000 NA
ENDROOT
BRANCH   4   6
ATOM      6  C   UNL     1       1.349  10.043  17.879  0.00  0.00    +0.000 C 
ATOM      7  C   UNL     1       2.297  11.218  18.251  0.00  0.00    +0.000 C 
ATOM      8  C   UNL     1       1.716  12.559  18.770  0.00  0.00    +0.000 C 
ATOM      9  C   UNL     1       0.230  12.675  19.146  0.00  0.00    +0.000 C 
ATOM     10  C   UNL     1      -0.541  11.527  18.669  0.00  0.00    +0.000 A 
ATOM     11  N   UNL     1      -1.886  11.340  18.744  0.00  0.00    +0.000 N 
ATOM     12  N   UNL     1      -2.239  10.161  18.203  0.00  0.00    +0.000 NA
ATOM     13  N   UNL     1      -1.124   9.556  17.798  0.00  0.00    +0.000 NA
ATOM     14  C   UNL     1      -0.074  10.374  18.102  0.00  0.00    +0.000 A 
ATOM     15  H   UNL     1      -2.612  11.931  19.134  0.00  0.00    +0.000 HD
ENDBRANCH   4   6
BRANCH   1  16
ATOM     16  C   UNL     1       2.612   5.375  19.167  0.00  0.00    +0.000 C 
ATOM     17  C   UNL     1       2.563   4.704  20.595  0.00  0.00    +0.000 C 
ATOM     18  C   UNL     1       1.102   4.317  20.327  0.00  0.00    +0.000 C 
ATOM     19  C   UNL     1       1.396   4.446  18.820  0.00  0.00    +0.000 C 
BRANCH  16  24
ATOM     20  C   UNL     1       6.448   5.201  18.236  0.00  0.00    +0.000 A 
ATOM     21  C   UNL     1       6.414   4.500  17.027  0.00  0.00    +0.000 A 
ATOM     22  C   UNL     1       5.193   4.138  16.465  0.00  0.00    +0.000 A 
ATOM     23  C   UNL     1       3.999   4.450  17.122  0.00  0.00    +0.000 A 
ATOM     24  C   UNL     1       3.979   5.137  18.355  0.00  0.00    +0.000 A 
ATOM     25  C   UNL     1       5.234   5.534  18.862  0.00  0.00    +0.000 A 
BRANCH  20  27
ATOM     26  F   UNL     1       8.256   6.764  18.496  0.00  0.00    +0.000 F 
ATOM     27  C   UNL     1       7.751   5.567  18.903  0.00  0.00    +0.000 C 
ATOM     28  F   UNL     1       8.729   4.650  18.657  0.00  0.00    +0.000 F 
ATOM     29  F   UNL     1       7.646   5.644  20.258  0.00  0.00    +0.000 F 
ENDBRANCH  20  27
ENDBRANCH  16  24
ENDBRANCH   1  16
TORSDOF 4
ENDMDL
MODEL 8
REMARK VINA RESULT:      -8.5      6.374      8.363
REMARK  Name = 
REMARK  4 active torsions:
REMARK  status: ('A' for Active; 'I' for Inactive)
REMARK    1  A    between atoms: C_2  and  C_5
REMARK    2  A    between atoms: C_9  and  C_10
REMARK    3  A    between atoms: C_10  and  C_11
REMARK    4  A    between atoms: C_14  and  C_15
REMARK                            x       y       z     vdW  Elec       q    Type
REMARK                         _______ _______ _______ _____ _____    ______ ____
ROOT
ATOM      1  C   UNL     1       1.569   8.606  19.670  0.00  0.00    +0.000 A 
ATOM      2  N   UNL     1       1.992   8.779  18.409  0.00  0.00    +0.000 NA
ATOM      3  O   UNL     1       2.703   7.605  18.145  0.00  0.00    +0.000 OA
ATOM      4  C   UNL     1       2.668   6.861  19.290  0.00  0.00    +0.000 A 
ATOM      5  N   UNL     1       2.004   7.443  20.262  0.00  0.00    +0.000 NA
ENDROOT
BRANCH   4   6
ATOM      6  C   UNL     1       3.307   5.514  19.268  0.00  0.00    +0.000 C 
ATOM      7  C   UNL     1       4.207   5.334  18.013  0.00  0.00    +0.000 C 
ATOM      8  C   UNL     1       3.986   4.131  17.058  0.00  0.00    +0.000 C 
ATOM      9  C   UNL     1       2.743   3.238  17.199  0.00  0.00    +0.000 C 
ATOM     10  C   UNL     1       2.043   3.479  18.461  0.00  0.00    +0.000 A 
ATOM     11  N   UNL     1       0.965   2.812  18.953  0.00  0.00    +0.000 N 
ATOM     12  N   UNL     1       0.590   3.314  20.143  0.00  0.00    +0.000 NA
ATOM     13  N   UNL     1       1.402   4.333  20.421  0.00  0.00    +0.000 NA
ATOM     14  C   UNL     1       2.280   4.459  19.384  0.00  0.00    +0.000 A 
ATOM     15  H   UNL     1       0.436   2.038  18.566  0.00  0.00    +0.000 HD
ENDBRANCH   4   6
BRANCH   1  16
ATOM     16  C   UNL     1       0.568   9.555  20.371  0.00  0.00    +0.000 C 
ATOM     17  C   UNL     1      -0.277   8.771  21.450  0.00  0.00    +0.000 C 
ATOM     18  C   UNL     1       0.767   9.162  22.505  0.00  0.00    +0.000 C 
ATOM     19  C   UNL     1       1.181  10.331  21.590  0.00  0.00    +0.000 C 
BRANCH  16  24
ATOM     20  C   UNL     1      -2.223  10.589  17.773  0.00  0.00    +0.000 A 
ATOM     21  C   UNL     1      -1.986  11.961  17.635  0.00  0.00    +0.000 A 
ATOM     22  C   UNL     1      -0.916  12.554  18.300  0.00  0.00    +0.000 A 
ATOM     23  C   UNL     1      -0.093  11.786  19.128  0.00  0.00    +0.000 A 
ATOM     24  C   UNL     1      -0.301  10.403  19.318  0.00  0.00    +0.000 A 
ATOM     25  C   UNL     1      -1.360   9.830  18.584  0.00  0.00    +0.000 A 
BRANCH  20  27
ATOM     26  F   UNL     1      -4.455  10.752  16.895  0.00  0.00    +0.000 F 
ATOM     27  C   UNL     1      -3.400   9.918  17.111  0.00  0.00    +0.000 C 
ATOM     28  F   UNL     1      -3.891   8.889  17.858  0.00  0.00    +0.000 F 
ATOM     29  F   UNL     1      -3.090   9.384  15.899  0.00  0.00    +0.000 F 
ENDBRANCH  20  27
ENDBRANCH  16  24
ENDBRANCH   1  16
TORSDOF 4
ENDMDL
MODEL 9
REMARK VINA RESULT:      -8.5      4.535      6.491
REMARK  Name = 
REMARK  4 active torsions:
REMARK  status: ('A' for Active; 'I' for Inactive)
REMARK    1  A    between atoms: C_2  and  C_5
REMARK    2  A    between atoms: C_9  and  C_10
REMARK    3  A    between atoms: C_10  and  C_11
REMARK    4  A    between atoms: C_14  and  C_15
REMARK                            x       y       z     vdW  Elec       q    Type
REMARK                         _______ _______ _______ _____ _____    ______ ____
ROOT
ATOM      1  C   UNL     1       2.300   4.827  19.664  0.00  0.00    +0.000 A 
ATOM      2  N   UNL     1       1.203   4.685  20.422  0.00  0.00    +0.000 NA
ATOM      3  O   UNL     1       0.943   5.987  20.858  0.00  0.00    +0.000 OA
ATOM      4  C   UNL     1       1.936   6.774  20.348  0.00  0.00    +0.000 A 
ATOM      5  N   UNL     1       2.806   6.105  19.629  0.00  0.00    +0.000 NA
ENDROOT
BRANCH   4   6
ATOM      6  C   UNL     1       1.870   8.241  20.613  0.00  0.00    +0.000 C 
ATOM      7  C   UNL     1       0.827   8.571  21.717  0.00  0.00    +0.000 C 
ATOM      8  C   UNL     1      -0.308   9.592  21.442  0.00  0.00    +0.000 C 
ATOM      9  C   UNL     1      -0.564  10.113  20.018  0.00  0.00    +0.000 C 
ATOM     10  C   UNL     1       0.537   9.781  19.114  0.00  0.00    +0.000 A 
ATOM     11  N   UNL     1       0.689  10.157  17.816  0.00  0.00    +0.000 N 
ATOM     12  N   UNL     1       1.826   9.659  17.299  0.00  0.00    +0.000 NA
ATOM     13  N   UNL     1       2.410   8.929  18.248  0.00  0.00    +0.000 NA
ATOM     14  C   UNL     1       1.615   8.975  19.357  0.00  0.00    +0.000 A 
ATOM     15  H   UNL     1       0.094  10.724  17.221  0.00  0.00    +0.000 HD
ENDBRANCH   4   6
BRANCH   1  16
ATOM     16  C   UNL     1       2.886   3.692  18.790  0.00  0.00    +0.000 C 
ATOM     17  C   UNL     1       3.060   2.372  19.640  0.00  0.00    +0.000 C 
ATOM     18  C   UNL     1       1.659   1.936  19.191  0.00  0.00    +0.000 C 
ATOM     19  C   UNL     1       1.801   2.888  17.988  0.00  0.00    +0.000 C 
BRANCH  16  24
ATOM     20  C   UNL     1       6.521   5.011  17.983  0.00  0.00    +0.000 A 
ATOM     21  C   UNL     1       6.612   4.766  16.609  0.00  0.00    +0.000 A 
ATOM     22  C   UNL     1       5.518   4.252  15.918  0.00  0.00    +0.000 A 
ATOM     23  C   UNL     1       4.336   3.952  16.602  0.00  0.00    +0.000 A 
ATOM     24  C   UNL     1       4.200   4.160  17.991  0.00  0.00    +0.000 A 
ATOM     25  C   UNL     1       5.311   4.734  18.643  0.00  0.00    +0.000 A 
BRANCH  20  27
ATOM     26  F   UNL     1       8.163   6.728  18.353  0.00  0.00    +0.000 F 
ATOM     27  C   UNL     1       7.699   5.520  18.776  0.00  0.00    +0.000 C 
ATOM     28  F   UNL     1       8.765   4.672  18.713  0.00  0.00    +0.000 F 
ATOM     29  F   UNL     1       7.419   5.668  20.099  0.00  0.00    +0.000 F 
ENDBRANCH  20  27
ENDBRANCH  16  24
ENDBRANCH   1  16
TORSDOF 4
ENDMDL
