MODEL 1
REMARK VINA RESULT:      -9.0      0.000      0.000
REMARK  Name = 
REMARK  4 active torsions:
REMARK  status: ('A' for Active; 'I' for Inactive)
REMARK    1  A    between atoms: C_2  and  C_3
REMARK    2  A    between atoms: C_3  and  C_4
REMARK    3  A    between atoms: C_4  and  C_5
REMARK    4  A    between atoms: N_14  and  C_15
REMARK                            x       y       z     vdW  Elec       q    Type
REMARK                         _______ _______ _______ _____ _____    ______ ____
ROOT
ATOM      1  O   UNL     1       8.214   6.931  18.638  0.00  0.00    +0.000 OA
ATOM      2  C   UNL     1       7.714   7.718  17.837  0.00  0.00    +0.000 C 
ATOM      3  N   UNL     1       6.799   7.401  16.845  0.00  0.00    +0.000 N 
ATOM      4  H   UNL     1       6.660   8.097  16.128  0.00  0.00    +0.000 HD
ENDROOT
BRANCH   3   5
ATOM      5  C   UNL     1       6.202   6.124  16.622  0.00  0.00    +0.000 A 
ATOM      6  C   UNL     1       6.892   5.129  15.916  0.00  0.00    +0.000 A 
ATOM      7  C   UNL     1       6.302   3.904  15.624  0.00  0.00    +0.000 A 
ATOM      8  C   UNL     1       5.010   3.640  16.058  0.00  0.00    +0.000 A 
ATOM      9  C   UNL     1       4.308   4.576  16.819  0.00  0.00    +0.000 A 
ATOM     10  C   UNL     1       3.019   4.252  17.277  0.00  0.00    +0.000 A 
ATOM     11  C   UNL     1       2.283   5.149  18.047  0.00  0.00    +0.000 A 
ATOM     12  C   UNL     1       2.825   6.384  18.361  0.00  0.00    +0.000 A 
ATOM     13  C   UNL     1       4.105   6.728  17.904  0.00  0.00    +0.000 A 
ATOM     14  C   UNL     1       4.890   5.840  17.125  0.00  0.00    +0.000 A 
ENDBRANCH   3   5
BRANCH   2  15
ATOM     15  C   UNL     1       8.159   9.168  17.842  0.00  0.00    +0.000 C 
BRANCH  15  16
ATOM     16  C   UNL     1       9.024   9.527  19.046  0.00  0.00    +0.000 C 
BRANCH  16  17
ATOM     17  C   UNL     1       9.616  10.897  18.911  0.00  0.00    +0.000 A 
ATOM     18  C   UNL     1      10.218  11.432  17.788  0.00  0.00    +0.000 A 
ATOM     19  N   UNL     1      10.632  12.703  18.085  0.00  0.00    +0.000 N 
ATOM     20  C   UNL     1      10.319  13.015  19.387  0.00  0.00    +0.000 A 
ATOM     21  C   UNL     1      10.554  14.189  20.117  0.00  0.00    +0.000 A 
ATOM     22  C   UNL     1      10.126  14.221  21.446  0.00  0.00    +0.000 A 
ATOM     23  C   UNL     1       9.488  13.124  22.021  0.00  0.00    +0.000 A 
ATOM     24  C   UNL     1       9.260  11.960  21.275  0.00  0.00    +0.000 A 
ATOM     25  C   UNL     1       9.682  11.902  19.932  0.00  0.00    +0.000 A 
ATOM     26  H   UNL     1      11.103  13.330  17.446  0.00  0.00    +0.000 HD
ENDBRANCH  16  17
ENDBRANCH  15  16
ENDBRANCH   2  15
TORSDOF 4
ENDMDL
MODEL 2
REMARK VINA RESULT:      -8.7      1.027      1.907
REMARK  Name = 
REMARK  4 active torsions:
REMARK  status: ('A' for Active; 'I' for Inactive)
REMARK    1  A    between atoms: C_2  and  C_3
REMARK    2  A    between atoms: C_3  and  C_4
REMARK    3  A    between atoms: C_4  and  C_5
REMARK    4  A    between atoms: N_14  and  C_15
REMARK                            x       y       z     vdW  Elec       q    Type
REMARK                         _______ _______ _______ _____ _____    ______ ____
ROOT
ATOM      1  O   UNL     1       8.301   7.090  18.765  0.00  0.00    +0.000 OA
ATOM      2  C   UNL     1       7.808   7.882  17.965  0.00  0.00    +0.000 C 
ATOM      3  N   UNL     1       6.911   7.570  16.954  0.00  0.00    +0.000 N 
ATOM      4  H   UNL     1       6.779   8.273  16.244  0.00  0.00    +0.000 HD
ENDROOT
BRANCH   3   5
ATOM      5  C   UNL     1       6.327   6.291  16.707  0.00  0.00    +0.000 A 
ATOM      6  C   UNL     1       7.037   5.309  16.002  0.00  0.00    +0.000 A 
ATOM      7  C   UNL     1       6.461   4.083  15.687  0.00  0.00    +0.000 A 
ATOM      8  C   UNL     1       5.164   3.805  16.096  0.00  0.00    +0.000 A 
ATOM      9  C   UNL     1       4.442   4.728  16.855  0.00  0.00    +0.000 A 
ATOM     10  C   UNL     1       3.147   4.390  17.287  0.00  0.00    +0.000 A 
ATOM     11  C   UNL     1       2.393   5.273  18.054  0.00  0.00    +0.000 A 
ATOM     12  C   UNL     1       2.919   6.509  18.391  0.00  0.00    +0.000 A 
ATOM     13  C   UNL     1       4.205   6.867  17.960  0.00  0.00    +0.000 A 
ATOM     14  C   UNL     1       5.010   5.993  17.185  0.00  0.00    +0.000 A 
ENDBRANCH   3   5
BRANCH   2  15
ATOM     15  C   UNL     1       8.243   9.335  17.994  0.00  0.00    +0.000 C 
BRANCH  15  16
ATOM     16  C   UNL     1       9.308   9.623  19.046  0.00  0.00    +0.000 C 
BRANCH  16  17
ATOM     17  C   UNL     1       9.411  11.088  19.340  0.00  0.00    +0.000 A 
ATOM     18  C   UNL     1       8.868  11.757  20.421  0.00  0.00    +0.000 A 
ATOM     19  N   UNL     1       9.185  13.084  20.312  0.00  0.00    +0.000 N 
ATOM     20  C   UNL     1       9.924  13.306  19.173  0.00  0.00    +0.000 A 
ATOM     21  C   UNL     1      10.456  14.496  18.659  0.00  0.00    +0.000 A 
ATOM     22  C   UNL     1      11.169  14.422  17.459  0.00  0.00    +0.000 A 
ATOM     23  C   UNL     1      11.342  13.206  16.803  0.00  0.00    +0.000 A 
ATOM     24  C   UNL     1      10.805  12.026  17.334  0.00  0.00    +0.000 A 
ATOM     25  C   UNL     1      10.082  12.074  18.542  0.00  0.00    +0.000 A 
ATOM     26  H   UNL     1       8.917  13.806  20.967  0.00  0.00    +0.000 HD
ENDBRANCH  16  17
ENDBRANCH  15  16
ENDBRANCH   2  15
TORSDOF 4
ENDMDL
MODEL 3
REMARK VINA RESULT:      -8.7      6.229      8.654
REMARK  Name = 
REMARK  4 active torsions:
REMARK  status: ('A' for Active; 'I' for Inactive)
REMARK    1  A    between atoms: C_2  and  C_3
REMARK    2  A    between atoms: C_3  and  C_4
REMARK    3  A    between atoms: C_4  and  C_5
REMARK    4  A    between atoms: N_14  and  C_15
REMARK                            x       y       z     vdW  Elec       q    Type
REMARK                         _______ _______ _______ _____ _____    ______ ____
ROOT
ATOM      1  O   UNL     1       0.605   4.361  20.020  0.00  0.00    +0.000 OA
ATOM      2  C   UNL     1       1.603   4.570  20.707  0.00  0.00    +0.000 C 
ATOM      3  N   UNL     1       2.417   5.692  20.643  0.00  0.00    +0.000 N 
ATOM      4  H   UNL     1       3.315   5.616  21.096  0.00  0.00    +0.000 HD
ENDROOT
BRANCH   3   5
ATOM      5  C   UNL     1       2.202   6.847  19.833  0.00  0.00    +0.000 A 
ATOM      6  C   UNL     1       2.671   6.888  18.513  0.00  0.00    +0.000 A 
ATOM      7  C   UNL     1       2.538   8.030  17.730  0.00  0.00    +0.000 A 
ATOM      8  C   UNL     1       1.906   9.152  18.249  0.00  0.00    +0.000 A 
ATOM      9  C   UNL     1       1.366   9.135  19.536  0.00  0.00    +0.000 A 
ATOM     10  C   UNL     1       0.695  10.277  20.008  0.00  0.00    +0.000 A 
ATOM     11  C   UNL     1       0.132  10.305  21.281  0.00  0.00    +0.000 A 
ATOM     12  C   UNL     1       0.242   9.195  22.101  0.00  0.00    +0.000 A 
ATOM     13  C   UNL     1       0.917   8.051  21.651  0.00  0.00    +0.000 A 
ATOM     14  C   UNL     1       1.497   7.979  20.358  0.00  0.00    +0.000 A 
ENDBRANCH   3   5
BRANCH   2  15
ATOM     15  C   UNL     1       2.074   3.505  21.677  0.00  0.00    +0.000 C 
BRANCH  15  16
ATOM     16  C   UNL     1       3.280   2.721  21.169  0.00  0.00    +0.000 C 
BRANCH  16  17
ATOM     17  C   UNL     1       3.348   2.721  19.673  0.00  0.00    +0.000 A 
ATOM     18  C   UNL     1       2.564   1.982  18.808  0.00  0.00    +0.000 A 
ATOM     19  N   UNL     1       2.951   2.265  17.525  0.00  0.00    +0.000 N 
ATOM     20  C   UNL     1       3.982   3.175  17.527  0.00  0.00    +0.000 A 
ATOM     21  C   UNL     1       4.688   3.742  16.458  0.00  0.00    +0.000 A 
ATOM     22  C   UNL     1       5.708   4.647  16.764  0.00  0.00    +0.000 A 
ATOM     23  C   UNL     1       6.006   4.972  18.085  0.00  0.00    +0.000 A 
ATOM     24  C   UNL     1       5.287   4.396  19.140  0.00  0.00    +0.000 A 
ATOM     25  C   UNL     1       4.254   3.480  18.860  0.00  0.00    +0.000 A 
ATOM     26  H   UNL     1       2.544   1.865  16.689  0.00  0.00    +0.000 HD
ENDBRANCH  16  17
ENDBRANCH  15  16
ENDBRANCH   2  15
TORSDOF 4
ENDMDL
MODEL 4
REMARK VINA RESULT:      -8.6      1.699      9.149
REMARK  Name = 
REMARK  4 active torsions:
REMARK  status: ('A' for Active; 'I' for Inactive)
REMARK    1  A    between atoms: C_2  and  C_3
REMARK    2  A    between atoms: C_3  and  C_4
REMARK    3  A    between atoms: C_4  and  C_5
REMARK    4  A    between atoms: N_14  and  C_15
REMARK                            x       y       z     vdW  Elec       q    Type
REMARK                         _______ _______ _______ _____ _____    ______ ____
ROOT
ATOM      1  O   UNL     1       7.910  10.269  17.847  0.00  0.00    +0.000 OA
ATOM      2  C   UNL     1       8.520   9.458  18.539  0.00  0.00    +0.000 C 
ATOM      3  N   UNL     1       9.388   9.761  19.579  0.00  0.00    +0.000 N 
ATOM      4  H   UNL     1       9.983   9.011  19.894  0.00  0.00    +0.000 HD
ENDROOT
BRANCH   3   5
ATOM      5  C   UNL     1       9.667  11.062  20.094  0.00  0.00    +0.000 A 
ATOM      6  C   UNL     1       9.135  11.469  21.325  0.00  0.00    +0.000 A 
ATOM      7  C   UNL     1       9.333  12.757  21.812  0.00  0.00    +0.000 A 
ATOM      8  C   UNL     1      10.095  13.660  21.083  0.00  0.00    +0.000 A 
ATOM      9  C   UNL     1      10.698  13.279  19.883  0.00  0.00    +0.000 A 
ATOM     10  C   UNL     1      11.498  14.210  19.197  0.00  0.00    +0.000 A 
ATOM     11  C   UNL     1      12.127  13.874  18.002  0.00  0.00    +0.000 A 
ATOM     12  C   UNL     1      11.957  12.605  17.473  0.00  0.00    +0.000 A 
ATOM     13  C   UNL     1      11.155  11.667  18.138  0.00  0.00    +0.000 A 
ATOM     14  C   UNL     1      10.503  11.967  19.362  0.00  0.00    +0.000 A 
ENDBRANCH   3   5
BRANCH   2  15
ATOM     15  C   UNL     1       8.409   7.979  18.224  0.00  0.00    +0.000 C 
BRANCH  15  16
ATOM     16  C   UNL     1       7.187   7.635  17.379  0.00  0.00    +0.000 C 
BRANCH  16  17
ATOM     17  C   UNL     1       6.634   6.287  17.732  0.00  0.00    +0.000 A 
ATOM     18  C   UNL     1       7.356   5.136  17.984  0.00  0.00    +0.000 A 
ATOM     19  N   UNL     1       6.474   4.125  18.259  0.00  0.00    +0.000 N 
ATOM     20  C   UNL     1       5.181   4.587  18.186  0.00  0.00    +0.000 A 
ATOM     21  C   UNL     1       3.968   3.913  18.382  0.00  0.00    +0.000 A 
ATOM     22  C   UNL     1       2.788   4.646  18.233  0.00  0.00    +0.000 A 
ATOM     23  C   UNL     1       2.821   5.999  17.902  0.00  0.00    +0.000 A 
ATOM     24  C   UNL     1       4.044   6.656  17.712  0.00  0.00    +0.000 A 
ATOM     25  C   UNL     1       5.248   5.940  17.857  0.00  0.00    +0.000 A 
ATOM     26  H   UNL     1       6.727   3.171  18.482  0.00  0.00    +0.000 HD
ENDBRANCH  16  17
ENDBRANCH  15  16
ENDBRANCH   2  15
TORSDOF 4
ENDMDL
MODEL 5
REMARK VINA RESULT:      -8.6      1.497      1.655
REMARK  Name = 
REMARK  4 active torsions:
REMARK  status: ('A' for Active; 'I' for Inactive)
REMARK    1  A    between atoms: C_2  and  C_3
REMARK    2  A    between atoms: C_3  and  C_4
REMARK    3  A    between atoms: C_4  and  C_5
REMARK    4  A    between atoms: N_14  and  C_15
REMARK                            x       y       z     vdW  Elec       q    Type
REMARK                         _______ _______ _______ _____ _____    ______ ____
ROOT
ATOM      1  O   UNL     1       8.399   7.458  18.609  0.00  0.00    +0.000 OA
ATOM      2  C   UNL     1       7.787   8.178  17.824  0.00  0.00    +0.000 C 
ATOM      3  N   UNL     1       6.818   7.764  16.922  0.00  0.00    +0.000 N 
ATOM      4  H   UNL     1       6.578   8.419  16.194  0.00  0.00    +0.000 HD
ENDROOT
BRANCH   3   5
ATOM      5  C   UNL     1       6.288   6.444  16.797  0.00  0.00    +0.000 A 
ATOM      6  C   UNL     1       7.069   5.412  16.259  0.00  0.00    +0.000 A 
ATOM      7  C   UNL     1       6.550   4.137  16.060  0.00  0.00    +0.000 A 
ATOM      8  C   UNL     1       5.239   3.862  16.423  0.00  0.00    +0.000 A 
ATOM      9  C   UNL     1       4.444   4.841  17.022  0.00  0.00    +0.000 A 
ATOM     10  C   UNL     1       3.135   4.510  17.415  0.00  0.00    +0.000 A 
ATOM     11  C   UNL     1       2.309   5.449  18.024  0.00  0.00    +0.000 A 
ATOM     12  C   UNL     1       2.777   6.734  18.239  0.00  0.00    +0.000 A 
ATOM     13  C   UNL     1       4.076   7.086  17.845  0.00  0.00    +0.000 A 
ATOM     14  C   UNL     1       4.953   6.156  17.229  0.00  0.00    +0.000 A 
ENDBRANCH   3   5
BRANCH   2  15
ATOM     15  C   UNL     1       8.137   9.651  17.738  0.00  0.00    +0.000 C 
BRANCH  15  16
ATOM     16  C   UNL     1       9.087  10.108  18.840  0.00  0.00    +0.000 C 
BRANCH  16  17
ATOM     17  C   UNL     1      10.028  11.168  18.352  0.00  0.00    +0.000 A 
ATOM     18  C   UNL     1      11.352  11.000  17.994  0.00  0.00    +0.000 A 
ATOM     19  N   UNL     1      11.855  12.215  17.615  0.00  0.00    +0.000 N 
ATOM     20  C   UNL     1      10.888  13.187  17.723  0.00  0.00    +0.000 A 
ATOM     21  C   UNL     1      10.952  14.560  17.452  0.00  0.00    +0.000 A 
ATOM     22  C   UNL     1       9.796  15.317  17.664  0.00  0.00    +0.000 A 
ATOM     23  C   UNL     1       8.625  14.722  18.125  0.00  0.00    +0.000 A 
ATOM     24  C   UNL     1       8.579  13.347  18.389  0.00  0.00    +0.000 A 
ATOM     25  C   UNL     1       9.730  12.561  18.183  0.00  0.00    +0.000 A 
ATOM     26  H   UNL     1      12.802  12.385  17.302  0.00  0.00    +0.000 HD
ENDBRANCH  16  17
ENDBRANCH  15  16
ENDBRANCH   2  15
TORSDOF 4
ENDMDL
MODEL 6
REMARK VINA RESULT:      -8.4      1.479      2.049
REMARK  Name = 
REMARK  4 active torsions:
REMARK  status: ('A' for Active; 'I' for Inactive)
REMARK    1  A    between atoms: C_2  and  C_3
REMARK    2  A    between atoms: C_3  and  C_4
REMARK    3  A    between atoms: C_4  and  C_5
REMARK    4  A    between atoms: N_14  and  C_15
REMARK                            x       y       z     vdW  Elec       q    Type
REMARK                         _______ _______ _______ _____ _____    ______ ____
ROOT
ATOM      1  O   UNL     1       6.742   8.327  16.859  0.00  0.00    +0.000 OA
ATOM      2  C   UNL     1       7.427   7.739  17.693  0.00  0.00    +0.000 C 
ATOM      3  N   UNL     1       7.358   6.387  17.999  0.00  0.00    +0.000 N 
ATOM      4  H   UNL     1       7.810   6.101  18.854  0.00  0.00    +0.000 HD
ENDROOT
BRANCH   3   5
ATOM      5  C   UNL     1       6.545   5.412  17.346  0.00  0.00    +0.000 A 
ATOM      6  C   UNL     1       7.019   4.734  16.214  0.00  0.00    +0.000 A 
ATOM      7  C   UNL     1       6.217   3.835  15.519  0.00  0.00    +0.000 A 
ATOM      8  C   UNL     1       4.927   3.577  15.960  0.00  0.00    +0.000 A 
ATOM      9  C   UNL     1       4.435   4.181  17.118  0.00  0.00    +0.000 A 
ATOM     10  C   UNL     1       3.138   3.860  17.556  0.00  0.00    +0.000 A 
ATOM     11  C   UNL     1       2.608   4.430  18.710  0.00  0.00    +0.000 A 
ATOM     12  C   UNL     1       3.364   5.335  19.435  0.00  0.00    +0.000 A 
ATOM     13  C   UNL     1       4.656   5.675  19.008  0.00  0.00    +0.000 A 
ATOM     14  C   UNL     1       5.236   5.111  17.843  0.00  0.00    +0.000 A 
ENDBRANCH   3   5
BRANCH   2  15
ATOM     15  C   UNL     1       8.399   8.528  18.548  0.00  0.00    +0.000 C 
BRANCH  15  16
ATOM     16  C   UNL     1       8.723   9.904  17.974  0.00  0.00    +0.000 C 
BRANCH  16  17
ATOM     17  C   UNL     1       9.477  10.747  18.957  0.00  0.00    +0.000 A 
ATOM     18  C   UNL     1       9.375  10.706  20.334  0.00  0.00    +0.000 A 
ATOM     19  N   UNL     1      10.226  11.642  20.858  0.00  0.00    +0.000 N 
ATOM     20  C   UNL     1      10.884  12.307  19.850  0.00  0.00    +0.000 A 
ATOM     21  C   UNL     1      11.832  13.337  19.916  0.00  0.00    +0.000 A 
ATOM     22  C   UNL     1      12.333  13.833  18.709  0.00  0.00    +0.000 A 
ATOM     23  C   UNL     1      11.904  13.318  17.489  0.00  0.00    +0.000 A 
ATOM     24  C   UNL     1      10.957  12.287  17.443  0.00  0.00    +0.000 A 
ATOM     25  C   UNL     1      10.436  11.768  18.646  0.00  0.00    +0.000 A 
ATOM     26  H   UNL     1      10.356  11.828  21.844  0.00  0.00    +0.000 HD
ENDBRANCH  16  17
ENDBRANCH  15  16
ENDBRANCH   2  15
TORSDOF 4
ENDMDL
MODEL 7
REMARK VINA RESULT:      -8.4      5.888      8.788
REMARK  Name = 
REMARK  4 active torsions:
REMARK  status: ('A' for Active; 'I' for Inactive)
REMARK    1  A    between atoms: C_2  and  C_3
REMARK    2  A    between atoms: C_3  and  C_4
REMARK    3  A    between atoms: C_4  and  C_5
REMARK    4  A    between atoms: N_14  and  C_15
REMARK                            x       y       z     vdW  Elec       q    Type
REMARK                         _______ _______ _______ _____ _____    ______ ____
ROOT
ATOM      1  O   UNL     1       1.587   8.364  19.806  0.00  0.00    +0.000 OA
ATOM      2  C   UNL     1       1.851   8.735  18.665  0.00  0.00    +0.000 C 
ATOM      3  N   UNL     1       1.297   9.828  18.013  0.00  0.00    +0.000 N 
ATOM      4  H   UNL     1       1.436   9.868  17.015  0.00  0.00    +0.000 HD
ENDROOT
BRANCH   3   5
ATOM      5  C   UNL     1       0.385  10.772  18.572  0.00  0.00    +0.000 A 
ATOM      6  C   UNL     1       0.837  11.758  19.461  0.00  0.00    +0.000 A 
ATOM      7  C   UNL     1      -0.045  12.641  20.075  0.00  0.00    +0.000 A 
ATOM      8  C   UNL     1      -1.401  12.572  19.788  0.00  0.00    +0.000 A 
ATOM      9  C   UNL     1      -1.889  11.649  18.861  0.00  0.00    +0.000 A 
ATOM     10  C   UNL     1      -3.263  11.641  18.566  0.00  0.00    +0.000 A 
ATOM     11  C   UNL     1      -3.795  10.746  17.642  0.00  0.00    +0.000 A 
ATOM     12  C   UNL     1      -2.959   9.842  17.008  0.00  0.00    +0.000 A 
ATOM     13  C   UNL     1      -1.587   9.829  17.296  0.00  0.00    +0.000 A 
ATOM     14  C   UNL     1      -1.005  10.730  18.225  0.00  0.00    +0.000 A 
ENDBRANCH   3   5
BRANCH   2  15
ATOM     15  C   UNL     1       2.809   7.918  17.820  0.00  0.00    +0.000 C 
BRANCH  15  16
ATOM     16  C   UNL     1       2.694   6.417  18.063  0.00  0.00    +0.000 C 
BRANCH  16  17
ATOM     17  C   UNL     1       4.038   5.785  18.259  0.00  0.00    +0.000 A 
ATOM     18  C   UNL     1       4.598   5.384  19.457  0.00  0.00    +0.000 A 
ATOM     19  N   UNL     1       5.839   4.864  19.202  0.00  0.00    +0.000 N 
ATOM     20  C   UNL     1       6.112   4.922  17.855  0.00  0.00    +0.000 A 
ATOM     21  C   UNL     1       7.250   4.516  17.146  0.00  0.00    +0.000 A 
ATOM     22  C   UNL     1       7.253   4.706  15.762  0.00  0.00    +0.000 A 
ATOM     23  C   UNL     1       6.160   5.277  15.115  0.00  0.00    +0.000 A 
ATOM     24  C   UNL     1       5.030   5.676  15.840  0.00  0.00    +0.000 A 
ATOM     25  C   UNL     1       5.002   5.495  17.237  0.00  0.00    +0.000 A 
ATOM     26  H   UNL     1       6.472   4.492  19.897  0.00  0.00    +0.000 HD
ENDBRANCH  16  17
ENDBRANCH  15  16
ENDBRANCH   2  15
TORSDOF 4
ENDMDL
MODEL 8
REMARK VINA RESULT:      -8.4      5.117      7.615
REMARK  Name = 
REMARK  4 active torsions:
REMARK  status: ('A' for Active; 'I' for Inactive)
REMARK    1  A    between atoms: C_2  and  C_3
REMARK    2  A    between atoms: C_3  and  C_4
REMARK    3  A    between atoms: C_4  and  C_5
REMARK    4  A    between atoms: N_14  and  C_15
REMARK                            x       y       z     vdW  Elec       q    Type
REMARK                         _______ _______ _______ _____ _____    ______ ____
ROOT
ATOM      1  O   UNL     1       1.366   4.724  19.251  0.00  0.00    +0.000 OA
ATOM      2  C   UNL     1       2.352   5.085  19.889  0.00  0.00    +0.000 C 
ATOM      3  N   UNL     1       2.827   6.385  19.992  0.00  0.00    +0.000 N 
ATOM      4  H   UNL     1       3.763   6.489  20.352  0.00  0.00    +0.000 HD
ENDROOT
BRANCH   3   5
ATOM      5  C   UNL     1       2.213   7.554  19.452  0.00  0.00    +0.000 A 
ATOM      6  C   UNL     1       2.372   7.881  18.098  0.00  0.00    +0.000 A 
ATOM      7  C   UNL     1       1.845   9.053  17.567  0.00  0.00    +0.000 A 
ATOM      8  C   UNL     1       1.121   9.914  18.380  0.00  0.00    +0.000 A 
ATOM      9  C   UNL     1       0.882   9.599  19.719  0.00  0.00    +0.000 A 
ATOM     10  C   UNL     1       0.107  10.476  20.498  0.00  0.00    +0.000 A 
ATOM     11  C   UNL     1      -0.166  10.200  21.835  0.00  0.00    +0.000 A 
ATOM     12  C   UNL     1       0.341   9.048  22.412  0.00  0.00    +0.000 A 
ATOM     13  C   UNL     1       1.124   8.166  21.653  0.00  0.00    +0.000 A 
ATOM     14  C   UNL     1       1.419   8.406  20.286  0.00  0.00    +0.000 A 
ENDBRANCH   3   5
BRANCH   2  15
ATOM     15  C   UNL     1       3.209   4.045  20.585  0.00  0.00    +0.000 C 
BRANCH  15  16
ATOM     16  C   UNL     1       3.875   3.071  19.619  0.00  0.00    +0.000 C 
BRANCH  16  17
ATOM     17  C   UNL     1       4.403   3.772  18.405  0.00  0.00    +0.000 A 
ATOM     18  C   UNL     1       3.925   3.666  17.113  0.00  0.00    +0.000 A 
ATOM     19  N   UNL     1       4.690   4.460  16.302  0.00  0.00    +0.000 N 
ATOM     20  C   UNL     1       5.672   5.085  17.035  0.00  0.00    +0.000 A 
ATOM     21  C   UNL     1       6.676   5.974  16.628  0.00  0.00    +0.000 A 
ATOM     22  C   UNL     1       7.552   6.453  17.605  0.00  0.00    +0.000 A 
ATOM     23  C   UNL     1       7.427   6.059  18.935  0.00  0.00    +0.000 A 
ATOM     24  C   UNL     1       6.415   5.171  19.324  0.00  0.00    +0.000 A 
ATOM     25  C   UNL     1       5.518   4.674  18.357  0.00  0.00    +0.000 A 
ATOM     26  H   UNL     1       4.562   4.575  15.305  0.00  0.00    +0.000 HD
ENDBRANCH  16  17
ENDBRANCH  15  16
ENDBRANCH   2  15
TORSDOF 4
ENDMDL
MODEL 9
REMARK VINA RESULT:      -8.4      6.062      8.586
REMARK  Name = 
REMARK  4 active torsions:
REMARK  status: ('A' for Active; 'I' for Inactive)
REMARK    1  A    between atoms: C_2  and  C_3
REMARK    2  A    between atoms: C_3  and  C_4
REMARK    3  A    between atoms: C_4  and  C_5
REMARK    4  A    between atoms: N_14  and  C_15
REMARK                            x       y       z     vdW  Elec       q    Type
REMARK                         _______ _______ _______ _____ _____    ______ ____
ROOT
ATOM      1  O   UNL     1       1.559   8.617  17.435  0.00  0.00    +0.000 OA
ATOM      2  C   UNL     1       1.756   8.398  18.628  0.00  0.00    +0.000 C 
ATOM      3  N   UNL     1       2.387   7.283  19.160  0.00  0.00    +0.000 N 
ATOM      4  H   UNL     1       2.267   7.134  20.150  0.00  0.00    +0.000 HD
ENDROOT
BRANCH   3   5
ATOM      5  C   UNL     1       3.000   6.226  18.422  0.00  0.00    +0.000 A 
ATOM      6  C   UNL     1       4.105   6.482  17.597  0.00  0.00    +0.000 A 
ATOM      7  C   UNL     1       4.672   5.484  16.813  0.00  0.00    +0.000 A 
ATOM      8  C   UNL     1       4.159   4.195  16.860  0.00  0.00    +0.000 A 
ATOM      9  C   UNL     1       3.101   3.879  17.714  0.00  0.00    +0.000 A 
ATOM     10  C   UNL     1       2.638   2.552  17.764  0.00  0.00    +0.000 A 
ATOM     11  C   UNL     1       1.593   2.187  18.607  0.00  0.00    +0.000 A 
ATOM     12  C   UNL     1       0.990   3.146  19.404  0.00  0.00    +0.000 A 
ATOM     13  C   UNL     1       1.432   4.476  19.361  0.00  0.00    +0.000 A 
ATOM     14  C   UNL     1       2.499   4.888  18.522  0.00  0.00    +0.000 A 
ENDBRANCH   3   5
BRANCH   2  15
ATOM     15  C   UNL     1       1.214   9.367  19.661  0.00  0.00    +0.000 C 
BRANCH  15  16
ATOM     16  C   UNL     1       1.105  10.797  19.144  0.00  0.00    +0.000 C 
BRANCH  16  17
ATOM     17  C   UNL     1      -0.298  11.314  19.242  0.00  0.00    +0.000 A 
ATOM     18  C   UNL     1      -0.779  12.242  20.146  0.00  0.00    +0.000 A 
ATOM     19  N   UNL     1      -2.113  12.431  19.903  0.00  0.00    +0.000 N 
ATOM     20  C   UNL     1      -2.524  11.639  18.858  0.00  0.00    +0.000 A 
ATOM     21  C   UNL     1      -3.790  11.501  18.273  0.00  0.00    +0.000 A 
ATOM     22  C   UNL     1      -3.919  10.602  17.211  0.00  0.00    +0.000 A 
ATOM     23  C   UNL     1      -2.824   9.872  16.753  0.00  0.00    +0.000 A 
ATOM     24  C   UNL     1      -1.566  10.025  17.349  0.00  0.00    +0.000 A 
ATOM     25  C   UNL     1      -1.409  10.926  18.421  0.00  0.00    +0.000 A 
ATOM     26  H   UNL     1      -2.717  13.059  20.416  0.00  0.00    +0.000 HD
ENDBRANCH  16  17
ENDBRANCH  15  16
ENDBRANCH   2  15
TORSDOF 4
ENDMDL
