MODEL 1
REMARK VINA RESULT:      -7.5      0.000      0.000
REMARK  Name = 
REMARK  5 active torsions:
REMARK  status: ('A' for Active; 'I' for Inactive)
REMARK    1  A    between atoms: C_1  and  C_2
REMARK    2  A    between atoms: N_5  and  S_6
REMARK    3  A    between atoms: S_6  and  C_9
REMARK    4  A    between atoms: N_19  and  C_20
REMARK    5  A    between atoms: C_23  and  C_24
REMARK                            x       y       z     vdW  Elec       q    Type
REMARK                         _______ _______ _______ _____ _____    ______ ____
ROOT
ATOM      1  C   UNL     1       1.922   2.701  21.536  0.00  0.00    +0.000 C 
ATOM      2  C   UNL     1       2.317   3.528  20.375  0.00  0.00    +0.000 A 
ATOM      3  N   UNL     1       1.515   4.530  19.897  0.00  0.00    +0.000 NA
ATOM      4  C   UNL     1       2.234   5.042  18.926  0.00  0.00    +0.000 A 
ATOM      5  N   UNL     1       1.775   6.192  18.222  0.00  0.00    +0.000 N 
ATOM      6  N   UNL     1       3.411   4.316  18.760  0.00  0.00    +0.000 N 
ATOM      7  N   UNL     1       3.478   3.362  19.730  0.00  0.00    +0.000 NA
ATOM      8  H   UNL     1       0.765   6.323  18.348  0.00  0.00    +0.000 HD
ENDROOT
BRANCH   6   9
ATOM      9  C   UNL     1       4.414   4.452  17.760  0.00  0.00    +0.000 A 
ATOM     10  C   UNL     1       5.523   5.278  17.988  0.00  0.00    +0.000 A 
ATOM     11  C   UNL     1       6.444   5.512  16.957  0.00  0.00    +0.000 A 
ATOM     12  C   UNL     1       6.276   4.906  15.706  0.00  0.00    +0.000 A 
ATOM     13  C   UNL     1       5.208   4.033  15.501  0.00  0.00    +0.000 A 
ATOM     14  C   UNL     1       4.291   3.797  16.526  0.00  0.00    +0.000 A 
BRANCH  12  15
ATOM     15  C   UNL     1       7.185   5.178  14.633  0.00  0.00    +0.000 C 
ATOM     16  N   UNL     1       7.928   5.410  13.770  0.00  0.00    +0.000 NA
ENDBRANCH  12  15
ENDBRANCH   6   9
BRANCH   5  17
ATOM     17  S   UNL     1       2.536   7.622  18.775  0.00  0.00    +0.000 S 
ATOM     18  O   UNL     1       3.076   7.386  20.101  0.00  0.00    +0.000 OA
ATOM     19  O   UNL     1       3.402   8.103  17.722  0.00  0.00    +0.000 OA
BRANCH  17  20
ATOM     20  C   UNL     1       1.182   8.756  18.930  0.00  0.00    +0.000 A 
ATOM     21  C   UNL     1       0.555   9.229  17.769  0.00  0.00    +0.000 A 
ATOM     22  C   UNL     1      -0.504  10.122  17.885  0.00  0.00    +0.000 A 
ATOM     23  C   UNL     1      -0.927  10.527  19.146  0.00  0.00    +0.000 A 
ATOM     24  C   UNL     1      -0.288  10.051  20.307  0.00  0.00    +0.000 A 
ATOM     25  C   UNL     1      -0.711  10.454  21.579  0.00  0.00    +0.000 A 
ATOM     26  C   UNL     1      -0.082   9.959  22.711  0.00  0.00    +0.000 A 
ATOM     27  C   UNL     1       0.975   9.095  22.533  0.00  0.00    +0.000 A 
ATOM     28  N   UNL     1       1.439   8.718  21.319  0.00  0.00    +0.000 NA
ATOM     29  C   UNL     1       0.797   9.150  20.211  0.00  0.00    +0.000 A 
ENDBRANCH  17  20
ENDBRANCH   5  17
TORSDOF 4
ENDMDL
MODEL 2
REMARK VINA RESULT:      -7.1      2.137      2.581
REMARK  Name = 
REMARK  5 active torsions:
REMARK  status: ('A' for Active; 'I' for Inactive)
REMARK    1  A    between atoms: C_1  and  C_2
REMARK    2  A    between atoms: N_5  and  S_6
REMARK    3  A    between atoms: S_6  and  C_9
REMARK    4  A    between atoms: N_19  and  C_20
REMARK    5  A    between atoms: C_23  and  C_24
REMARK                            x       y       z     vdW  Elec       q    Type
REMARK                         _______ _______ _______ _____ _____    ______ ____
ROOT
ATOM      1  C   UNL     1       3.690   0.994  18.343  0.00  0.00    +0.000 C 
ATOM      2  C   UNL     1       3.801   2.465  18.230  0.00  0.00    +0.000 A 
ATOM      3  N   UNL     1       2.695   3.267  18.142  0.00  0.00    +0.000 NA
ATOM      4  C   UNL     1       3.209   4.474  18.116  0.00  0.00    +0.000 A 
ATOM      5  N   UNL     1       2.360   5.617  18.116  0.00  0.00    +0.000 N 
ATOM      6  N   UNL     1       4.601   4.407  18.103  0.00  0.00    +0.000 N 
ATOM      7  N   UNL     1       4.978   3.103  18.220  0.00  0.00    +0.000 NA
ATOM      8  H   UNL     1       1.408   5.370  17.826  0.00  0.00    +0.000 HD
ENDROOT
BRANCH   6   9
ATOM      9  C   UNL     1       5.547   5.460  17.962  0.00  0.00    +0.000 A 
ATOM     10  C   UNL     1       6.767   5.403  18.650  0.00  0.00    +0.000 A 
ATOM     11  C   UNL     1       7.643   6.497  18.613  0.00  0.00    +0.000 A 
ATOM     12  C   UNL     1       7.317   7.639  17.872  0.00  0.00    +0.000 A 
ATOM     13  C   UNL     1       6.134   7.669  17.135  0.00  0.00    +0.000 A 
ATOM     14  C   UNL     1       5.261   6.581  17.169  0.00  0.00    +0.000 A 
BRANCH  12  15
ATOM     15  C   UNL     1       8.184   8.780  17.867  0.00  0.00    +0.000 C 
ATOM     16  N   UNL     1       8.879   9.711  17.852  0.00  0.00    +0.000 NA
ENDBRANCH  12  15
ENDBRANCH   6   9
BRANCH   5  17
ATOM     17  S   UNL     1       2.240   6.318  19.674  0.00  0.00    +0.000 S 
ATOM     18  O   UNL     1       1.117   5.722  20.374  0.00  0.00    +0.000 OA
ATOM     19  O   UNL     1       3.554   6.297  20.275  0.00  0.00    +0.000 OA
BRANCH  17  20
ATOM     20  C   UNL     1       1.829   8.006  19.318  0.00  0.00    +0.000 A 
ATOM     21  C   UNL     1       2.132   8.526  18.051  0.00  0.00    +0.000 A 
ATOM     22  C   UNL     1       1.815   9.850  17.769  0.00  0.00    +0.000 A 
ATOM     23  C   UNL     1       1.201  10.633  18.739  0.00  0.00    +0.000 A 
ATOM     24  C   UNL     1       0.905  10.103  20.010  0.00  0.00    +0.000 A 
ATOM     25  C   UNL     1       0.286  10.887  20.991  0.00  0.00    +0.000 A 
ATOM     26  C   UNL     1      -0.015  10.342  22.230  0.00  0.00    +0.000 A 
ATOM     27  C   UNL     1       0.342   9.031  22.459  0.00  0.00    +0.000 A 
ATOM     28  N   UNL     1       0.981   8.258  21.551  0.00  0.00    +0.000 NA
ATOM     29  C   UNL     1       1.228   8.763  20.322  0.00  0.00    +0.000 A 
ENDBRANCH  17  20
ENDBRANCH   5  17
TORSDOF 4
ENDMDL
MODEL 3
REMARK VINA RESULT:      -7.1      6.333      8.502
REMARK  Name = 
REMARK  5 active torsions:
REMARK  status: ('A' for Active; 'I' for Inactive)
REMARK    1  A    between atoms: C_1  and  C_2
REMARK    2  A    between atoms: N_5  and  S_6
REMARK    3  A    between atoms: S_6  and  C_9
REMARK    4  A    between atoms: N_19  and  C_20
REMARK    5  A    between atoms: C_23  and  C_24
REMARK                            x       y       z     vdW  Elec       q    Type
REMARK                         _______ _______ _______ _____ _____    ______ ____
ROOT
ATOM      1  C   UNL     1       0.112   9.288  23.628  0.00  0.00    +0.000 C 
ATOM      2  C   UNL     1      -0.274  10.185  22.515  0.00  0.00    +0.000 A 
ATOM      3  N   UNL     1      -0.299  11.545  22.662  0.00  0.00    +0.000 NA
ATOM      4  C   UNL     1      -0.627  11.963  21.462  0.00  0.00    +0.000 A 
ATOM      5  N   UNL     1      -0.673  13.357  21.174  0.00  0.00    +0.000 N 
ATOM      6  N   UNL     1      -0.879  10.879  20.624  0.00  0.00    +0.000 N 
ATOM      7  N   UNL     1      -0.606   9.729  21.302  0.00  0.00    +0.000 NA
ATOM      8  H   UNL     1      -0.740  13.910  22.035  0.00  0.00    +0.000 HD
ENDROOT
BRANCH   6   9
ATOM      9  C   UNL     1      -1.368  10.874  19.288  0.00  0.00    +0.000 A 
ATOM     10  C   UNL     1      -2.442  11.702  18.932  0.00  0.00    +0.000 A 
ATOM     11  C   UNL     1      -3.005  11.605  17.652  0.00  0.00    +0.000 A 
ATOM     12  C   UNL     1      -2.486  10.701  16.717  0.00  0.00    +0.000 A 
ATOM     13  C   UNL     1      -1.377   9.926  17.050  0.00  0.00    +0.000 A 
ATOM     14  C   UNL     1      -0.812  10.022  18.323  0.00  0.00    +0.000 A 
BRANCH  12  15
ATOM     15  C   UNL     1      -3.086  10.561  15.423  0.00  0.00    +0.000 C 
ATOM     16  N   UNL     1      -3.560  10.451  14.368  0.00  0.00    +0.000 NA
ENDBRANCH  12  15
ENDBRANCH   6   9
BRANCH   5  17
ATOM     17  S   UNL     1       0.734  13.882  20.353  0.00  0.00    +0.000 S 
ATOM     18  O   UNL     1       1.748  14.233  21.330  0.00  0.00    +0.000 OA
ATOM     19  O   UNL     1       1.036  12.916  19.321  0.00  0.00    +0.000 OA
BRANCH  17  20
ATOM     20  C   UNL     1       0.197  15.376  19.563  0.00  0.00    +0.000 A 
ATOM     21  C   UNL     1      -1.088  15.866  19.837  0.00  0.00    +0.000 A 
ATOM     22  C   UNL     1      -1.515  17.034  19.216  0.00  0.00    +0.000 A 
ATOM     23  C   UNL     1      -0.664  17.699  18.341  0.00  0.00    +0.000 A 
ATOM     24  C   UNL     1       0.623  17.198  18.068  0.00  0.00    +0.000 A 
ATOM     25  C   UNL     1       1.485  17.864  17.188  0.00  0.00    +0.000 A 
ATOM     26  C   UNL     1       2.756  17.364  16.947  0.00  0.00    +0.000 A 
ATOM     27  C   UNL     1       3.115  16.192  17.573  0.00  0.00    +0.000 A 
ATOM     28  N   UNL     1       2.293  15.498  18.394  0.00  0.00    +0.000 NA
ATOM     29  C   UNL     1       1.074  16.006  18.680  0.00  0.00    +0.000 A 
ENDBRANCH  17  20
ENDBRANCH   5  17
TORSDOF 4
ENDMDL
MODEL 4
REMARK VINA RESULT:      -7.1      5.986      9.522
REMARK  Name = 
REMARK  5 active torsions:
REMARK  status: ('A' for Active; 'I' for Inactive)
REMARK    1  A    between atoms: C_1  and  C_2
REMARK    2  A    between atoms: N_5  and  S_6
REMARK    3  A    between atoms: S_6  and  C_9
REMARK    4  A    between atoms: N_19  and  C_20
REMARK    5  A    between atoms: C_23  and  C_24
REMARK                            x       y       z     vdW  Elec       q    Type
REMARK                         _______ _______ _______ _____ _____    ______ ____
ROOT
ATOM      1  C   UNL     1      -3.184   9.951  13.731  0.00  0.00    +0.000 C 
ATOM      2  C   UNL     1      -3.193  10.202  15.190  0.00  0.00    +0.000 A 
ATOM      3  N   UNL     1      -2.139   9.846  15.988  0.00  0.00    +0.000 NA
ATOM      4  C   UNL     1      -2.507  10.280  17.170  0.00  0.00    +0.000 A 
ATOM      5  N   UNL     1      -1.622  10.178  18.281  0.00  0.00    +0.000 N 
ATOM      6  N   UNL     1      -3.793  10.813  17.110  0.00  0.00    +0.000 N 
ATOM      7  N   UNL     1      -4.215  10.798  15.815  0.00  0.00    +0.000 NA
ATOM      8  H   UNL     1      -0.887   9.485  18.104  0.00  0.00    +0.000 HD
ENDROOT
BRANCH   6   9
ATOM      9  C   UNL     1      -4.616  11.287  18.171  0.00  0.00    +0.000 A 
ATOM     10  C   UNL     1      -4.259  12.449  18.869  0.00  0.00    +0.000 A 
ATOM     11  C   UNL     1      -4.999  12.844  19.992  0.00  0.00    +0.000 A 
ATOM     12  C   UNL     1      -6.108  12.098  20.408  0.00  0.00    +0.000 A 
ATOM     13  C   UNL     1      -6.501  10.980  19.674  0.00  0.00    +0.000 A 
ATOM     14  C   UNL     1      -5.768  10.585  18.554  0.00  0.00    +0.000 A 
BRANCH  12  15
ATOM     15  C   UNL     1      -6.840  12.467  21.583  0.00  0.00    +0.000 C 
ATOM     16  N   UNL     1      -7.425  12.778  22.538  0.00  0.00    +0.000 NA
ENDBRANCH  12  15
ENDBRANCH   6   9
BRANCH   5  17
ATOM     17  S   UNL     1      -0.839  11.665  18.607  0.00  0.00    +0.000 S 
ATOM     18  O   UNL     1       0.582  11.514  18.356  0.00  0.00    +0.000 OA
ATOM     19  O   UNL     1      -1.578  12.715  17.943  0.00  0.00    +0.000 OA
BRANCH  17  20
ATOM     20  C   UNL     1      -1.067  11.857  20.355  0.00  0.00    +0.000 A 
ATOM     21  C   UNL     1      -1.602  13.059  20.843  0.00  0.00    +0.000 A 
ATOM     22  C   UNL     1      -1.779  13.216  22.212  0.00  0.00    +0.000 A 
ATOM     23  C   UNL     1      -1.430  12.183  23.074  0.00  0.00    +0.000 A 
ATOM     24  C   UNL     1      -0.889  10.982  22.577  0.00  0.00    +0.000 A 
ATOM     25  C   UNL     1      -0.537   9.938  23.441  0.00  0.00    +0.000 A 
ATOM     26  C   UNL     1      -0.024   8.755  22.929  0.00  0.00    +0.000 A 
ATOM     27  C   UNL     1       0.149   8.666  21.566  0.00  0.00    +0.000 A 
ATOM     28  N   UNL     1      -0.138   9.670  20.706  0.00  0.00    +0.000 NA
ATOM     29  C   UNL     1      -0.691  10.805  21.189  0.00  0.00    +0.000 A 
ENDBRANCH  17  20
ENDBRANCH   5  17
TORSDOF 4
ENDMDL
MODEL 5
REMARK VINA RESULT:      -7.1      3.123      8.922
REMARK  Name = 
REMARK  5 active torsions:
REMARK  status: ('A' for Active; 'I' for Inactive)
REMARK    1  A    between atoms: C_1  and  C_2
REMARK    2  A    between atoms: N_5  and  S_6
REMARK    3  A    between atoms: S_6  and  C_9
REMARK    4  A    between atoms: N_19  and  C_20
REMARK    5  A    between atoms: C_23  and  C_24
REMARK                            x       y       z     vdW  Elec       q    Type
REMARK                         _______ _______ _______ _____ _____    ______ ____
ROOT
ATOM      1  C   UNL     1       3.102  13.831  18.682  0.00  0.00    +0.000 C 
ATOM      2  C   UNL     1       2.032  12.927  19.158  0.00  0.00    +0.000 A 
ATOM      3  N   UNL     1       1.830  11.693  18.601  0.00  0.00    +0.000 NA
ATOM      4  C   UNL     1       0.853  11.201  19.325  0.00  0.00    +0.000 A 
ATOM      5  N   UNL     1       0.401   9.868  19.111  0.00  0.00    +0.000 N 
ATOM      6  N   UNL     1       0.412  12.146  20.249  0.00  0.00    +0.000 N 
ATOM      7  N   UNL     1       1.210  13.247  20.164  0.00  0.00    +0.000 NA
ATOM      8  H   UNL     1       0.690   9.523  18.189  0.00  0.00    +0.000 HD
ENDROOT
BRANCH   6   9
ATOM      9  C   UNL     1      -0.691  12.075  21.146  0.00  0.00    +0.000 A 
ATOM     10  C   UNL     1      -1.880  12.755  20.849  0.00  0.00    +0.000 A 
ATOM     11  C   UNL     1      -2.918  12.790  21.790  0.00  0.00    +0.000 A 
ATOM     12  C   UNL     1      -2.785  12.129  23.017  0.00  0.00    +0.000 A 
ATOM     13  C   UNL     1      -1.628  11.397  23.283  0.00  0.00    +0.000 A 
ATOM     14  C   UNL     1      -0.593  11.360  22.348  0.00  0.00    +0.000 A 
BRANCH  12  15
ATOM     15  C   UNL     1      -3.822  12.199  24.003  0.00  0.00    +0.000 C 
ATOM     16  N   UNL     1      -4.656  12.246  24.811  0.00  0.00    +0.000 NA
ENDBRANCH  12  15
ENDBRANCH   6   9
BRANCH   5  17
ATOM     17  S   UNL     1       1.046   8.786  20.271  0.00  0.00    +0.000 S 
ATOM     18  O   UNL     1       1.877   9.529  21.199  0.00  0.00    +0.000 OA
ATOM     19  O   UNL     1      -0.037   7.970  20.772  0.00  0.00    +0.000 OA
BRANCH  17  20
ATOM     20  C   UNL     1       2.106   7.748  19.298  0.00  0.00    +0.000 A 
ATOM     21  C   UNL     1       2.698   8.276  18.142  0.00  0.00    +0.000 A 
ATOM     22  C   UNL     1       3.526   7.466  17.374  0.00  0.00    +0.000 A 
ATOM     23  C   UNL     1       3.757   6.152  17.764  0.00  0.00    +0.000 A 
ATOM     24  C   UNL     1       3.155   5.629  18.924  0.00  0.00    +0.000 A 
ATOM     25  C   UNL     1       3.385   4.306  19.322  0.00  0.00    +0.000 A 
ATOM     26  C   UNL     1       2.797   3.815  20.479  0.00  0.00    +0.000 A 
ATOM     27  C   UNL     1       1.969   4.658  21.187  0.00  0.00    +0.000 A 
ATOM     28  N   UNL     1       1.689   5.926  20.808  0.00  0.00    +0.000 NA
ATOM     29  C   UNL     1       2.301   6.432  19.714  0.00  0.00    +0.000 A 
ENDBRANCH  17  20
ENDBRANCH   5  17
TORSDOF 4
ENDMDL
MODEL 6
REMARK VINA RESULT:      -7.0      6.843     10.885
REMARK  Name = 
REMARK  5 active torsions:
REMARK  status: ('A' for Active; 'I' for Inactive)
REMARK    1  A    between atoms: C_1  and  C_2
REMARK    2  A    between atoms: N_5  and  S_6
REMARK    3  A    between atoms: S_6  and  C_9
REMARK    4  A    between atoms: N_19  and  C_20
REMARK    5  A    between atoms: C_23  and  C_24
REMARK                            x       y       z     vdW  Elec       q    Type
REMARK                         _______ _______ _______ _____ _____    ______ ____
ROOT
ATOM      1  C   UNL     1      -0.054   9.050  22.320  0.00  0.00    +0.000 C 
ATOM      2  C   UNL     1      -0.319  10.506  22.338  0.00  0.00    +0.000 A 
ATOM      3  N   UNL     1       0.422  11.382  21.592  0.00  0.00    +0.000 NA
ATOM      4  C   UNL     1      -0.152  12.536  21.839  0.00  0.00    +0.000 A 
ATOM      5  N   UNL     1       0.281  13.714  21.166  0.00  0.00    +0.000 N 
ATOM      6  N   UNL     1      -1.168  12.379  22.780  0.00  0.00    +0.000 N 
ATOM      7  N   UNL     1      -1.298  11.053  23.067  0.00  0.00    +0.000 NA
ATOM      8  H   UNL     1       1.220  13.589  20.772  0.00  0.00    +0.000 HD
ENDROOT
BRANCH   6   9
ATOM      9  C   UNL     1      -1.964  13.374  23.413  0.00  0.00    +0.000 A 
ATOM     10  C   UNL     1      -3.361  13.263  23.406  0.00  0.00    +0.000 A 
ATOM     11  C   UNL     1      -4.147  14.305  23.917  0.00  0.00    +0.000 A 
ATOM     12  C   UNL     1      -3.545  15.448  24.457  0.00  0.00    +0.000 A 
ATOM     13  C   UNL     1      -2.155  15.527  24.524  0.00  0.00    +0.000 A 
ATOM     14  C   UNL     1      -1.369  14.491  24.018  0.00  0.00    +0.000 A 
BRANCH  12  15
ATOM     15  C   UNL     1      -4.342  16.538  24.937  0.00  0.00    +0.000 C 
ATOM     16  N   UNL     1      -4.991  17.425  25.313  0.00  0.00    +0.000 NA
ENDBRANCH  12  15
ENDBRANCH   6   9
BRANCH   5  17
ATOM     17  S   UNL     1      -0.756  14.119  19.866  0.00  0.00    +0.000 S 
ATOM     18  O   UNL     1      -0.804  13.007  18.936  0.00  0.00    +0.000 OA
ATOM     19  O   UNL     1      -1.982  14.647  20.420  0.00  0.00    +0.000 OA
BRANCH  17  20
ATOM     20  C   UNL     1       0.104  15.454  19.076  0.00  0.00    +0.000 A 
ATOM     21  C   UNL     1      -0.570  16.665  18.862  0.00  0.00    +0.000 A 
ATOM     22  C   UNL     1       0.099  17.713  18.239  0.00  0.00    +0.000 A 
ATOM     23  C   UNL     1       1.421  17.547  17.844  0.00  0.00    +0.000 A 
ATOM     24  C   UNL     1       2.088  16.326  18.058  0.00  0.00    +0.000 A 
ATOM     25  C   UNL     1       3.421  16.154  17.663  0.00  0.00    +0.000 A 
ATOM     26  C   UNL     1       4.067  14.950  17.900  0.00  0.00    +0.000 A 
ATOM     27  C   UNL     1       3.347  13.942  18.501  0.00  0.00    +0.000 A 
ATOM     28  N   UNL     1       2.046  14.057  18.856  0.00  0.00    +0.000 NA
ATOM     29  C   UNL     1       1.425  15.244  18.680  0.00  0.00    +0.000 A 
ENDBRANCH  17  20
ENDBRANCH   5  17
TORSDOF 4
ENDMDL
MODEL 7
REMARK VINA RESULT:      -7.0      6.841      9.796
REMARK  Name = 
REMARK  5 active torsions:
REMARK  status: ('A' for Active; 'I' for Inactive)
REMARK    1  A    between atoms: C_1  and  C_2
REMARK    2  A    between atoms: N_5  and  S_6
REMARK    3  A    between atoms: S_6  and  C_9
REMARK    4  A    between atoms: N_19  and  C_20
REMARK    5  A    between atoms: C_23  and  C_24
REMARK                            x       y       z     vdW  Elec       q    Type
REMARK                         _______ _______ _______ _____ _____    ______ ____
ROOT
ATOM      1  C   UNL     1      -2.052  18.218  25.043  0.00  0.00    +0.000 C 
ATOM      2  C   UNL     1      -1.652  16.996  24.310  0.00  0.00    +0.000 A 
ATOM      3  N   UNL     1      -2.027  15.749  24.731  0.00  0.00    +0.000 NA
ATOM      4  C   UNL     1      -1.532  14.965  23.802  0.00  0.00    +0.000 A 
ATOM      5  N   UNL     1      -1.788  13.565  23.831  0.00  0.00    +0.000 N 
ATOM      6  N   UNL     1      -0.800  15.710  22.881  0.00  0.00    +0.000 N 
ATOM      7  N   UNL     1      -0.917  17.031  23.193  0.00  0.00    +0.000 NA
ATOM      8  H   UNL     1      -2.089  13.264  24.764  0.00  0.00    +0.000 HD
ENDROOT
BRANCH   6   9
ATOM      9  C   UNL     1      -0.007  15.256  21.789  0.00  0.00    +0.000 A 
ATOM     10  C   UNL     1      -0.237  15.758  20.500  0.00  0.00    +0.000 A 
ATOM     11  C   UNL     1       0.455  15.219  19.407  0.00  0.00    +0.000 A 
ATOM     12  C   UNL     1       1.393  14.197  19.596  0.00  0.00    +0.000 A 
ATOM     13  C   UNL     1       1.668  13.746  20.886  0.00  0.00    +0.000 A 
ATOM     14  C   UNL     1       0.982  14.281  21.977  0.00  0.00    +0.000 A 
BRANCH  12  15
ATOM     15  C   UNL     1       2.070  13.608  18.479  0.00  0.00    +0.000 C 
ATOM     16  N   UNL     1       2.619  13.117  17.581  0.00  0.00    +0.000 NA
ENDBRANCH  12  15
ENDBRANCH   6   9
BRANCH   5  17
ATOM     17  S   UNL     1      -3.032  13.124  22.740  0.00  0.00    +0.000 S 
ATOM     18  O   UNL     1      -3.874  12.122  23.366  0.00  0.00    +0.000 OA
ATOM     19  O   UNL     1      -3.623  14.337  22.222  0.00  0.00    +0.000 OA
BRANCH  17  20
ATOM     20  C   UNL     1      -2.142  12.343  21.420  0.00  0.00    +0.000 A 
ATOM     21  C   UNL     1      -2.343  12.791  20.106  0.00  0.00    +0.000 A 
ATOM     22  C   UNL     1      -1.651  12.179  19.068  0.00  0.00    +0.000 A 
ATOM     23  C   UNL     1      -0.770  11.141  19.346  0.00  0.00    +0.000 A 
ATOM     24  C   UNL     1      -0.578  10.694  20.667  0.00  0.00    +0.000 A 
ATOM     25  C   UNL     1       0.310   9.649  20.953  0.00  0.00    +0.000 A 
ATOM     26  C   UNL     1       0.500   9.236  22.263  0.00  0.00    +0.000 A 
ATOM     27  C   UNL     1      -0.230   9.866  23.247  0.00  0.00    +0.000 A 
ATOM     28  N   UNL     1      -1.128  10.847  23.004  0.00  0.00    +0.000 NA
ATOM     29  C   UNL     1      -1.279  11.295  21.737  0.00  0.00    +0.000 A 
ENDBRANCH  17  20
ENDBRANCH   5  17
TORSDOF 4
ENDMDL
MODEL 8
REMARK VINA RESULT:      -7.0      4.611      6.918
REMARK  Name = 
REMARK  5 active torsions:
REMARK  status: ('A' for Active; 'I' for Inactive)
REMARK    1  A    between atoms: C_1  and  C_2
REMARK    2  A    between atoms: N_5  and  S_6
REMARK    3  A    between atoms: S_6  and  C_9
REMARK    4  A    between atoms: N_19  and  C_20
REMARK    5  A    between atoms: C_23  and  C_24
REMARK                            x       y       z     vdW  Elec       q    Type
REMARK                         _______ _______ _______ _____ _____    ______ ____
ROOT
ATOM      1  C   UNL     1      -1.941  11.633  23.173  0.00  0.00    +0.000 C 
ATOM      2  C   UNL     1      -1.118  11.417  21.963  0.00  0.00    +0.000 A 
ATOM      3  N   UNL     1      -0.940  12.400  21.027  0.00  0.00    +0.000 NA
ATOM      4  C   UNL     1      -0.123  11.841  20.167  0.00  0.00    +0.000 A 
ATOM      5  N   UNL     1       0.385  12.589  19.066  0.00  0.00    +0.000 N 
ATOM      6  N   UNL     1       0.125  10.517  20.524  0.00  0.00    +0.000 N 
ATOM      7  N   UNL     1      -0.489  10.262  21.713  0.00  0.00    +0.000 NA
ATOM      8  H   UNL     1      -0.192  13.418  18.887  0.00  0.00    +0.000 HD
ENDROOT
BRANCH   6   9
ATOM      9  C   UNL     1       0.855   9.520  19.818  0.00  0.00    +0.000 A 
ATOM     10  C   UNL     1       1.401   8.430  20.510  0.00  0.00    +0.000 A 
ATOM     11  C   UNL     1       2.225   7.518  19.837  0.00  0.00    +0.000 A 
ATOM     12  C   UNL     1       2.489   7.674  18.471  0.00  0.00    +0.000 A 
ATOM     13  C   UNL     1       1.892   8.722  17.770  0.00  0.00    +0.000 A 
ATOM     14  C   UNL     1       1.069   9.631  18.437  0.00  0.00    +0.000 A 
BRANCH  12  15
ATOM     15  C   UNL     1       3.369   6.775  17.786  0.00  0.00    +0.000 C 
ATOM     16  N   UNL     1       4.082   6.036  17.243  0.00  0.00    +0.000 NA
ENDBRANCH  12  15
ENDBRANCH   6   9
BRANCH   5  17
ATOM     17  S   UNL     1       1.978  13.143  19.356  0.00  0.00    +0.000 S 
ATOM     18  O   UNL     1       2.184  13.261  20.787  0.00  0.00    +0.000 OA
ATOM     19  O   UNL     1       2.882  12.339  18.564  0.00  0.00    +0.000 OA
BRANCH  17  20
ATOM     20  C   UNL     1       1.959  14.778  18.670  0.00  0.00    +0.000 A 
ATOM     21  C   UNL     1       3.037  15.194  17.875  0.00  0.00    +0.000 A 
ATOM     22  C   UNL     1       3.029  16.477  17.339  0.00  0.00    +0.000 A 
ATOM     23  C   UNL     1       1.955  17.322  17.593  0.00  0.00    +0.000 A 
ATOM     24  C   UNL     1       0.880  16.898  18.397  0.00  0.00    +0.000 A 
ATOM     25  C   UNL     1      -0.205  17.745  18.656  0.00  0.00    +0.000 A 
ATOM     26  C   UNL     1      -1.264  17.302  19.434  0.00  0.00    +0.000 A 
ATOM     27  C   UNL     1      -1.190  16.030  19.956  0.00  0.00    +0.000 A 
ATOM     28  N   UNL     1      -0.138  15.200  19.764  0.00  0.00    +0.000 NA
ATOM     29  C   UNL     1       0.872  15.602  18.961  0.00  0.00    +0.000 A 
ENDBRANCH  17  20
ENDBRANCH   5  17
TORSDOF 4
ENDMDL
MODEL 9
REMARK VINA RESULT:      -7.0      4.897      7.399
REMARK  Name = 
REMARK  5 active torsions:
REMARK  status: ('A' for Active; 'I' for Inactive)
REMARK    1  A    between atoms: C_1  and  C_2
REMARK    2  A    between atoms: N_5  and  S_6
REMARK    3  A    between atoms: S_6  and  C_9
REMARK    4  A    between atoms: N_19  and  C_20
REMARK    5  A    between atoms: C_23  and  C_24
REMARK                            x       y       z     vdW  Elec       q    Type
REMARK                         _______ _______ _______ _____ _____    ______ ____
ROOT
ATOM      1  C   UNL     1      -2.445  12.033  23.041  0.00  0.00    +0.000 C 
ATOM      2  C   UNL     1      -1.506  11.818  21.918  0.00  0.00    +0.000 A 
ATOM      3  N   UNL     1      -1.279  12.783  20.974  0.00  0.00    +0.000 NA
ATOM      4  C   UNL     1      -0.366  12.235  20.208  0.00  0.00    +0.000 A 
ATOM      5  N   UNL     1       0.213  12.974  19.137  0.00  0.00    +0.000 N 
ATOM      6  N   UNL     1      -0.104  10.931  20.625  0.00  0.00    +0.000 N 
ATOM      7  N   UNL     1      -0.816  10.683  21.759  0.00  0.00    +0.000 NA
ATOM      8  H   UNL     1      -0.375  13.775  18.882  0.00  0.00    +0.000 HD
ENDROOT
BRANCH   6   9
ATOM      9  C   UNL     1       0.723   9.946  20.017  0.00  0.00    +0.000 A 
ATOM     10  C   UNL     1       0.993  10.007  18.642  0.00  0.00    +0.000 A 
ATOM     11  C   UNL     1       1.701   8.969  18.022  0.00  0.00    +0.000 A 
ATOM     12  C   UNL     1       2.162   7.880  18.771  0.00  0.00    +0.000 A 
ATOM     13  C   UNL     1       1.951   7.852  20.149  0.00  0.00    +0.000 A 
ATOM     14  C   UNL     1       1.248   8.886  20.770  0.00  0.00    +0.000 A 
BRANCH  12  15
ATOM     15  C   UNL     1       2.844   6.791  18.137  0.00  0.00    +0.000 C 
ATOM     16  N   UNL     1       3.384   5.902  17.619  0.00  0.00    +0.000 NA
ENDBRANCH  12  15
ENDBRANCH   6   9
BRANCH   5  17
ATOM     17  S   UNL     1       1.752  13.597  19.555  0.00  0.00    +0.000 S 
ATOM     18  O   UNL     1       1.779  13.870  20.979  0.00  0.00    +0.000 OA
ATOM     19  O   UNL     1       2.755  12.737  18.969  0.00  0.00    +0.000 OA
BRANCH  17  20
ATOM     20  C   UNL     1       1.795  15.149  18.699  0.00  0.00    +0.000 A 
ATOM     21  C   UNL     1       2.917  15.464  17.918  0.00  0.00    +0.000 A 
ATOM     22  C   UNL     1       2.958  16.682  17.249  0.00  0.00    +0.000 A 
ATOM     23  C   UNL     1       1.889  17.563  17.360  0.00  0.00    +0.000 A 
ATOM     24  C   UNL     1       0.770  17.242  18.150  0.00  0.00    +0.000 A 
ATOM     25  C   UNL     1      -0.310  18.126  18.265  0.00  0.00    +0.000 A 
ATOM     26  C   UNL     1      -1.413  17.783  19.033  0.00  0.00    +0.000 A 
ATOM     27  C   UNL     1      -1.387  16.573  19.689  0.00  0.00    +0.000 A 
ATOM     28  N   UNL     1      -0.343  15.714  19.638  0.00  0.00    +0.000 NA
ATOM     29  C   UNL     1       0.711  16.014  18.848  0.00  0.00    +0.000 A 
ENDBRANCH  17  20
ENDBRANCH   5  17
TORSDOF 4
ENDMDL
