MODEL 1
REMARK VINA RESULT:      -8.9      0.000      0.000
REMARK  Name = 
REMARK  5 active torsions:
REMARK  status: ('A' for Active; 'I' for Inactive)
REMARK    1  A    between atoms: C_6  and  N_7
REMARK    2  A    between atoms: C_8  and  C_10
REMARK    3  A    between atoms: C_15  and  O_16
REMARK    4  A    between atoms: O_16  and  C_17
REMARK    5  A    between atoms: C_17  and  C_18
REMARK                            x       y       z     vdW  Elec       q    Type
REMARK                         _______ _______ _______ _____ _____    ______ ____
ROOT
ATOM      1  N   UNL     1       2.807   7.443  18.088  0.00  0.00    +0.000 N 
ATOM      2  C   UNL     1       3.481   6.336  18.600  0.00  0.00    +0.000 C 
ATOM      3  O   UNL     1       3.300   5.884  19.725  0.00  0.00    +0.000 OA
ATOM      4  H   UNL     1       2.818   7.618  17.096  0.00  0.00    +0.000 HD
ENDROOT
BRANCH   1  10
ATOM      5  O   UNL     1      -0.864  10.762  23.350  0.00  0.00    +0.000 OA
ATOM      6  C   UNL     1      -0.308  10.298  22.363  0.00  0.00    +0.000 C 
ATOM      7  C   UNL     1       0.710   9.154  22.339  0.00  0.00    +0.000 C 
ATOM      8  C   UNL     1       0.993   9.019  20.874  0.00  0.00    +0.000 A 
ATOM      9  C   UNL     1       1.804   8.118  20.209  0.00  0.00    +0.000 A 
ATOM     10  C   UNL     1       1.939   8.265  18.825  0.00  0.00    +0.000 A 
ATOM     11  C   UNL     1       1.268   9.299  18.138  0.00  0.00    +0.000 A 
ATOM     12  C   UNL     1       0.396  10.158  18.811  0.00  0.00    +0.000 A 
ATOM     13  C   UNL     1       0.288   9.998  20.175  0.00  0.00    +0.000 A 
ATOM     14  N   UNL     1      -0.486  10.734  21.056  0.00  0.00    +0.000 N 
ATOM     15  H   UNL     1      -1.115  11.482  20.809  0.00  0.00    +0.000 HD
ENDBRANCH   1  10
BRANCH   2  16
ATOM     16  C   UNL     1       4.449   5.688  17.646  0.00  0.00    +0.000 A 
ATOM     17  C   UNL     1       5.717   6.273  17.443  0.00  0.00    +0.000 A 
ATOM     18  C   UNL     1       6.712   5.618  16.723  0.00  0.00    +0.000 A 
ATOM     19  C   UNL     1       6.455   4.364  16.190  0.00  0.00    +0.000 A 
ATOM     20  C   UNL     1       5.184   3.805  16.313  0.00  0.00    +0.000 A 
ATOM     21  C   UNL     1       4.147   4.481  16.987  0.00  0.00    +0.000 A 
BRANCH  21  22
ATOM     22  O   UNL     1       2.864   3.979  17.021  0.00  0.00    +0.000 OA
BRANCH  22  23
ATOM     23  C   UNL     1       2.743   2.657  17.566  0.00  0.00    +0.000 C 
BRANCH  23  24
ATOM     24  C   UNL     1       2.486   2.632  19.055  0.00  0.00    +0.000 A 
ATOM     25  C   UNL     1       3.498   2.372  19.978  0.00  0.00    +0.000 A 
ATOM     26  C   UNL     1       3.208   2.485  21.330  0.00  0.00    +0.000 A 
ATOM     27  N   UNL     1       1.999   2.840  21.818  0.00  0.00    +0.000 NA
ATOM     28  C   UNL     1       1.034   3.092  20.913  0.00  0.00    +0.000 A 
ATOM     29  C   UNL     1       1.226   3.009  19.542  0.00  0.00    +0.000 A 
ENDBRANCH  23  24
ENDBRANCH  22  23
ENDBRANCH  21  22
ENDBRANCH   2  16
TORSDOF 5
ENDMDL
MODEL 2
REMARK VINA RESULT:      -8.8      1.158      1.643
REMARK  Name = 
REMARK  5 active torsions:
REMARK  status: ('A' for Active; 'I' for Inactive)
REMARK    1  A    between atoms: C_6  and  N_7
REMARK    2  A    between atoms: C_8  and  C_10
REMARK    3  A    between atoms: C_15  and  O_16
REMARK    4  A    between atoms: O_16  and  C_17
REMARK    5  A    between atoms: C_17  and  C_18
REMARK                            x       y       z     vdW  Elec       q    Type
REMARK                         _______ _______ _______ _____ _____    ______ ____
ROOT
ATOM      1  N   UNL     1       3.448   7.272  18.089  0.00  0.00    +0.000 N 
ATOM      2  C   UNL     1       3.306   5.961  17.638  0.00  0.00    +0.000 C 
ATOM      3  O   UNL     1       2.240   5.357  17.612  0.00  0.00    +0.000 OA
ATOM      4  H   UNL     1       4.284   7.788  17.866  0.00  0.00    +0.000 HD
ENDROOT
BRANCH   1  10
ATOM      5  O   UNL     1      -1.112  10.327  22.784  0.00  0.00    +0.000 OA
ATOM      6  C   UNL     1      -0.401   9.900  21.884  0.00  0.00    +0.000 C 
ATOM      7  C   UNL     1       0.703   8.847  22.010  0.00  0.00    +0.000 C 
ATOM      8  C   UNL     1       1.177   8.719  20.595  0.00  0.00    +0.000 A 
ATOM      9  C   UNL     1       2.136   7.883  20.055  0.00  0.00    +0.000 A 
ATOM     10  C   UNL     1       2.431   8.025  18.696  0.00  0.00    +0.000 A 
ATOM     11  C   UNL     1       1.768   8.991  17.908  0.00  0.00    +0.000 A 
ATOM     12  C   UNL     1       0.751   9.781  18.450  0.00  0.00    +0.000 A 
ATOM     13  C   UNL     1       0.487   9.628  19.793  0.00  0.00    +0.000 A 
ATOM     14  N   UNL     1      -0.450  10.305  20.556  0.00  0.00    +0.000 N 
ATOM     15  H   UNL     1      -1.103  10.995  20.217  0.00  0.00    +0.000 HD
ENDBRANCH   1  10
BRANCH   2  16
ATOM     16  C   UNL     1       4.575   5.324  17.135  0.00  0.00    +0.000 A 
ATOM     17  C   UNL     1       4.851   5.332  15.751  0.00  0.00    +0.000 A 
ATOM     18  C   UNL     1       6.088   4.929  15.256  0.00  0.00    +0.000 A 
ATOM     19  C   UNL     1       7.071   4.507  16.137  0.00  0.00    +0.000 A 
ATOM     20  C   UNL     1       6.790   4.417  17.500  0.00  0.00    +0.000 A 
ATOM     21  C   UNL     1       5.524   4.764  18.012  0.00  0.00    +0.000 A 
BRANCH  21  22
ATOM     22  O   UNL     1       5.209   4.579  19.340  0.00  0.00    +0.000 OA
BRANCH  22  23
ATOM     23  C   UNL     1       4.814   3.244  19.691  0.00  0.00    +0.000 C 
BRANCH  23  24
ATOM     24  C   UNL     1       3.318   3.053  19.774  0.00  0.00    +0.000 A 
ATOM     25  C   UNL     1       2.524   3.784  20.658  0.00  0.00    +0.000 A 
ATOM     26  C   UNL     1       1.147   3.637  20.589  0.00  0.00    +0.000 A 
ATOM     27  N   UNL     1       0.514   2.828  19.710  0.00  0.00    +0.000 NA
ATOM     28  C   UNL     1       1.295   2.132  18.861  0.00  0.00    +0.000 A 
ATOM     29  C   UNL     1       2.679   2.213  18.850  0.00  0.00    +0.000 A 
ENDBRANCH  23  24
ENDBRANCH  22  23
ENDBRANCH  21  22
ENDBRANCH   2  16
TORSDOF 5
ENDMDL
MODEL 3
REMARK VINA RESULT:      -8.8      1.282      1.381
REMARK  Name = 
REMARK  5 active torsions:
REMARK  status: ('A' for Active; 'I' for Inactive)
REMARK    1  A    between atoms: C_6  and  N_7
REMARK    2  A    between atoms: C_8  and  C_10
REMARK    3  A    between atoms: C_15  and  O_16
REMARK    4  A    between atoms: O_16  and  C_17
REMARK    5  A    between atoms: C_17  and  C_18
REMARK                            x       y       z     vdW  Elec       q    Type
REMARK                         _______ _______ _______ _____ _____    ______ ____
ROOT
ATOM      1  N   UNL     1       3.100   6.599  17.681  0.00  0.00    +0.000 N 
ATOM      2  C   UNL     1       4.439   6.738  17.322  0.00  0.00    +0.000 C 
ATOM      3  O   UNL     1       5.166   7.640  17.722  0.00  0.00    +0.000 OA
ATOM      4  H   UNL     1       2.629   5.724  17.519  0.00  0.00    +0.000 HD
ENDROOT
BRANCH   1  10
ATOM      5  O   UNL     1      -0.014  10.367  22.999  0.00  0.00    +0.000 OA
ATOM      6  C   UNL     1       0.463   9.837  22.004  0.00  0.00    +0.000 C 
ATOM      7  C   UNL     1       1.290   8.549  21.961  0.00  0.00    +0.000 C 
ATOM      8  C   UNL     1       1.551   8.394  20.494  0.00  0.00    +0.000 A 
ATOM      9  C   UNL     1       2.212   7.388  19.814  0.00  0.00    +0.000 A 
ATOM     10  C   UNL     1       2.370   7.534  18.432  0.00  0.00    +0.000 A 
ATOM     11  C   UNL     1       1.870   8.671  17.762  0.00  0.00    +0.000 A 
ATOM     12  C   UNL     1       1.142   9.645  18.450  0.00  0.00    +0.000 A 
ATOM     13  C   UNL     1       1.009   9.483  19.812  0.00  0.00    +0.000 A 
ATOM     14  N   UNL     1       0.357  10.317  20.705  0.00  0.00    +0.000 N 
ATOM     15  H   UNL     1      -0.147  11.158  20.471  0.00  0.00    +0.000 HD
ENDBRANCH   1  10
BRANCH   2  16
ATOM     16  C   UNL     1       4.965   5.660  16.411  0.00  0.00    +0.000 A 
ATOM     17  C   UNL     1       5.288   5.980  15.075  0.00  0.00    +0.000 A 
ATOM     18  C   UNL     1       5.951   5.074  14.252  0.00  0.00    +0.000 A 
ATOM     19  C   UNL     1       6.299   3.828  14.750  0.00  0.00    +0.000 A 
ATOM     20  C   UNL     1       5.918   3.465  16.042  0.00  0.00    +0.000 A 
ATOM     21  C   UNL     1       5.195   4.348  16.868  0.00  0.00    +0.000 A 
BRANCH  21  22
ATOM     22  O   UNL     1       4.727   3.957  18.104  0.00  0.00    +0.000 OA
BRANCH  22  23
ATOM     23  C   UNL     1       3.802   2.860  18.084  0.00  0.00    +0.000 C 
BRANCH  23  24
ATOM     24  C   UNL     1       2.871   2.825  19.273  0.00  0.00    +0.000 A 
ATOM     25  C   UNL     1       3.327   2.561  20.564  0.00  0.00    +0.000 A 
ATOM     26  C   UNL     1       2.431   2.666  21.618  0.00  0.00    +0.000 A 
ATOM     27  N   UNL     1       1.133   3.015  21.478  0.00  0.00    +0.000 NA
ATOM     28  C   UNL     1       0.710   3.270  20.224  0.00  0.00    +0.000 A 
ATOM     29  C   UNL     1       1.528   3.196  19.108  0.00  0.00    +0.000 A 
ENDBRANCH  23  24
ENDBRANCH  22  23
ENDBRANCH  21  22
ENDBRANCH   2  16
TORSDOF 5
ENDMDL
MODEL 4
REMARK VINA RESULT:      -8.7      1.443      2.026
REMARK  Name = 
REMARK  5 active torsions:
REMARK  status: ('A' for Active; 'I' for Inactive)
REMARK    1  A    between atoms: C_6  and  N_7
REMARK    2  A    between atoms: C_8  and  C_10
REMARK    3  A    between atoms: C_15  and  O_16
REMARK    4  A    between atoms: O_16  and  C_17
REMARK    5  A    between atoms: C_17  and  C_18
REMARK                            x       y       z     vdW  Elec       q    Type
REMARK                         _______ _______ _______ _____ _____    ______ ____
ROOT
ATOM      1  N   UNL     1       3.246   6.389  17.746  0.00  0.00    +0.000 N 
ATOM      2  C   UNL     1       4.566   6.561  17.332  0.00  0.00    +0.000 C 
ATOM      3  O   UNL     1       5.302   7.450  17.743  0.00  0.00    +0.000 OA
ATOM      4  H   UNL     1       2.776   5.518  17.563  0.00  0.00    +0.000 HD
ENDROOT
BRANCH   1  10
ATOM      5  O   UNL     1      -0.612  11.897  20.385  0.00  0.00    +0.000 OA
ATOM      6  C   UNL     1       0.032  10.902  20.077  0.00  0.00    +0.000 C 
ATOM      7  C   UNL     1       0.601  10.572  18.694  0.00  0.00    +0.000 C 
ATOM      8  C   UNL     1       1.304   9.274  18.946  0.00  0.00    +0.000 A 
ATOM      9  C   UNL     1       2.055   8.492  18.088  0.00  0.00    +0.000 A 
ATOM     10  C   UNL     1       2.545   7.278  18.577  0.00  0.00    +0.000 A 
ATOM     11  C   UNL     1       2.278   6.870  19.901  0.00  0.00    +0.000 A 
ATOM     12  C   UNL     1       1.578   7.701  20.780  0.00  0.00    +0.000 A 
ATOM     13  C   UNL     1       1.098   8.888  20.270  0.00  0.00    +0.000 A 
ATOM     14  N   UNL     1       0.364   9.859  20.931  0.00  0.00    +0.000 N 
ATOM     15  H   UNL     1       0.104   9.844  21.905  0.00  0.00    +0.000 HD
ENDBRANCH   1  10
BRANCH   2  16
ATOM     16  C   UNL     1       5.058   5.535  16.344  0.00  0.00    +0.000 A 
ATOM     17  C   UNL     1       5.354   5.934  15.024  0.00  0.00    +0.000 A 
ATOM     18  C   UNL     1       5.987   5.074  14.132  0.00  0.00    +0.000 A 
ATOM     19  C   UNL     1       6.331   3.796  14.543  0.00  0.00    +0.000 A 
ATOM     20  C   UNL     1       5.975   3.358  15.819  0.00  0.00    +0.000 A 
ATOM     21  C   UNL     1       5.281   4.195  16.715  0.00  0.00    +0.000 A 
BRANCH  21  22
ATOM     22  O   UNL     1       4.838   3.734  17.934  0.00  0.00    +0.000 OA
BRANCH  22  23
ATOM     23  C   UNL     1       3.722   2.832  17.874  0.00  0.00    +0.000 C 
BRANCH  23  24
ATOM     24  C   UNL     1       2.847   2.860  19.104  0.00  0.00    +0.000 A 
ATOM     25  C   UNL     1       3.350   2.603  20.379  0.00  0.00    +0.000 A 
ATOM     26  C   UNL     1       2.509   2.767  21.470  0.00  0.00    +0.000 A 
ATOM     27  N   UNL     1       1.222   3.168  21.381  0.00  0.00    +0.000 NA
ATOM     28  C   UNL     1       0.752   3.415  20.142  0.00  0.00    +0.000 A 
ATOM     29  C   UNL     1       1.514   3.284  18.992  0.00  0.00    +0.000 A 
ENDBRANCH  23  24
ENDBRANCH  22  23
ENDBRANCH  21  22
ENDBRANCH   2  16
TORSDOF 5
ENDMDL
MODEL 5
REMARK VINA RESULT:      -8.7      0.772      1.154
REMARK  Name = 
REMARK  5 active torsions:
REMARK  status: ('A' for Active; 'I' for Inactive)
REMARK    1  A    between atoms: C_6  and  N_7
REMARK    2  A    between atoms: C_8  and  C_10
REMARK    3  A    between atoms: C_15  and  O_16
REMARK    4  A    between atoms: O_16  and  C_17
REMARK    5  A    between atoms: C_17  and  C_18
REMARK                            x       y       z     vdW  Elec       q    Type
REMARK                         _______ _______ _______ _____ _____    ______ ____
ROOT
ATOM      1  N   UNL     1       3.126   7.147  17.577  0.00  0.00    +0.000 N 
ATOM      2  C   UNL     1       4.094   6.264  18.051  0.00  0.00    +0.000 C 
ATOM      3  O   UNL     1       4.284   6.029  19.239  0.00  0.00    +0.000 OA
ATOM      4  H   UNL     1       2.858   7.119  16.607  0.00  0.00    +0.000 HD
ENDROOT
BRANCH   1  10
ATOM      5  O   UNL     1      -0.272  10.304  23.115  0.00  0.00    +0.000 OA
ATOM      6  C   UNL     1       0.250   9.883  22.091  0.00  0.00    +0.000 C 
ATOM      7  C   UNL     1       1.139   8.643  21.960  0.00  0.00    +0.000 C 
ATOM      8  C   UNL     1       1.436   8.625  20.492  0.00  0.00    +0.000 A 
ATOM      9  C   UNL     1       2.159   7.711  19.746  0.00  0.00    +0.000 A 
ATOM     10  C   UNL     1       2.337   7.981  18.386  0.00  0.00    +0.000 A 
ATOM     11  C   UNL     1       1.797   9.146  17.801  0.00  0.00    +0.000 A 
ATOM     12  C   UNL     1       1.009  10.023  18.551  0.00  0.00    +0.000 A 
ATOM     13  C   UNL     1       0.856   9.741  19.890  0.00  0.00    +0.000 A 
ATOM     14  N   UNL     1       0.147  10.465  20.834  0.00  0.00    +0.000 N 
ATOM     15  H   UNL     1      -0.392  11.298  20.659  0.00  0.00    +0.000 HD
ENDBRANCH   1  10
BRANCH   2  16
ATOM     16  C   UNL     1       4.894   5.567  16.981  0.00  0.00    +0.000 A 
ATOM     17  C   UNL     1       6.087   6.159  16.514  0.00  0.00    +0.000 A 
ATOM     18  C   UNL     1       6.955   5.473  15.671  0.00  0.00    +0.000 A 
ATOM     19  C   UNL     1       6.643   4.181  15.275  0.00  0.00    +0.000 A 
ATOM     20  C   UNL     1       5.431   3.610  15.662  0.00  0.00    +0.000 A 
ATOM     21  C   UNL     1       4.513   4.313  16.467  0.00  0.00    +0.000 A 
BRANCH  21  22
ATOM     22  O   UNL     1       3.273   3.794  16.766  0.00  0.00    +0.000 OA
BRANCH  22  23
ATOM     23  C   UNL     1       3.278   2.710  17.707  0.00  0.00    +0.000 C 
BRANCH  23  24
ATOM     24  C   UNL     1       2.679   3.063  19.048  0.00  0.00    +0.000 A 
ATOM     25  C   UNL     1       1.546   3.868  19.165  0.00  0.00    +0.000 A 
ATOM     26  C   UNL     1       0.987   4.047  20.422  0.00  0.00    +0.000 A 
ATOM     27  N   UNL     1       1.467   3.483  21.552  0.00  0.00    +0.000 NA
ATOM     28  C   UNL     1       2.559   2.705  21.421  0.00  0.00    +0.000 A 
ATOM     29  C   UNL     1       3.188   2.463  20.209  0.00  0.00    +0.000 A 
ENDBRANCH  23  24
ENDBRANCH  22  23
ENDBRANCH  21  22
ENDBRANCH   2  16
TORSDOF 5
ENDMDL
MODEL 6
REMARK VINA RESULT:      -8.7      1.048      1.807
REMARK  Name = 
REMARK  5 active torsions:
REMARK  status: ('A' for Active; 'I' for Inactive)
REMARK    1  A    between atoms: C_6  and  N_7
REMARK    2  A    between atoms: C_8  and  C_10
REMARK    3  A    between atoms: C_15  and  O_16
REMARK    4  A    between atoms: O_16  and  C_17
REMARK    5  A    between atoms: C_17  and  C_18
REMARK                            x       y       z     vdW  Elec       q    Type
REMARK                         _______ _______ _______ _____ _____    ______ ____
ROOT
ATOM      1  N   UNL     1       3.209   6.753  17.872  0.00  0.00    +0.000 N 
ATOM      2  C   UNL     1       4.327   6.006  18.235  0.00  0.00    +0.000 C 
ATOM      3  O   UNL     1       4.692   5.838  19.393  0.00  0.00    +0.000 OA
ATOM      4  H   UNL     1       2.826   6.659  16.946  0.00  0.00    +0.000 HD
ENDROOT
BRANCH   1  10
ATOM      5  O   UNL     1      -0.996  11.788  20.897  0.00  0.00    +0.000 OA
ATOM      6  C   UNL     1      -0.297  10.858  20.515  0.00  0.00    +0.000 C 
ATOM      7  C   UNL     1       0.345  10.704  19.134  0.00  0.00    +0.000 C 
ATOM      8  C   UNL     1       1.092   9.413  19.279  0.00  0.00    +0.000 A 
ATOM      9  C   UNL     1       1.913   8.759  18.379  0.00  0.00    +0.000 A 
ATOM     10  C   UNL     1       2.434   7.518  18.759  0.00  0.00    +0.000 A 
ATOM     11  C   UNL     1       2.127   6.959  20.017  0.00  0.00    +0.000 A 
ATOM     12  C   UNL     1       1.354   7.662  20.945  0.00  0.00    +0.000 A 
ATOM     13  C   UNL     1       0.846   8.877  20.543  0.00  0.00    +0.000 A 
ATOM     14  N   UNL     1       0.043   9.742  21.268  0.00  0.00    +0.000 N 
ATOM     15  H   UNL     1      -0.260   9.611  22.220  0.00  0.00    +0.000 HD
ENDBRANCH   1  10
BRANCH   2  16
ATOM     16  C   UNL     1       5.064   5.369  17.085  0.00  0.00    +0.000 A 
ATOM     17  C   UNL     1       6.263   5.952  16.625  0.00  0.00    +0.000 A 
ATOM     18  C   UNL     1       7.075   5.304  15.699  0.00  0.00    +0.000 A 
ATOM     19  C   UNL     1       6.700   4.061  15.213  0.00  0.00    +0.000 A 
ATOM     20  C   UNL     1       5.480   3.506  15.597  0.00  0.00    +0.000 A 
ATOM     21  C   UNL     1       4.617   4.175  16.488  0.00  0.00    +0.000 A 
BRANCH  21  22
ATOM     22  O   UNL     1       3.367   3.679  16.788  0.00  0.00    +0.000 OA
BRANCH  22  23
ATOM     23  C   UNL     1       3.356   2.571  17.700  0.00  0.00    +0.000 C 
BRANCH  23  24
ATOM     24  C   UNL     1       2.709   2.880  19.029  0.00  0.00    +0.000 A 
ATOM     25  C   UNL     1       1.397   3.345  19.125  0.00  0.00    +0.000 A 
ATOM     26  C   UNL     1       0.835   3.490  20.385  0.00  0.00    +0.000 A 
ATOM     27  N   UNL     1       1.478   3.204  21.539  0.00  0.00    +0.000 NA
ATOM     28  C   UNL     1       2.743   2.752  21.428  0.00  0.00    +0.000 A 
ATOM     29  C   UNL     1       3.390   2.571  20.215  0.00  0.00    +0.000 A 
ENDBRANCH  23  24
ENDBRANCH  22  23
ENDBRANCH  21  22
ENDBRANCH   2  16
TORSDOF 5
ENDMDL
MODEL 7
REMARK VINA RESULT:      -8.6      1.488      2.263
REMARK  Name = 
REMARK  5 active torsions:
REMARK  status: ('A' for Active; 'I' for Inactive)
REMARK    1  A    between atoms: C_6  and  N_7
REMARK    2  A    between atoms: C_8  and  C_10
REMARK    3  A    between atoms: C_15  and  O_16
REMARK    4  A    between atoms: O_16  and  C_17
REMARK    5  A    between atoms: C_17  and  C_18
REMARK                            x       y       z     vdW  Elec       q    Type
REMARK                         _______ _______ _______ _____ _____    ______ ____
ROOT
ATOM      1  N   UNL     1       3.490   7.246  18.234  0.00  0.00    +0.000 N 
ATOM      2  C   UNL     1       3.333   5.975  17.684  0.00  0.00    +0.000 C 
ATOM      3  O   UNL     1       2.255   5.400  17.584  0.00  0.00    +0.000 OA
ATOM      4  H   UNL     1       4.342   7.756  18.073  0.00  0.00    +0.000 HD
ENDROOT
BRANCH   1  10
ATOM      5  O   UNL     1      -1.951  11.755  19.734  0.00  0.00    +0.000 OA
ATOM      6  C   UNL     1      -1.046  10.937  19.621  0.00  0.00    +0.000 C 
ATOM      7  C   UNL     1      -0.197  10.678  18.373  0.00  0.00    +0.000 C 
ATOM      8  C   UNL     1       0.745   9.616  18.851  0.00  0.00    +0.000 A 
ATOM      9  C   UNL     1       1.791   8.998  18.191  0.00  0.00    +0.000 A 
ATOM     10  C   UNL     1       2.470   7.978  18.863  0.00  0.00    +0.000 A 
ATOM     11  C   UNL     1       2.096   7.597  20.169  0.00  0.00    +0.000 A 
ATOM     12  C   UNL     1       1.084   8.277  20.851  0.00  0.00    +0.000 A 
ATOM     13  C   UNL     1       0.424   9.272  20.164  0.00  0.00    +0.000 A 
ATOM     14  N   UNL     1      -0.618  10.065  20.614  0.00  0.00    +0.000 N 
ATOM     15  H   UNL     1      -1.023  10.044  21.536  0.00  0.00    +0.000 HD
ENDBRANCH   1  10
BRANCH   2  16
ATOM     16  C   UNL     1       4.603   5.345  17.173  0.00  0.00    +0.000 A 
ATOM     17  C   UNL     1       4.893   5.395  15.793  0.00  0.00    +0.000 A 
ATOM     18  C   UNL     1       6.132   5.000  15.297  0.00  0.00    +0.000 A 
ATOM     19  C   UNL     1       7.103   4.544  16.174  0.00  0.00    +0.000 A 
ATOM     20  C   UNL     1       6.808   4.413  17.531  0.00  0.00    +0.000 A 
ATOM     21  C   UNL     1       5.539   4.752  18.041  0.00  0.00    +0.000 A 
BRANCH  21  22
ATOM     22  O   UNL     1       5.210   4.527  19.360  0.00  0.00    +0.000 OA
BRANCH  22  23
ATOM     23  C   UNL     1       4.793   3.187  19.662  0.00  0.00    +0.000 C 
BRANCH  23  24
ATOM     24  C   UNL     1       3.295   3.019  19.749  0.00  0.00    +0.000 A 
ATOM     25  C   UNL     1       2.519   3.737  20.658  0.00  0.00    +0.000 A 
ATOM     26  C   UNL     1       1.138   3.617  20.594  0.00  0.00    +0.000 A 
ATOM     27  N   UNL     1       0.487   2.845  19.696  0.00  0.00    +0.000 NA
ATOM     28  C   UNL     1       1.250   2.161  18.821  0.00  0.00    +0.000 A 
ATOM     29  C   UNL     1       2.636   2.219  18.804  0.00  0.00    +0.000 A 
ENDBRANCH  23  24
ENDBRANCH  22  23
ENDBRANCH  21  22
ENDBRANCH   2  16
TORSDOF 5
ENDMDL
MODEL 8
REMARK VINA RESULT:      -8.5      0.932      1.482
REMARK  Name = 
REMARK  5 active torsions:
REMARK  status: ('A' for Active; 'I' for Inactive)
REMARK    1  A    between atoms: C_6  and  N_7
REMARK    2  A    between atoms: C_8  and  C_10
REMARK    3  A    between atoms: C_15  and  O_16
REMARK    4  A    between atoms: O_16  and  C_17
REMARK    5  A    between atoms: C_17  and  C_18
REMARK                            x       y       z     vdW  Elec       q    Type
REMARK                         _______ _______ _______ _____ _____    ______ ____
ROOT
ATOM      1  N   UNL     1       3.002   7.072  18.055  0.00  0.00    +0.000 N 
ATOM      2  C   UNL     1       3.924   6.136  18.517  0.00  0.00    +0.000 C 
ATOM      3  O   UNL     1       4.048   5.819  19.695  0.00  0.00    +0.000 OA
ATOM      4  H   UNL     1       2.783   7.113  17.073  0.00  0.00    +0.000 HD
ENDROOT
BRANCH   1  10
ATOM      5  O   UNL     1      -1.456  12.126  20.656  0.00  0.00    +0.000 OA
ATOM      6  C   UNL     1      -0.709  11.205  20.352  0.00  0.00    +0.000 C 
ATOM      7  C   UNL     1      -0.068  10.959  18.984  0.00  0.00    +0.000 C 
ATOM      8  C   UNL     1       0.750   9.730  19.238  0.00  0.00    +0.000 A 
ATOM      9  C   UNL     1       1.601   9.043  18.392  0.00  0.00    +0.000 A 
ATOM     10  C   UNL     1       2.191   7.872  18.877  0.00  0.00    +0.000 A 
ATOM     11  C   UNL     1       1.924   7.414  20.184  0.00  0.00    +0.000 A 
ATOM     12  C   UNL     1       1.120   8.156  21.052  0.00  0.00    +0.000 A 
ATOM     13  C   UNL     1       0.542   9.300  20.548  0.00  0.00    +0.000 A 
ATOM     14  N   UNL     1      -0.303  10.182  21.200  0.00  0.00    +0.000 N 
ATOM     15  H   UNL     1      -0.592  10.123  22.164  0.00  0.00    +0.000 HD
ENDBRANCH   1  10
BRANCH   2  16
ATOM     16  C   UNL     1       4.762   5.490  17.444  0.00  0.00    +0.000 A 
ATOM     17  C   UNL     1       6.039   6.015  17.155  0.00  0.00    +0.000 A 
ATOM     18  C   UNL     1       6.924   5.347  16.313  0.00  0.00    +0.000 A 
ATOM     19  C   UNL     1       6.545   4.142  15.742  0.00  0.00    +0.000 A 
ATOM     20  C   UNL     1       5.258   3.648  15.954  0.00  0.00    +0.000 A 
ATOM     21  C   UNL     1       4.329   4.341  16.755  0.00  0.00    +0.000 A 
BRANCH  21  22
ATOM     22  O   UNL     1       3.027   3.910  16.883  0.00  0.00    +0.000 OA
BRANCH  22  23
ATOM     23  C   UNL     1       2.866   2.653  17.557  0.00  0.00    +0.000 C 
BRANCH  23  24
ATOM     24  C   UNL     1       2.524   2.786  19.022  0.00  0.00    +0.000 A 
ATOM     25  C   UNL     1       3.389   2.356  20.028  0.00  0.00    +0.000 A 
ATOM     26  C   UNL     1       3.056   2.623  21.348  0.00  0.00    +0.000 A 
ATOM     27  N   UNL     1       1.940   3.282  21.730  0.00  0.00    +0.000 NA
ATOM     28  C   UNL     1       1.116   3.694  20.746  0.00  0.00    +0.000 A 
ATOM     29  C   UNL     1       1.363   3.478  19.398  0.00  0.00    +0.000 A 
ENDBRANCH  23  24
ENDBRANCH  22  23
ENDBRANCH  21  22
ENDBRANCH   2  16
TORSDOF 5
ENDMDL
MODEL 9
REMARK VINA RESULT:      -8.3      2.324      6.924
REMARK  Name = 
REMARK  5 active torsions:
REMARK  status: ('A' for Active; 'I' for Inactive)
REMARK    1  A    between atoms: C_6  and  N_7
REMARK    2  A    between atoms: C_8  and  C_10
REMARK    3  A    between atoms: C_15  and  O_16
REMARK    4  A    between atoms: O_16  and  C_17
REMARK    5  A    between atoms: C_17  and  C_18
REMARK                            x       y       z     vdW  Elec       q    Type
REMARK                         _______ _______ _______ _____ _____    ______ ____
ROOT
ATOM      1  N   UNL     1       3.730   6.834  18.489  0.00  0.00    +0.000 N 
ATOM      2  C   UNL     1       2.769   7.800  18.199  0.00  0.00    +0.000 C 
ATOM      3  O   UNL     1       2.589   8.273  17.082  0.00  0.00    +0.000 OA
ATOM      4  H   UNL     1       3.672   6.318  19.352  0.00  0.00    +0.000 HD
ENDROOT
BRANCH   1  10
ATOM      5  O   UNL     1       7.205   3.767  12.949  0.00  0.00    +0.000 OA
ATOM      6  C   UNL     1       6.751   4.344  13.929  0.00  0.00    +0.000 C 
ATOM      7  C   UNL     1       5.286   4.379  14.372  0.00  0.00    +0.000 C 
ATOM      8  C   UNL     1       5.359   5.192  15.629  0.00  0.00    +0.000 A 
ATOM      9  C   UNL     1       4.360   5.535  16.521  0.00  0.00    +0.000 A 
ATOM     10  C   UNL     1       4.702   6.373  17.587  0.00  0.00    +0.000 A 
ATOM     11  C   UNL     1       6.022   6.847  17.741  0.00  0.00    +0.000 A 
ATOM     12  C   UNL     1       7.037   6.435  16.874  0.00  0.00    +0.000 A 
ATOM     13  C   UNL     1       6.672   5.618  15.826  0.00  0.00    +0.000 A 
ATOM     14  N   UNL     1       7.486   5.101  14.832  0.00  0.00    +0.000 N 
ATOM     15  H   UNL     1       8.483   5.229  14.756  0.00  0.00    +0.000 HD
ENDBRANCH   1  10
BRANCH   2  16
ATOM     16  C   UNL     1       1.915   8.216  19.368  0.00  0.00    +0.000 A 
ATOM     17  C   UNL     1       1.307   9.489  19.362  0.00  0.00    +0.000 A 
ATOM     18  C   UNL     1       0.364   9.847  20.320  0.00  0.00    +0.000 A 
ATOM     19  C   UNL     1       0.013   8.937  21.306  0.00  0.00    +0.000 A 
ATOM     20  C   UNL     1       0.661   7.704  21.375  0.00  0.00    +0.000 A 
ATOM     21  C   UNL     1       1.662   7.349  20.448  0.00  0.00    +0.000 A 
BRANCH  21  22
ATOM     22  O   UNL     1       2.376   6.177  20.574  0.00  0.00    +0.000 OA
BRANCH  22  23
ATOM     23  C   UNL     1       1.582   4.981  20.590  0.00  0.00    +0.000 C 
BRANCH  23  24
ATOM     24  C   UNL     1       2.109   3.887  19.692  0.00  0.00    +0.000 A 
ATOM     25  C   UNL     1       1.648   3.712  18.387  0.00  0.00    +0.000 A 
ATOM     26  C   UNL     1       2.266   2.763  17.587  0.00  0.00    +0.000 A 
ATOM     27  N   UNL     1       3.300   1.990  17.989  0.00  0.00    +0.000 NA
ATOM     28  C   UNL     1       3.735   2.174  19.251  0.00  0.00    +0.000 A 
ATOM     29  C   UNL     1       3.185   3.099  20.125  0.00  0.00    +0.000 A 
ENDBRANCH  23  24
ENDBRANCH  22  23
ENDBRANCH  21  22
ENDBRANCH   2  16
TORSDOF 5
ENDMDL
