MODEL 1
REMARK VINA RESULT:      -8.0      0.000      0.000
REMARK  Name = 
REMARK  7 active torsions:
REMARK  status: ('A' for Active; 'I' for Inactive)
REMARK    1  A    between atoms: C_1  and  O_2
REMARK    2  A    between atoms: O_2  and  C_3
REMARK    3  A    between atoms: C_6  and  C_7
REMARK    4  A    between atoms: C_8  and  C_9
REMARK    5  A    between atoms: C_9  and  O_11
REMARK    6  A    between atoms: N_20  and  C_21
REMARK    7  A    between atoms: C_21  and  C_22
REMARK                            x       y       z     vdW  Elec       q    Type
REMARK                         _______ _______ _______ _____ _____    ______ ____
ROOT
ATOM      1  C   UNL     1       0.687  10.059  20.362  0.00  0.00    +0.000 C 
ATOM      2  C   UNL     1      -0.093  10.259  21.753  0.00  0.00    +0.000 C 
ATOM      3  C   UNL     1      -0.527  11.785  21.908  0.00  0.00    +0.000 A 
ATOM      4  C   UNL     1      -1.285  12.293  22.970  0.00  0.00    +0.000 A 
ATOM      5  C   UNL     1      -1.742  13.633  22.947  0.00  0.00    +0.000 A 
ATOM      6  C   UNL     1      -1.432  14.499  21.892  0.00  0.00    +0.000 A 
ATOM      7  C   UNL     1      -0.695  14.024  20.826  0.00  0.00    +0.000 A 
ATOM      8  C   UNL     1      -0.304  12.686  20.830  0.00  0.00    +0.000 A 
ATOM      9  C   UNL     1       0.195  12.154  19.559  0.00  0.00    +0.000 C 
ATOM     10  O   UNL     1       1.010  12.768  18.883  0.00  0.00    +0.000 OA
ATOM     11  N   UNL     1      -0.128  10.822  19.384  0.00  0.00    +0.000 N 
ENDROOT
BRANCH   1  15
ATOM     12  C   UNL     1       2.970   7.018  18.117  0.00  0.00    +0.000 A 
ATOM     13  C   UNL     1       2.573   8.200  17.529  0.00  0.00    +0.000 A 
ATOM     14  C   UNL     1       1.761   9.088  18.254  0.00  0.00    +0.000 A 
ATOM     15  C   UNL     1       1.288   8.857  19.586  0.00  0.00    +0.000 A 
ATOM     16  C   UNL     1       1.687   7.647  20.152  0.00  0.00    +0.000 A 
ATOM     17  C   UNL     1       2.515   6.749  19.420  0.00  0.00    +0.000 A 
BRANCH  12  19
ATOM     18  C   UNL     1       3.956   4.822  18.227  0.00  0.00    +0.000 C 
ATOM     19  O   UNL     1       3.784   6.072  17.556  0.00  0.00    +0.000 OA
ENDBRANCH  12  19
ENDBRANCH   1  15
BRANCH   2  20
ATOM     20  C   UNL     1       0.584   9.682  22.973  0.00  0.00    +0.000 C 
ATOM     21  O   UNL     1       1.798   9.532  23.032  0.00  0.00    +0.000 OA
BRANCH  20  22
ATOM     22  O   UNL     1      -0.218   9.293  23.982  0.00  0.00    +0.000 OA
ATOM     23  H   UNL     1      -0.275   9.899  24.744  0.00  0.00    +0.000 HD
ENDBRANCH  20  22
ENDBRANCH   2  20
BRANCH  11  24
ATOM     24  C   UNL     1      -1.547  10.403  19.334  0.00  0.00    +0.000 C 
BRANCH  24  25
ATOM     25  C   UNL     1      -2.300  10.515  18.040  0.00  0.00    +0.000 A 
ATOM     26  C   UNL     1      -3.421  11.327  17.850  0.00  0.00    +0.000 A 
ATOM     27  C   UNL     1      -4.027  11.384  16.600  0.00  0.00    +0.000 A 
ATOM     28  C   UNL     1      -3.523  10.635  15.543  0.00  0.00    +0.000 A 
ATOM     29  F   UNL     1      -4.092  10.723  14.337  0.00  0.00    +0.000 F 
ATOM     30  C   UNL     1      -2.429   9.797  15.717  0.00  0.00    +0.000 A 
ATOM     31  C   UNL     1      -1.822   9.734  16.964  0.00  0.00    +0.000 A 
ENDBRANCH  24  25
ENDBRANCH  11  24
TORSDOF 6
ENDMDL
MODEL 2
REMARK VINA RESULT:      -7.6      0.645      1.081
REMARK  Name = 
REMARK  7 active torsions:
REMARK  status: ('A' for Active; 'I' for Inactive)
REMARK    1  A    between atoms: C_1  and  O_2
REMARK    2  A    between atoms: O_2  and  C_3
REMARK    3  A    between atoms: C_6  and  C_7
REMARK    4  A    between atoms: C_8  and  C_9
REMARK    5  A    between atoms: C_9  and  O_11
REMARK    6  A    between atoms: N_20  and  C_21
REMARK    7  A    between atoms: C_21  and  C_22
REMARK                            x       y       z     vdW  Elec       q    Type
REMARK                         _______ _______ _______ _____ _____    ______ ____
ROOT
ATOM      1  C   UNL     1       0.923   9.865  20.375  0.00  0.00    +0.000 C 
ATOM      2  C   UNL     1       0.051  10.055  21.713  0.00  0.00    +0.000 C 
ATOM      3  C   UNL     1      -0.551  11.530  21.754  0.00  0.00    +0.000 A 
ATOM      4  C   UNL     1      -1.417  12.009  22.745  0.00  0.00    +0.000 A 
ATOM      5  C   UNL     1      -2.013  13.287  22.618  0.00  0.00    +0.000 A 
ATOM      6  C   UNL     1      -1.740  14.122  21.529  0.00  0.00    +0.000 A 
ATOM      7  C   UNL     1      -0.899  13.674  20.531  0.00  0.00    +0.000 A 
ATOM      8  C   UNL     1      -0.368  12.390  20.635  0.00  0.00    +0.000 A 
ATOM      9  C   UNL     1       0.255  11.847  19.425  0.00  0.00    +0.000 C 
ATOM     10  O   UNL     1       1.035  12.508  18.752  0.00  0.00    +0.000 OA
ATOM     11  N   UNL     1       0.086  10.479  19.315  0.00  0.00    +0.000 N 
ENDROOT
BRANCH   1  15
ATOM     12  C   UNL     1       2.508   6.202  18.487  0.00  0.00    +0.000 A 
ATOM     13  C   UNL     1       2.136   6.225  19.814  0.00  0.00    +0.000 A 
ATOM     14  C   UNL     1       1.735   7.441  20.393  0.00  0.00    +0.000 A 
ATOM     15  C   UNL     1       1.691   8.696  19.704  0.00  0.00    +0.000 A 
ATOM     16  C   UNL     1       2.090   8.651  18.369  0.00  0.00    +0.000 A 
ATOM     17  C   UNL     1       2.491   7.418  17.780  0.00  0.00    +0.000 A 
BRANCH  12  19
ATOM     18  C   UNL     1       2.004   3.974  17.719  0.00  0.00    +0.000 C 
ATOM     19  O   UNL     1       2.888   5.097  17.776  0.00  0.00    +0.000 OA
ENDBRANCH  12  19
ENDBRANCH   1  15
BRANCH   2  20
ATOM     20  C   UNL     1       0.718   9.624  22.997  0.00  0.00    +0.000 C 
ATOM     21  O   UNL     1       1.932   9.476  23.080  0.00  0.00    +0.000 OA
BRANCH  20  22
ATOM     22  O   UNL     1      -0.091   9.362  24.040  0.00  0.00    +0.000 OA
ATOM     23  H   UNL     1      -0.811   8.723  23.875  0.00  0.00    +0.000 HD
ENDBRANCH  20  22
ENDBRANCH   2  20
BRANCH  11  24
ATOM     24  C   UNL     1      -1.276   9.904  19.222  0.00  0.00    +0.000 C 
BRANCH  24  25
ATOM     25  C   UNL     1      -2.147  10.269  18.056  0.00  0.00    +0.000 A 
ATOM     26  C   UNL     1      -3.264  11.105  18.140  0.00  0.00    +0.000 A 
ATOM     27  C   UNL     1      -3.987  11.407  16.991  0.00  0.00    +0.000 A 
ATOM     28  C   UNL     1      -3.604  10.878  15.764  0.00  0.00    +0.000 A 
ATOM     29  F   UNL     1      -4.285  11.202  14.660  0.00  0.00    +0.000 F 
ATOM     30  C   UNL     1      -2.517  10.020  15.662  0.00  0.00    +0.000 A 
ATOM     31  C   UNL     1      -1.793   9.713  16.806  0.00  0.00    +0.000 A 
ENDBRANCH  24  25
ENDBRANCH  11  24
TORSDOF 6
ENDMDL
MODEL 3
REMARK VINA RESULT:      -7.6      0.501      1.334
REMARK  Name = 
REMARK  7 active torsions:
REMARK  status: ('A' for Active; 'I' for Inactive)
REMARK    1  A    between atoms: C_1  and  O_2
REMARK    2  A    between atoms: O_2  and  C_3
REMARK    3  A    between atoms: C_6  and  C_7
REMARK    4  A    between atoms: C_8  and  C_9
REMARK    5  A    between atoms: C_9  and  O_11
REMARK    6  A    between atoms: N_20  and  C_21
REMARK    7  A    between atoms: C_21  and  C_22
REMARK                            x       y       z     vdW  Elec       q    Type
REMARK                         _______ _______ _______ _____ _____    ______ ____
ROOT
ATOM      1  C   UNL     1       0.688  10.071  20.295  0.00  0.00    +0.000 C 
ATOM      2  C   UNL     1      -0.235  10.108  21.611  0.00  0.00    +0.000 C 
ATOM      3  C   UNL     1      -0.919  11.542  21.744  0.00  0.00    +0.000 A 
ATOM      4  C   UNL     1      -1.841  11.894  22.738  0.00  0.00    +0.000 A 
ATOM      5  C   UNL     1      -2.502  13.145  22.688  0.00  0.00    +0.000 A 
ATOM      6  C   UNL     1      -2.242  14.077  21.678  0.00  0.00    +0.000 A 
ATOM      7  C   UNL     1      -1.347  13.754  20.679  0.00  0.00    +0.000 A 
ATOM      8  C   UNL     1      -0.749  12.495  20.702  0.00  0.00    +0.000 A 
ATOM      9  C   UNL     1      -0.059  12.083  19.477  0.00  0.00    +0.000 C 
ATOM     10  O   UNL     1       0.704  12.836  18.886  0.00  0.00    +0.000 OA
ATOM     11  N   UNL     1      -0.148  10.722  19.256  0.00  0.00    +0.000 N 
ENDROOT
BRANCH   1  15
ATOM     12  C   UNL     1       2.568   6.614  18.293  0.00  0.00    +0.000 A 
ATOM     13  C   UNL     1       2.318   6.613  19.648  0.00  0.00    +0.000 A 
ATOM     14  C   UNL     1       1.813   7.776  20.254  0.00  0.00    +0.000 A 
ATOM     15  C   UNL     1       1.541   9.001  19.564  0.00  0.00    +0.000 A 
ATOM     16  C   UNL     1       1.820   8.983  18.198  0.00  0.00    +0.000 A 
ATOM     17  C   UNL     1       2.326   7.803  17.582  0.00  0.00    +0.000 A 
BRANCH  12  19
ATOM     18  C   UNL     1       4.436   5.380  17.399  0.00  0.00    +0.000 C 
ATOM     19  O   UNL     1       3.025   5.555  17.557  0.00  0.00    +0.000 OA
ENDBRANCH  12  19
ENDBRANCH   1  15
BRANCH   2  20
ATOM     20  C   UNL     1       0.415   9.613  22.881  0.00  0.00    +0.000 C 
ATOM     21  O   UNL     1       1.631   9.597  23.025  0.00  0.00    +0.000 OA
BRANCH  20  22
ATOM     22  O   UNL     1      -0.409   9.141  23.836  0.00  0.00    +0.000 OA
ATOM     23  H   UNL     1      -1.009   8.420  23.568  0.00  0.00    +0.000 HD
ENDBRANCH  20  22
ENDBRANCH   2  20
BRANCH  11  24
ATOM     24  C   UNL     1      -1.472  10.085  19.070  0.00  0.00    +0.000 C 
BRANCH  24  25
ATOM     25  C   UNL     1      -2.169  10.215  17.747  0.00  0.00    +0.000 A 
ATOM     26  C   UNL     1      -1.770   9.557  16.580  0.00  0.00    +0.000 A 
ATOM     27  C   UNL     1      -2.505   9.722  15.411  0.00  0.00    +0.000 A 
ATOM     28  C   UNL     1      -3.631  10.538  15.401  0.00  0.00    +0.000 A 
ATOM     29  F   UNL     1      -4.350  10.661  14.281  0.00  0.00    +0.000 F 
ATOM     30  C   UNL     1      -4.027  11.225  16.540  0.00  0.00    +0.000 A 
ATOM     31  C   UNL     1      -3.295  11.068  17.710  0.00  0.00    +0.000 A 
ENDBRANCH  24  25
ENDBRANCH  11  24
TORSDOF 6
ENDMDL
MODEL 4
REMARK VINA RESULT:      -7.5      1.117      1.836
REMARK  Name = 
REMARK  7 active torsions:
REMARK  status: ('A' for Active; 'I' for Inactive)
REMARK    1  A    between atoms: C_1  and  O_2
REMARK    2  A    between atoms: O_2  and  C_3
REMARK    3  A    between atoms: C_6  and  C_7
REMARK    4  A    between atoms: C_8  and  C_9
REMARK    5  A    between atoms: C_9  and  O_11
REMARK    6  A    between atoms: N_20  and  C_21
REMARK    7  A    between atoms: C_21  and  C_22
REMARK                            x       y       z     vdW  Elec       q    Type
REMARK                         _______ _______ _______ _____ _____    ______ ____
ROOT
ATOM      1  C   UNL     1       1.233   9.375  20.369  0.00  0.00    +0.000 C 
ATOM      2  C   UNL     1       0.403   9.868  21.654  0.00  0.00    +0.000 C 
ATOM      3  C   UNL     1      -0.007  11.398  21.471  0.00  0.00    +0.000 A 
ATOM      4  C   UNL     1      -0.797  12.124  22.371  0.00  0.00    +0.000 A 
ATOM      5  C   UNL     1      -1.226  13.435  22.050  0.00  0.00    +0.000 A 
ATOM      6  C   UNL     1      -0.857  14.059  20.854  0.00  0.00    +0.000 A 
ATOM      7  C   UNL     1      -0.088  13.365  19.942  0.00  0.00    +0.000 A 
ATOM      8  C   UNL     1       0.276  12.053  20.240  0.00  0.00    +0.000 A 
ATOM      9  C   UNL     1       0.815  11.263  19.130  0.00  0.00    +0.000 C 
ATOM     10  O   UNL     1       1.668  11.714  18.376  0.00  0.00    +0.000 OA
ATOM     11  N   UNL     1       0.473   9.927  19.221  0.00  0.00    +0.000 N 
ENDROOT
BRANCH   1  15
ATOM     12  C   UNL     1       2.314   5.323  18.988  0.00  0.00    +0.000 A 
ATOM     13  C   UNL     1       1.844   5.547  20.264  0.00  0.00    +0.000 A 
ATOM     14  C   UNL     1       1.612   6.866  20.688  0.00  0.00    +0.000 A 
ATOM     15  C   UNL     1       1.841   8.031  19.887  0.00  0.00    +0.000 A 
ATOM     16  C   UNL     1       2.335   7.780  18.607  0.00  0.00    +0.000 A 
ATOM     17  C   UNL     1       2.564   6.442  18.175  0.00  0.00    +0.000 A 
BRANCH  12  19
ATOM     18  C   UNL     1       2.489   2.932  19.243  0.00  0.00    +0.000 C 
ATOM     19  O   UNL     1       2.555   4.100  18.421  0.00  0.00    +0.000 OA
ENDBRANCH  12  19
ENDBRANCH   1  15
BRANCH   2  20
ATOM     20  C   UNL     1       1.019   9.550  22.995  0.00  0.00    +0.000 C 
ATOM     21  O   UNL     1       0.349   9.480  24.018  0.00  0.00    +0.000 OA
BRANCH  20  22
ATOM     22  O   UNL     1       2.356   9.395  23.024  0.00  0.00    +0.000 OA
ATOM     23  H   UNL     1       2.773   9.424  23.905  0.00  0.00    +0.000 HD
ENDBRANCH  20  22
ENDBRANCH   2  20
BRANCH  11  24
ATOM     24  C   UNL     1      -0.951   9.522  19.198  0.00  0.00    +0.000 C 
BRANCH  24  25
ATOM     25  C   UNL     1      -1.868  10.125  18.174  0.00  0.00    +0.000 A 
ATOM     26  C   UNL     1      -1.830   9.825  16.809  0.00  0.00    +0.000 A 
ATOM     27  C   UNL     1      -2.747  10.416  15.947  0.00  0.00    +0.000 A 
ATOM     28  C   UNL     1      -3.697  11.304  16.439  0.00  0.00    +0.000 A 
ATOM     29  F   UNL     1      -4.596  11.840  15.608  0.00  0.00    +0.000 F 
ATOM     30  C   UNL     1      -3.734  11.641  17.785  0.00  0.00    +0.000 A 
ATOM     31  C   UNL     1      -2.819  11.056  18.650  0.00  0.00    +0.000 A 
ENDBRANCH  24  25
ENDBRANCH  11  24
TORSDOF 6
ENDMDL
MODEL 5
REMARK VINA RESULT:      -7.4      0.893      1.417
REMARK  Name = 
REMARK  7 active torsions:
REMARK  status: ('A' for Active; 'I' for Inactive)
REMARK    1  A    between atoms: C_1  and  O_2
REMARK    2  A    between atoms: O_2  and  C_3
REMARK    3  A    between atoms: C_6  and  C_7
REMARK    4  A    between atoms: C_8  and  C_9
REMARK    5  A    between atoms: C_9  and  O_11
REMARK    6  A    between atoms: N_20  and  C_21
REMARK    7  A    between atoms: C_21  and  C_22
REMARK                            x       y       z     vdW  Elec       q    Type
REMARK                         _______ _______ _______ _____ _____    ______ ____
ROOT
ATOM      1  C   UNL     1       1.078   9.541  20.152  0.00  0.00    +0.000 C 
ATOM      2  C   UNL     1       0.284   9.911  21.500  0.00  0.00    +0.000 C 
ATOM      3  C   UNL     1      -0.196  11.430  21.437  0.00  0.00    +0.000 A 
ATOM      4  C   UNL     1      -0.977  12.059  22.416  0.00  0.00    +0.000 A 
ATOM      5  C   UNL     1      -1.474  13.367  22.203  0.00  0.00    +0.000 A 
ATOM      6  C   UNL     1      -1.184  14.085  21.038  0.00  0.00    +0.000 A 
ATOM      7  C   UNL     1      -0.426  13.488  20.051  0.00  0.00    +0.000 A 
ATOM      8  C   UNL     1       0.005  12.176  20.244  0.00  0.00    +0.000 A 
ATOM      9  C   UNL     1       0.528  11.487  19.061  0.00  0.00    +0.000 C 
ATOM     10  O   UNL     1       1.328  12.024  18.307  0.00  0.00    +0.000 OA
ATOM     11  N   UNL     1       0.246  10.133  19.075  0.00  0.00    +0.000 N 
ENDROOT
BRANCH   1  15
ATOM     12  C   UNL     1       3.496   6.248  18.478  0.00  0.00    +0.000 A 
ATOM     13  C   UNL     1       3.258   7.402  17.762  0.00  0.00    +0.000 A 
ATOM     14  C   UNL     1       2.398   8.375  18.298  0.00  0.00    +0.000 A 
ATOM     15  C   UNL     1       1.720   8.261  19.555  0.00  0.00    +0.000 A 
ATOM     16  C   UNL     1       1.962   7.077  20.250  0.00  0.00    +0.000 A 
ATOM     17  C   UNL     1       2.838   6.093  19.711  0.00  0.00    +0.000 A 
BRANCH  12  19
ATOM     18  C   UNL     1       5.380   4.836  18.997  0.00  0.00    +0.000 C 
ATOM     19  O   UNL     1       4.331   5.228  18.108  0.00  0.00    +0.000 OA
ENDBRANCH  12  19
ENDBRANCH   1  15
BRANCH   2  20
ATOM     20  C   UNL     1       0.971   9.533  22.790  0.00  0.00    +0.000 C 
ATOM     21  O   UNL     1       0.366   9.470  23.853  0.00  0.00    +0.000 OA
BRANCH  20  22
ATOM     22  O   UNL     1       2.298   9.313  22.726  0.00  0.00    +0.000 OA
ATOM     23  H   UNL     1       2.834  10.033  22.344  0.00  0.00    +0.000 HD
ENDBRANCH  20  22
ENDBRANCH   2  20
BRANCH  11  24
ATOM     24  C   UNL     1      -1.160   9.668  19.082  0.00  0.00    +0.000 C 
BRANCH  24  25
ATOM     25  C   UNL     1      -2.153  10.323  18.168  0.00  0.00    +0.000 A 
ATOM     26  C   UNL     1      -2.173  10.157  16.780  0.00  0.00    +0.000 A 
ATOM     27  C   UNL     1      -3.159  10.785  16.025  0.00  0.00    +0.000 A 
ATOM     28  C   UNL     1      -4.118  11.575  16.647  0.00  0.00    +0.000 A 
ATOM     29  F   UNL     1      -5.081  12.146  15.916  0.00  0.00    +0.000 F 
ATOM     30  C   UNL     1      -4.099  11.779  18.019  0.00  0.00    +0.000 A 
ATOM     31  C   UNL     1      -3.116  11.158  18.778  0.00  0.00    +0.000 A 
ENDBRANCH  24  25
ENDBRANCH  11  24
TORSDOF 6
ENDMDL
MODEL 6
REMARK VINA RESULT:      -7.2      3.078      7.069
REMARK  Name = 
REMARK  7 active torsions:
REMARK  status: ('A' for Active; 'I' for Inactive)
REMARK    1  A    between atoms: C_1  and  O_2
REMARK    2  A    between atoms: O_2  and  C_3
REMARK    3  A    between atoms: C_6  and  C_7
REMARK    4  A    between atoms: C_8  and  C_9
REMARK    5  A    between atoms: C_9  and  O_11
REMARK    6  A    between atoms: N_20  and  C_21
REMARK    7  A    between atoms: C_21  and  C_22
REMARK                            x       y       z     vdW  Elec       q    Type
REMARK                         _______ _______ _______ _____ _____    ______ ____
ROOT
ATOM      1  C   UNL     1      -0.743  11.480  21.205  0.00  0.00    +0.000 C 
ATOM      2  C   UNL     1       0.306  10.339  21.632  0.00  0.00    +0.000 C 
ATOM      3  C   UNL     1       0.786   9.544  20.337  0.00  0.00    +0.000 A 
ATOM      4  C   UNL     1       1.753   8.530  20.339  0.00  0.00    +0.000 A 
ATOM      5  C   UNL     1       2.217   7.981  19.119  0.00  0.00    +0.000 A 
ATOM      6  C   UNL     1       1.714   8.402  17.883  0.00  0.00    +0.000 A 
ATOM      7  C   UNL     1       0.768   9.407  17.848  0.00  0.00    +0.000 A 
ATOM      8  C   UNL     1       0.365   9.984  19.051  0.00  0.00    +0.000 A 
ATOM      9  C   UNL     1      -0.390  11.235  18.948  0.00  0.00    +0.000 C 
ATOM     10  O   UNL     1      -1.315  11.363  18.157  0.00  0.00    +0.000 OA
ATOM     11  N   UNL     1      -0.131  12.094  20.000  0.00  0.00    +0.000 N 
ENDROOT
BRANCH   1  15
ATOM     12  C   UNL     1      -3.323  14.213  23.523  0.00  0.00    +0.000 A 
ATOM     13  C   UNL     1      -3.791  13.554  22.407  0.00  0.00    +0.000 A 
ATOM     14  C   UNL     1      -2.903  12.777  21.645  0.00  0.00    +0.000 A 
ATOM     15  C   UNL     1      -1.508  12.617  21.933  0.00  0.00    +0.000 A 
ATOM     16  C   UNL     1      -1.054  13.308  23.055  0.00  0.00    +0.000 A 
ATOM     17  C   UNL     1      -1.956  14.091  23.831  0.00  0.00    +0.000 A 
BRANCH  12  19
ATOM     18  C   UNL     1      -5.257  15.601  23.894  0.00  0.00    +0.000 C 
ATOM     19  O   UNL     1      -4.068  14.976  24.381  0.00  0.00    +0.000 OA
ENDBRANCH  12  19
ENDBRANCH   1  15
BRANCH   2  20
ATOM     20  C   UNL     1      -0.119   9.454  22.778  0.00  0.00    +0.000 C 
ATOM     21  O   UNL     1       0.279   9.637  23.922  0.00  0.00    +0.000 OA
BRANCH  20  22
ATOM     22  O   UNL     1      -0.924   8.418  22.476  0.00  0.00    +0.000 OA
ATOM     23  H   UNL     1      -1.137   7.811  23.209  0.00  0.00    +0.000 HD
ENDBRANCH  20  22
ENDBRANCH   2  20
BRANCH  11  24
ATOM     24  C   UNL     1       1.242  12.603  20.221  0.00  0.00    +0.000 C 
BRANCH  24  25
ATOM     25  C   UNL     1       1.712  13.803  19.452  0.00  0.00    +0.000 A 
ATOM     26  C   UNL     1       1.057  15.038  19.445  0.00  0.00    +0.000 A 
ATOM     27  C   UNL     1       1.594  16.098  18.722  0.00  0.00    +0.000 A 
ATOM     28  C   UNL     1       2.775  15.931  18.009  0.00  0.00    +0.000 A 
ATOM     29  F   UNL     1       3.301  16.966  17.347  0.00  0.00    +0.000 F 
ATOM     30  C   UNL     1       3.426  14.706  17.977  0.00  0.00    +0.000 A 
ATOM     31  C   UNL     1       2.893  13.642  18.693  0.00  0.00    +0.000 A 
ENDBRANCH  24  25
ENDBRANCH  11  24
TORSDOF 6
ENDMDL
MODEL 7
REMARK VINA RESULT:      -7.2      3.046      7.105
REMARK  Name = 
REMARK  7 active torsions:
REMARK  status: ('A' for Active; 'I' for Inactive)
REMARK    1  A    between atoms: C_1  and  O_2
REMARK    2  A    between atoms: O_2  and  C_3
REMARK    3  A    between atoms: C_6  and  C_7
REMARK    4  A    between atoms: C_8  and  C_9
REMARK    5  A    between atoms: C_9  and  O_11
REMARK    6  A    between atoms: N_20  and  C_21
REMARK    7  A    between atoms: C_21  and  C_22
REMARK                            x       y       z     vdW  Elec       q    Type
REMARK                         _______ _______ _______ _____ _____    ______ ____
ROOT
ATOM      1  C   UNL     1      -0.690  11.453  21.086  0.00  0.00    +0.000 C 
ATOM      2  C   UNL     1       0.329  10.309  21.574  0.00  0.00    +0.000 C 
ATOM      3  C   UNL     1       0.836   9.474  20.314  0.00  0.00    +0.000 A 
ATOM      4  C   UNL     1       1.787   8.447  20.371  0.00  0.00    +0.000 A 
ATOM      5  C   UNL     1       2.280   7.861  19.180  0.00  0.00    +0.000 A 
ATOM      6  C   UNL     1       1.820   8.257  17.920  0.00  0.00    +0.000 A 
ATOM      7  C   UNL     1       0.891   9.273  17.830  0.00  0.00    +0.000 A 
ATOM      8  C   UNL     1       0.460   9.886  19.006  0.00  0.00    +0.000 A 
ATOM      9  C   UNL     1      -0.273  11.145  18.849  0.00  0.00    +0.000 C 
ATOM     10  O   UNL     1      -1.172  11.265  18.026  0.00  0.00    +0.000 OA
ATOM     11  N   UNL     1      -0.033  12.027  19.886  0.00  0.00    +0.000 N 
ENDROOT
BRANCH   1  15
ATOM     12  C   UNL     1      -2.268  15.079  23.050  0.00  0.00    +0.000 A 
ATOM     13  C   UNL     1      -1.463  14.187  23.726  0.00  0.00    +0.000 A 
ATOM     14  C   UNL     1      -1.072  12.998  23.088  0.00  0.00    +0.000 A 
ATOM     15  C   UNL     1      -1.460  12.618  21.762  0.00  0.00    +0.000 A 
ATOM     16  C   UNL     1      -2.289  13.528  21.107  0.00  0.00    +0.000 A 
ATOM     17  C   UNL     1      -2.681  14.736  21.751  0.00  0.00    +0.000 A 
BRANCH  12  19
ATOM     18  C   UNL     1      -3.487  16.324  24.716  0.00  0.00    +0.000 C 
ATOM     19  O   UNL     1      -2.702  16.289  23.521  0.00  0.00    +0.000 OA
ENDBRANCH  12  19
ENDBRANCH   1  15
BRANCH   2  20
ATOM     20  C   UNL     1      -0.143   9.460  22.729  0.00  0.00    +0.000 C 
ATOM     21  O   UNL     1       0.225   9.665  23.879  0.00  0.00    +0.000 OA
BRANCH  20  22
ATOM     22  O   UNL     1      -0.956   8.429  22.429  0.00  0.00    +0.000 OA
ATOM     23  H   UNL     1      -1.853   8.464  22.810  0.00  0.00    +0.000 HD
ENDBRANCH  20  22
ENDBRANCH   2  20
BRANCH  11  24
ATOM     24  C   UNL     1       1.340  12.522  20.136  0.00  0.00    +0.000 C 
BRANCH  24  25
ATOM     25  C   UNL     1       1.832  13.727  19.389  0.00  0.00    +0.000 A 
ATOM     26  C   UNL     1       2.952  13.732  18.553  0.00  0.00    +0.000 A 
ATOM     27  C   UNL     1       3.305  14.897  17.880  0.00  0.00    +0.000 A 
ATOM     28  C   UNL     1       2.550  16.053  18.039  0.00  0.00    +0.000 A 
ATOM     29  F   UNL     1       2.877  17.157  17.361  0.00  0.00    +0.000 F 
ATOM     30  C   UNL     1       1.452  16.080  18.888  0.00  0.00    +0.000 A 
ATOM     31  C   UNL     1       1.096  14.921  19.565  0.00  0.00    +0.000 A 
ENDBRANCH  24  25
ENDBRANCH  11  24
TORSDOF 6
ENDMDL
MODEL 8
REMARK VINA RESULT:      -7.1      3.054      7.061
REMARK  Name = 
REMARK  7 active torsions:
REMARK  status: ('A' for Active; 'I' for Inactive)
REMARK    1  A    between atoms: C_1  and  O_2
REMARK    2  A    between atoms: O_2  and  C_3
REMARK    3  A    between atoms: C_6  and  C_7
REMARK    4  A    between atoms: C_8  and  C_9
REMARK    5  A    between atoms: C_9  and  O_11
REMARK    6  A    between atoms: N_20  and  C_21
REMARK    7  A    between atoms: C_21  and  C_22
REMARK                            x       y       z     vdW  Elec       q    Type
REMARK                         _______ _______ _______ _____ _____    ______ ____
ROOT
ATOM      1  C   UNL     1      -0.645  11.360  21.013  0.00  0.00    +0.000 C 
ATOM      2  C   UNL     1       0.363  10.198  21.479  0.00  0.00    +0.000 C 
ATOM      3  C   UNL     1       0.875   9.392  20.203  0.00  0.00    +0.000 A 
ATOM      4  C   UNL     1       1.819   8.358  20.241  0.00  0.00    +0.000 A 
ATOM      5  C   UNL     1       2.317   7.799  19.039  0.00  0.00    +0.000 A 
ATOM      6  C   UNL     1       1.869   8.229  17.786  0.00  0.00    +0.000 A 
ATOM      7  C   UNL     1       0.946   9.253  17.715  0.00  0.00    +0.000 A 
ATOM      8  C   UNL     1       0.510   9.839  18.903  0.00  0.00    +0.000 A 
ATOM      9  C   UNL     1      -0.214  11.106  18.772  0.00  0.00    +0.000 C 
ATOM     10  O   UNL     1      -1.107  11.252  17.946  0.00  0.00    +0.000 OA
ATOM     11  N   UNL     1       0.024  11.960  19.832  0.00  0.00    +0.000 N 
ENDROOT
BRANCH   1  15
ATOM     12  C   UNL     1      -3.349  14.191  23.056  0.00  0.00    +0.000 A 
ATOM     13  C   UNL     1      -3.588  13.772  21.765  0.00  0.00    +0.000 A 
ATOM     14  C   UNL     1      -2.644  12.952  21.124  0.00  0.00    +0.000 A 
ATOM     15  C   UNL     1      -1.413  12.513  21.713  0.00  0.00    +0.000 A 
ATOM     16  C   UNL     1      -1.186  12.966  23.011  0.00  0.00    +0.000 A 
ATOM     17  C   UNL     1      -2.146  13.792  23.664  0.00  0.00    +0.000 A 
BRANCH  12  19
ATOM     18  C   UNL     1      -3.622  15.772  24.855  0.00  0.00    +0.000 C 
ATOM     19  O   UNL     1      -4.184  14.960  23.822  0.00  0.00    +0.000 OA
ENDBRANCH  12  19
ENDBRANCH   1  15
BRANCH   2  20
ATOM     20  C   UNL     1      -0.123   9.323  22.609  0.00  0.00    +0.000 C 
ATOM     21  O   UNL     1      -0.854   8.359  22.416  0.00  0.00    +0.000 OA
BRANCH  20  22
ATOM     22  O   UNL     1       0.248   9.682  23.853  0.00  0.00    +0.000 OA
ATOM     23  H   UNL     1       0.086  10.612  24.098  0.00  0.00    +0.000 HD
ENDBRANCH  20  22
ENDBRANCH   2  20
BRANCH  11  24
ATOM     24  C   UNL     1       1.398  12.441  20.104  0.00  0.00    +0.000 C 
BRANCH  24  25
ATOM     25  C   UNL     1       1.910  13.647  19.374  0.00  0.00    +0.000 A 
ATOM     26  C   UNL     1       3.018  13.638  18.521  0.00  0.00    +0.000 A 
ATOM     27  C   UNL     1       3.392  14.807  17.866  0.00  0.00    +0.000 A 
ATOM     28  C   UNL     1       2.670  15.979  18.059  0.00  0.00    +0.000 A 
ATOM     29  F   UNL     1       3.017  17.088  17.397  0.00  0.00    +0.000 F 
ATOM     30  C   UNL     1       1.586  16.018  18.924  0.00  0.00    +0.000 A 
ATOM     31  C   UNL     1       1.209  14.856  19.584  0.00  0.00    +0.000 A 
ENDBRANCH  24  25
ENDBRANCH  11  24
TORSDOF 6
ENDMDL
MODEL 9
REMARK VINA RESULT:      -7.1      3.063      7.062
REMARK  Name = 
REMARK  7 active torsions:
REMARK  status: ('A' for Active; 'I' for Inactive)
REMARK    1  A    between atoms: C_1  and  O_2
REMARK    2  A    between atoms: O_2  and  C_3
REMARK    3  A    between atoms: C_6  and  C_7
REMARK    4  A    between atoms: C_8  and  C_9
REMARK    5  A    between atoms: C_9  and  O_11
REMARK    6  A    between atoms: N_20  and  C_21
REMARK    7  A    between atoms: C_21  and  C_22
REMARK                            x       y       z     vdW  Elec       q    Type
REMARK                         _______ _______ _______ _____ _____    ______ ____
ROOT
ATOM      1  C   UNL     1      -0.790  11.349  21.056  0.00  0.00    +0.000 C 
ATOM      2  C   UNL     1       0.251  10.213  21.513  0.00  0.00    +0.000 C 
ATOM      3  C   UNL     1       0.800   9.444  20.229  0.00  0.00    +0.000 A 
ATOM      4  C   UNL     1       1.777   8.440  20.259  0.00  0.00    +0.000 A 
ATOM      5  C   UNL     1       2.303   7.918  19.053  0.00  0.00    +0.000 A 
ATOM      6  C   UNL     1       1.853   8.354  17.802  0.00  0.00    +0.000 A 
ATOM      7  C   UNL     1       0.898   9.349  17.740  0.00  0.00    +0.000 A 
ATOM      8  C   UNL     1       0.433   9.901  18.933  0.00  0.00    +0.000 A 
ATOM      9  C   UNL     1      -0.331  11.145  18.815  0.00  0.00    +0.000 C 
ATOM     10  O   UNL     1      -1.220  11.276  17.984  0.00  0.00    +0.000 OA
ATOM     11  N   UNL     1      -0.130  11.989  19.891  0.00  0.00    +0.000 N 
ENDROOT
BRANCH   1  15
ATOM     12  C   UNL     1      -2.507  14.877  23.082  0.00  0.00    +0.000 A 
ATOM     13  C   UNL     1      -1.605  14.050  23.717  0.00  0.00    +0.000 A 
ATOM     14  C   UNL     1      -1.167  12.885  23.066  0.00  0.00    +0.000 A 
ATOM     15  C   UNL     1      -1.601  12.465  21.767  0.00  0.00    +0.000 A 
ATOM     16  C   UNL     1      -2.527  13.307  21.154  0.00  0.00    +0.000 A 
ATOM     17  C   UNL     1      -2.967  14.492  21.811  0.00  0.00    +0.000 A 
BRANCH  12  19
ATOM     18  C   UNL     1      -3.800  16.038  24.753  0.00  0.00    +0.000 C 
ATOM     19  O   UNL     1      -2.998  16.058  23.569  0.00  0.00    +0.000 OA
ENDBRANCH  12  19
ENDBRANCH   1  15
BRANCH   2  20
ATOM     20  C   UNL     1      -0.216   9.304  22.624  0.00  0.00    +0.000 C 
ATOM     21  O   UNL     1      -0.908   8.317  22.408  0.00  0.00    +0.000 OA
BRANCH  20  22
ATOM     22  O   UNL     1       0.126   9.658  23.878  0.00  0.00    +0.000 OA
ATOM     23  H   UNL     1      -0.443  10.325  24.305  0.00  0.00    +0.000 HD
ENDBRANCH  20  22
ENDBRANCH   2  20
BRANCH  11  24
ATOM     24  C   UNL     1       1.225  12.509  20.184  0.00  0.00    +0.000 C 
BRANCH  24  25
ATOM     25  C   UNL     1       1.709  13.737  19.469  0.00  0.00    +0.000 A 
ATOM     26  C   UNL     1       1.151  15.009  19.624  0.00  0.00    +0.000 A 
ATOM     27  C   UNL     1       1.696  16.089  18.938  0.00  0.00    +0.000 A 
ATOM     28  C   UNL     1       2.790  15.905  18.100  0.00  0.00    +0.000 A 
ATOM     29  F   UNL     1       3.328  16.956  17.472  0.00  0.00    +0.000 F 
ATOM     30  C   UNL     1       3.341  14.646  17.906  0.00  0.00    +0.000 A 
ATOM     31  C   UNL     1       2.799  13.563  18.586  0.00  0.00    +0.000 A 
ENDBRANCH  24  25
ENDBRANCH  11  24
TORSDOF 6
ENDMDL
