MODEL 1
REMARK VINA RESULT:      -8.9      0.000      0.000
REMARK  Name = 
REMARK  7 active torsions:
REMARK  status: ('A' for Active; 'I' for Inactive)
REMARK    1  A    between atoms: C_1  and  C_2
REMARK    2  A    between atoms: C_2  and  O_3
REMARK    3  A    between atoms: C_2  and  C_19
REMARK    4  A    between atoms: O_3  and  C_4
REMARK    5  A    between atoms: C_4  and  C_6
REMARK    6  A    between atoms: C_8  and  C_9
REMARK    7  A    between atoms: C_22  and  C_23
REMARK                            x       y       z     vdW  Elec       q    Type
REMARK                         _______ _______ _______ _____ _____    ______ ____
ROOT
ATOM      1  C   UNL     1       5.624   4.720  18.815  0.00  0.00    +0.000 C 
ATOM      2  O   UNL     1       6.423   4.653  19.731  0.00  0.00    +0.000 OA
ENDROOT
BRANCH   1   3
ATOM      3  C   UNL     1       4.199   5.118  18.953  0.00  0.00    +0.000 A 
ATOM      4  C   UNL     1       3.782   6.283  18.304  0.00  0.00    +0.000 A 
ATOM      5  C   UNL     1       2.466   6.699  18.421  0.00  0.00    +0.000 A 
ATOM      6  N   UNL     1       1.579   5.981  19.147  0.00  0.00    +0.000 NA
ATOM      7  C   UNL     1       1.963   4.849  19.763  0.00  0.00    +0.000 A 
ATOM      8  C   UNL     1       1.009   4.157  20.499  0.00  0.00    +0.000 A 
ATOM      9  C   UNL     1       1.309   2.971  21.176  0.00  0.00    +0.000 A 
ATOM     10  C   UNL     1       2.595   2.459  21.119  0.00  0.00    +0.000 A 
ATOM     11  C   UNL     1       3.572   3.138  20.392  0.00  0.00    +0.000 A 
ATOM     12  C   UNL     1       3.277   4.347  19.701  0.00  0.00    +0.000 A 
BRANCH   5  13
ATOM     13  C   UNL     1       1.990   7.948  17.719  0.00  0.00    +0.000 C 
ATOM     14  C   UNL     1       2.692   9.266  17.968  0.00  0.00    +0.000 C 
ATOM     15  C   UNL     1       1.307   9.048  18.498  0.00  0.00    +0.000 C 
ENDBRANCH   5  13
ENDBRANCH   1   3
BRANCH   1  16
ATOM     16  O   UNL     1       5.898   4.478  17.506  0.00  0.00    +0.000 OA
BRANCH  16  18
ATOM     17  C   UNL     1       7.447   6.348  17.575  0.00  0.00    +0.000 C 
ATOM     18  C   UNL     1       7.185   4.940  17.055  0.00  0.00    +0.000 C 
BRANCH  18  19
ATOM     19  C   UNL     1       7.175   4.906  15.564  0.00  0.00    +0.000 A 
ATOM     20  N   UNL     1       7.911   5.605  14.725  0.00  0.00    +0.000 NA
ATOM     21  N   UNL     1       7.533   5.217  13.459  0.00  0.00    +0.000 NA
ATOM     22  C   UNL     1       6.594   4.302  13.604  0.00  0.00    +0.000 A 
ATOM     23  O   UNL     1       6.301   4.059  14.926  0.00  0.00    +0.000 OA
BRANCH  22  24
ATOM     24  C   UNL     1       5.908   3.512  12.589  0.00  0.00    +0.000 A 
ATOM     25  C   UNL     1       6.526   2.356  12.083  0.00  0.00    +0.000 A 
ATOM     26  C   UNL     1       5.869   1.529  11.169  0.00  0.00    +0.000 A 
ATOM     27  C   UNL     1       4.584   1.851  10.741  0.00  0.00    +0.000 A 
ATOM     28  C   UNL     1       3.965   3.010  11.210  0.00  0.00    +0.000 A 
ATOM     29  C   UNL     1       4.624   3.838  12.126  0.00  0.00    +0.000 A 
ENDBRANCH  22  24
ENDBRANCH  18  19
ENDBRANCH  16  18
ENDBRANCH   1  16
TORSDOF 6
ENDMDL
MODEL 2
REMARK VINA RESULT:      -8.8      2.408      8.185
REMARK  Name = 
REMARK  7 active torsions:
REMARK  status: ('A' for Active; 'I' for Inactive)
REMARK    1  A    between atoms: C_1  and  C_2
REMARK    2  A    between atoms: C_2  and  O_3
REMARK    3  A    between atoms: C_2  and  C_19
REMARK    4  A    between atoms: O_3  and  C_4
REMARK    5  A    between atoms: C_4  and  C_6
REMARK    6  A    between atoms: C_8  and  C_9
REMARK    7  A    between atoms: C_22  and  C_23
REMARK                            x       y       z     vdW  Elec       q    Type
REMARK                         _______ _______ _______ _____ _____    ______ ____
ROOT
ATOM      1  C   UNL     1       3.782   3.154  17.693  0.00  0.00    +0.000 C 
ATOM      2  O   UNL     1       3.896   1.995  18.047  0.00  0.00    +0.000 OA
ENDROOT
BRANCH   1   3
ATOM      3  C   UNL     1       4.799   3.916  16.923  0.00  0.00    +0.000 A 
ATOM      4  C   UNL     1       4.757   3.833  15.528  0.00  0.00    +0.000 A 
ATOM      5  C   UNL     1       5.698   4.514  14.773  0.00  0.00    +0.000 A 
ATOM      6  N   UNL     1       6.649   5.266  15.372  0.00  0.00    +0.000 NA
ATOM      7  C   UNL     1       6.691   5.367  16.712  0.00  0.00    +0.000 A 
ATOM      8  C   UNL     1       7.693   6.150  17.271  0.00  0.00    +0.000 A 
ATOM      9  C   UNL     1       7.823   6.317  18.653  0.00  0.00    +0.000 A 
ATOM     10  C   UNL     1       6.927   5.689  19.503  0.00  0.00    +0.000 A 
ATOM     11  C   UNL     1       5.916   4.892  18.968  0.00  0.00    +0.000 A 
ATOM     12  C   UNL     1       5.778   4.714  17.563  0.00  0.00    +0.000 A 
BRANCH   5  13
ATOM     13  C   UNL     1       5.664   4.449  13.265  0.00  0.00    +0.000 C 
ATOM     14  C   UNL     1       5.928   3.135  12.562  0.00  0.00    +0.000 C 
ATOM     15  C   UNL     1       6.940   4.238  12.481  0.00  0.00    +0.000 C 
ENDBRANCH   5  13
ENDBRANCH   1   3
BRANCH   1  16
ATOM     16  O   UNL     1       2.698   3.945  17.909  0.00  0.00    +0.000 OA
BRANCH  16  18
ATOM     17  C   UNL     1       1.297   3.691  19.878  0.00  0.00    +0.000 C 
ATOM     18  C   UNL     1       2.517   4.374  19.272  0.00  0.00    +0.000 C 
BRANCH  18  19
ATOM     19  C   UNL     1       2.355   5.857  19.256  0.00  0.00    +0.000 A 
ATOM     20  N   UNL     1       2.813   6.720  18.373  0.00  0.00    +0.000 NA
ATOM     21  N   UNL     1       2.399   7.964  18.794  0.00  0.00    +0.000 NA
ATOM     22  C   UNL     1       1.709   7.782  19.903  0.00  0.00    +0.000 A 
ATOM     23  O   UNL     1       1.648   6.458  20.270  0.00  0.00    +0.000 OA
BRANCH  22  24
ATOM     24  C   UNL     1       0.987   8.756  20.713  0.00  0.00    +0.000 A 
ATOM     25  C   UNL     1       0.960   8.603  22.110  0.00  0.00    +0.000 A 
ATOM     26  C   UNL     1       0.347   9.555  22.927  0.00  0.00    +0.000 A 
ATOM     27  C   UNL     1      -0.256  10.674  22.358  0.00  0.00    +0.000 A 
ATOM     28  C   UNL     1      -0.263  10.829  20.972  0.00  0.00    +0.000 A 
ATOM     29  C   UNL     1       0.350   9.874  20.154  0.00  0.00    +0.000 A 
ENDBRANCH  22  24
ENDBRANCH  18  19
ENDBRANCH  16  18
ENDBRANCH   1  16
TORSDOF 6
ENDMDL
MODEL 3
REMARK VINA RESULT:      -8.7      3.716      6.292
REMARK  Name = 
REMARK  7 active torsions:
REMARK  status: ('A' for Active; 'I' for Inactive)
REMARK    1  A    between atoms: C_1  and  C_2
REMARK    2  A    between atoms: C_2  and  O_3
REMARK    3  A    between atoms: C_2  and  C_19
REMARK    4  A    between atoms: O_3  and  C_4
REMARK    5  A    between atoms: C_4  and  C_6
REMARK    6  A    between atoms: C_8  and  C_9
REMARK    7  A    between atoms: C_22  and  C_23
REMARK                            x       y       z     vdW  Elec       q    Type
REMARK                         _______ _______ _______ _____ _____    ______ ____
ROOT
ATOM      1  C   UNL     1       5.289   5.302  18.248  0.00  0.00    +0.000 C 
ATOM      2  O   UNL     1       5.471   4.779  17.165  0.00  0.00    +0.000 OA
ENDROOT
BRANCH   1   3
ATOM      3  C   UNL     1       3.960   5.650  18.815  0.00  0.00    +0.000 A 
ATOM      4  C   UNL     1       3.500   6.959  18.641  0.00  0.00    +0.000 A 
ATOM      5  C   UNL     1       2.274   7.330  19.169  0.00  0.00    +0.000 A 
ATOM      6  N   UNL     1       1.514   6.435  19.841  0.00  0.00    +0.000 NA
ATOM      7  C   UNL     1       1.938   5.169  20.003  0.00  0.00    +0.000 A 
ATOM      8  C   UNL     1       1.117   4.296  20.706  0.00  0.00    +0.000 A 
ATOM      9  C   UNL     1       1.468   2.961  20.928  0.00  0.00    +0.000 A 
ATOM     10  C   UNL     1       2.670   2.481  20.434  0.00  0.00    +0.000 A 
ATOM     11  C   UNL     1       3.515   3.338  19.730  0.00  0.00    +0.000 A 
ATOM     12  C   UNL     1       3.167   4.699  19.501  0.00  0.00    +0.000 A 
BRANCH   5  13
ATOM     13  C   UNL     1       1.751   8.734  18.982  0.00  0.00    +0.000 C 
ATOM     14  C   UNL     1       0.859   9.055  17.802  0.00  0.00    +0.000 C 
ATOM     15  C   UNL     1       2.258   9.592  17.847  0.00  0.00    +0.000 C 
ENDBRANCH   5  13
ENDBRANCH   1   3
BRANCH   1  16
ATOM     16  O   UNL     1       6.258   5.631  19.143  0.00  0.00    +0.000 OA
BRANCH  16  18
ATOM     17  C   UNL     1       8.621   5.341  19.627  0.00  0.00    +0.000 C 
ATOM     18  C   UNL     1       7.583   5.753  18.591  0.00  0.00    +0.000 C 
BRANCH  18  19
ATOM     19  C   UNL     1       7.765   7.174  18.178  0.00  0.00    +0.000 A 
ATOM     20  N   UNL     1       7.204   7.812  17.171  0.00  0.00    +0.000 NA
ATOM     21  N   UNL     1       7.688   9.100  17.208  0.00  0.00    +0.000 NA
ATOM     22  C   UNL     1       8.509   9.171  18.238  0.00  0.00    +0.000 A 
ATOM     23  O   UNL     1       8.620   7.971  18.901  0.00  0.00    +0.000 OA
BRANCH  22  24
ATOM     24  C   UNL     1       9.229  10.322  18.770  0.00  0.00    +0.000 A 
ATOM     25  C   UNL     1       9.371  10.461  20.161  0.00  0.00    +0.000 A 
ATOM     26  C   UNL     1      10.120  11.506  20.708  0.00  0.00    +0.000 A 
ATOM     27  C   UNL     1      10.733  12.433  19.869  0.00  0.00    +0.000 A 
ATOM     28  C   UNL     1      10.579  12.328  18.487  0.00  0.00    +0.000 A 
ATOM     29  C   UNL     1       9.829  11.281  17.940  0.00  0.00    +0.000 A 
ENDBRANCH  22  24
ENDBRANCH  18  19
ENDBRANCH  16  18
ENDBRANCH   1  16
TORSDOF 6
ENDMDL
MODEL 4
REMARK VINA RESULT:      -8.7      3.381      6.157
REMARK  Name = 
REMARK  7 active torsions:
REMARK  status: ('A' for Active; 'I' for Inactive)
REMARK    1  A    between atoms: C_1  and  C_2
REMARK    2  A    between atoms: C_2  and  O_3
REMARK    3  A    between atoms: C_2  and  C_19
REMARK    4  A    between atoms: O_3  and  C_4
REMARK    5  A    between atoms: C_4  and  C_6
REMARK    6  A    between atoms: C_8  and  C_9
REMARK    7  A    between atoms: C_22  and  C_23
REMARK                            x       y       z     vdW  Elec       q    Type
REMARK                         _______ _______ _______ _____ _____    ______ ____
ROOT
ATOM      1  C   UNL     1       3.993   6.609  17.433  0.00  0.00    +0.000 C 
ATOM      2  O   UNL     1       3.775   7.464  16.595  0.00  0.00    +0.000 OA
ENDROOT
BRANCH   1   3
ATOM      3  C   UNL     1       3.038   6.188  18.491  0.00  0.00    +0.000 A 
ATOM      4  C   UNL     1       2.638   7.146  19.426  0.00  0.00    +0.000 A 
ATOM      5  C   UNL     1       1.762   6.791  20.440  0.00  0.00    +0.000 A 
ATOM      6  N   UNL     1       1.285   5.528  20.525  0.00  0.00    +0.000 NA
ATOM      7  C   UNL     1       1.650   4.600  19.623  0.00  0.00    +0.000 A 
ATOM      8  C   UNL     1       1.130   3.320  19.764  0.00  0.00    +0.000 A 
ATOM      9  C   UNL     1       1.449   2.285  18.879  0.00  0.00    +0.000 A 
ATOM     10  C   UNL     1       2.309   2.534  17.822  0.00  0.00    +0.000 A 
ATOM     11  C   UNL     1       2.849   3.810  17.661  0.00  0.00    +0.000 A 
ATOM     12  C   UNL     1       2.532   4.868  18.558  0.00  0.00    +0.000 A 
BRANCH   5  13
ATOM     13  C   UNL     1       1.306   7.812  21.453  0.00  0.00    +0.000 C 
ATOM     14  C   UNL     1      -0.107   8.352  21.395  0.00  0.00    +0.000 C 
ATOM     15  C   UNL     1       1.045   9.240  21.034  0.00  0.00    +0.000 C 
ENDBRANCH   5  13
ENDBRANCH   1   3
BRANCH   1  16
ATOM     16  O   UNL     1       5.129   5.869  17.533  0.00  0.00    +0.000 OA
BRANCH  16  18
ATOM     17  C   UNL     1       6.890   5.083  16.056  0.00  0.00    +0.000 C 
ATOM     18  C   UNL     1       6.212   6.294  16.684  0.00  0.00    +0.000 C 
BRANCH  18  19
ATOM     19  C   UNL     1       7.164   7.070  17.529  0.00  0.00    +0.000 A 
ATOM     20  N   UNL     1       7.925   6.637  18.513  0.00  0.00    +0.000 NA
ATOM     21  N   UNL     1       8.623   7.730  18.976  0.00  0.00    +0.000 NA
ATOM     22  C   UNL     1       8.250   8.761  18.242  0.00  0.00    +0.000 A 
ATOM     23  O   UNL     1       7.306   8.418  17.302  0.00  0.00    +0.000 OA
BRANCH  22  24
ATOM     24  C   UNL     1       8.735  10.135  18.264  0.00  0.00    +0.000 A 
ATOM     25  C   UNL     1       9.922  10.435  18.954  0.00  0.00    +0.000 A 
ATOM     26  C   UNL     1      10.462  11.723  18.932  0.00  0.00    +0.000 A 
ATOM     27  C   UNL     1       9.817  12.735  18.225  0.00  0.00    +0.000 A 
ATOM     28  C   UNL     1       8.623  12.463  17.559  0.00  0.00    +0.000 A 
ATOM     29  C   UNL     1       8.082  11.173  17.580  0.00  0.00    +0.000 A 
ENDBRANCH  22  24
ENDBRANCH  18  19
ENDBRANCH  16  18
ENDBRANCH   1  16
TORSDOF 6
ENDMDL
MODEL 5
REMARK VINA RESULT:      -8.6      0.960      3.449
REMARK  Name = 
REMARK  7 active torsions:
REMARK  status: ('A' for Active; 'I' for Inactive)
REMARK    1  A    between atoms: C_1  and  C_2
REMARK    2  A    between atoms: C_2  and  O_3
REMARK    3  A    between atoms: C_2  and  C_19
REMARK    4  A    between atoms: O_3  and  C_4
REMARK    5  A    between atoms: C_4  and  C_6
REMARK    6  A    between atoms: C_8  and  C_9
REMARK    7  A    between atoms: C_22  and  C_23
REMARK                            x       y       z     vdW  Elec       q    Type
REMARK                         _______ _______ _______ _____ _____    ______ ____
ROOT
ATOM      1  C   UNL     1       4.424   5.830  17.407  0.00  0.00    +0.000 C 
ATOM      2  O   UNL     1       4.514   6.562  16.439  0.00  0.00    +0.000 OA
ENDROOT
BRANCH   1   3
ATOM      3  C   UNL     1       3.485   6.028  18.542  0.00  0.00    +0.000 A 
ATOM      4  C   UNL     1       3.353   4.989  19.467  0.00  0.00    +0.000 A 
ATOM      5  C   UNL     1       2.475   5.125  20.531  0.00  0.00    +0.000 A 
ATOM      6  N   UNL     1       1.754   6.258  20.687  0.00  0.00    +0.000 NA
ATOM      7  C   UNL     1       1.882   7.272  19.813  0.00  0.00    +0.000 A 
ATOM      8  C   UNL     1       1.112   8.409  20.022  0.00  0.00    +0.000 A 
ATOM      9  C   UNL     1       1.173   9.516  19.170  0.00  0.00    +0.000 A 
ATOM     10  C   UNL     1       2.027   9.491  18.079  0.00  0.00    +0.000 A 
ATOM     11  C   UNL     1       2.807   8.359  17.844  0.00  0.00    +0.000 A 
ATOM     12  C   UNL     1       2.750   7.227  18.704  0.00  0.00    +0.000 A 
BRANCH   5  13
ATOM     13  C   UNL     1       2.325   4.020  21.549  0.00  0.00    +0.000 C 
ATOM     14  C   UNL     1       2.728   2.606  21.191  0.00  0.00    +0.000 C 
ATOM     15  C   UNL     1       1.279   2.946  21.361  0.00  0.00    +0.000 C 
ENDBRANCH   5  13
ENDBRANCH   1   3
BRANCH   1  16
ATOM     16  O   UNL     1       5.138   4.692  17.610  0.00  0.00    +0.000 OA
BRANCH  16  18
ATOM     17  C   UNL     1       7.080   6.084  18.051  0.00  0.00    +0.000 C 
ATOM     18  C   UNL     1       6.556   4.814  17.392  0.00  0.00    +0.000 C 
BRANCH  18  19
ATOM     19  C   UNL     1       6.781   4.837  15.918  0.00  0.00    +0.000 A 
ATOM     20  N   UNL     1       7.621   5.583  15.230  0.00  0.00    +0.000 NA
ATOM     21  N   UNL     1       7.458   5.235  13.908  0.00  0.00    +0.000 NA
ATOM     22  C   UNL     1       6.533   4.295  13.871  0.00  0.00    +0.000 A 
ATOM     23  O   UNL     1       6.042   3.996  15.121  0.00  0.00    +0.000 OA
BRANCH  22  24
ATOM     24  C   UNL     1       6.037   3.530  12.734  0.00  0.00    +0.000 A 
ATOM     25  C   UNL     1       6.872   2.573  12.132  0.00  0.00    +0.000 A 
ATOM     26  C   UNL     1       6.408   1.764  11.092  0.00  0.00    +0.000 A 
ATOM     27  C   UNL     1       5.101   1.906  10.632  0.00  0.00    +0.000 A 
ATOM     28  C   UNL     1       4.267   2.870  11.198  0.00  0.00    +0.000 A 
ATOM     29  C   UNL     1       4.732   3.680  12.240  0.00  0.00    +0.000 A 
ENDBRANCH  22  24
ENDBRANCH  18  19
ENDBRANCH  16  18
ENDBRANCH   1  16
TORSDOF 6
ENDMDL
MODEL 6
REMARK VINA RESULT:      -8.4      4.675     10.415
REMARK  Name = 
REMARK  7 active torsions:
REMARK  status: ('A' for Active; 'I' for Inactive)
REMARK    1  A    between atoms: C_1  and  C_2
REMARK    2  A    between atoms: C_2  and  O_3
REMARK    3  A    between atoms: C_2  and  C_19
REMARK    4  A    between atoms: O_3  and  C_4
REMARK    5  A    between atoms: C_4  and  C_6
REMARK    6  A    between atoms: C_8  and  C_9
REMARK    7  A    between atoms: C_22  and  C_23
REMARK                            x       y       z     vdW  Elec       q    Type
REMARK                         _______ _______ _______ _____ _____    ______ ____
ROOT
ATOM      1  C   UNL     1       2.199   8.222  18.451  0.00  0.00    +0.000 C 
ATOM      2  O   UNL     1       2.134   8.733  17.348  0.00  0.00    +0.000 OA
ENDROOT
BRANCH   1   3
ATOM      3  C   UNL     1       2.722   6.859  18.730  0.00  0.00    +0.000 A 
ATOM      4  C   UNL     1       2.181   6.164  19.815  0.00  0.00    +0.000 A 
ATOM      5  C   UNL     1       2.651   4.897  20.121  0.00  0.00    +0.000 A 
ATOM      6  N   UNL     1       3.621   4.324  19.373  0.00  0.00    +0.000 NA
ATOM      7  C   UNL     1       4.139   4.975  18.317  0.00  0.00    +0.000 A 
ATOM      8  C   UNL     1       5.136   4.338  17.588  0.00  0.00    +0.000 A 
ATOM      9  C   UNL     1       5.739   4.931  16.475  0.00  0.00    +0.000 A 
ATOM     10  C   UNL     1       5.336   6.195  16.074  0.00  0.00    +0.000 A 
ATOM     11  C   UNL     1       4.341   6.858  16.791  0.00  0.00    +0.000 A 
ATOM     12  C   UNL     1       3.724   6.263  17.927  0.00  0.00    +0.000 A 
BRANCH   5  13
ATOM     13  C   UNL     1       2.073   4.123  21.281  0.00  0.00    +0.000 C 
ATOM     14  C   UNL     1       2.544   2.710  21.553  0.00  0.00    +0.000 C 
ATOM     15  C   UNL     1       1.159   2.945  21.033  0.00  0.00    +0.000 C 
ENDBRANCH   5  13
ENDBRANCH   1   3
BRANCH   1  16
ATOM     16  O   UNL     1       1.839   8.812  19.621  0.00  0.00    +0.000 OA
BRANCH  16  18
ATOM     17  C   UNL     1       1.236  11.008  18.772  0.00  0.00    +0.000 C 
ATOM     18  C   UNL     1       0.764   9.766  19.518  0.00  0.00    +0.000 C 
BRANCH  18  19
ATOM     19  C   UNL     1       0.330  10.100  20.905  0.00  0.00    +0.000 A 
ATOM     20  N   UNL     1       0.689   9.527  22.036  0.00  0.00    +0.000 NA
ATOM     21  N   UNL     1       0.021  10.192  23.039  0.00  0.00    +0.000 NA
ATOM     22  C   UNL     1      -0.699  11.133  22.460  0.00  0.00    +0.000 A 
ATOM     23  O   UNL     1      -0.563  11.128  21.091  0.00  0.00    +0.000 OA
BRANCH  22  24
ATOM     24  C   UNL     1      -1.531  12.165  23.066  0.00  0.00    +0.000 A 
ATOM     25  C   UNL     1      -1.014  13.464  23.219  0.00  0.00    +0.000 A 
ATOM     26  C   UNL     1      -1.805  14.499  23.722  0.00  0.00    +0.000 A 
ATOM     27  C   UNL     1      -3.126  14.250  24.088  0.00  0.00    +0.000 A 
ATOM     28  C   UNL     1      -3.647  12.962  23.970  0.00  0.00    +0.000 A 
ATOM     29  C   UNL     1      -2.855  11.924  23.466  0.00  0.00    +0.000 A 
ENDBRANCH  22  24
ENDBRANCH  18  19
ENDBRANCH  16  18
ENDBRANCH   1  16
TORSDOF 6
ENDMDL
MODEL 7
REMARK VINA RESULT:      -8.4      4.170      8.613
REMARK  Name = 
REMARK  7 active torsions:
REMARK  status: ('A' for Active; 'I' for Inactive)
REMARK    1  A    between atoms: C_1  and  C_2
REMARK    2  A    between atoms: C_2  and  O_3
REMARK    3  A    between atoms: C_2  and  C_19
REMARK    4  A    between atoms: O_3  and  C_4
REMARK    5  A    between atoms: C_4  and  C_6
REMARK    6  A    between atoms: C_8  and  C_9
REMARK    7  A    between atoms: C_22  and  C_23
REMARK                            x       y       z     vdW  Elec       q    Type
REMARK                         _______ _______ _______ _____ _____    ______ ____
ROOT
ATOM      1  C   UNL     1       2.660   7.682  17.924  0.00  0.00    +0.000 C 
ATOM      2  O   UNL     1       3.080   8.487  17.113  0.00  0.00    +0.000 OA
ENDROOT
BRANCH   1   3
ATOM      3  C   UNL     1       3.293   6.374  18.235  0.00  0.00    +0.000 A 
ATOM      4  C   UNL     1       2.490   5.380  18.801  0.00  0.00    +0.000 A 
ATOM      5  C   UNL     1       3.044   4.152  19.123  0.00  0.00    +0.000 A 
ATOM      6  N   UNL     1       4.352   3.903  18.884  0.00  0.00    +0.000 NA
ATOM      7  C   UNL     1       5.132   4.845  18.325  0.00  0.00    +0.000 A 
ATOM      8  C   UNL     1       6.469   4.534  18.108  0.00  0.00    +0.000 A 
ATOM      9  C   UNL     1       7.361   5.445  17.534  0.00  0.00    +0.000 A 
ATOM     10  C   UNL     1       6.909   6.701  17.164  0.00  0.00    +0.000 A 
ATOM     11  C   UNL     1       5.573   7.040  17.377  0.00  0.00    +0.000 A 
ATOM     12  C   UNL     1       4.659   6.121  17.962  0.00  0.00    +0.000 A 
BRANCH   5  13
ATOM     13  C   UNL     1       2.194   3.059  19.724  0.00  0.00    +0.000 C 
ATOM     14  C   UNL     1       1.068   2.450  18.916  0.00  0.00    +0.000 C 
ATOM     15  C   UNL     1       0.752   3.328  20.089  0.00  0.00    +0.000 C 
ENDBRANCH   5  13
ENDBRANCH   1   3
BRANCH   1  16
ATOM     16  O   UNL     1       1.562   7.846  18.708  0.00  0.00    +0.000 OA
BRANCH  16  18
ATOM     17  C   UNL     1       1.232   8.312  21.069  0.00  0.00    +0.000 C 
ATOM     18  C   UNL     1       1.682   8.862  19.722  0.00  0.00    +0.000 C 
BRANCH  18  19
ATOM     19  C   UNL     1       0.839  10.017  19.300  0.00  0.00    +0.000 A 
ATOM     20  N   UNL     1       1.142  11.299  19.309  0.00  0.00    +0.000 NA
ATOM     21  N   UNL     1       0.038  11.964  18.825  0.00  0.00    +0.000 NA
ATOM     22  C   UNL     1      -0.868  11.048  18.546  0.00  0.00    +0.000 A 
ATOM     23  O   UNL     1      -0.432   9.775  18.836  0.00  0.00    +0.000 OA
BRANCH  22  24
ATOM     24  C   UNL     1      -2.185  11.204  17.940  0.00  0.00    +0.000 A 
ATOM     25  C   UNL     1      -2.380  10.806  16.605  0.00  0.00    +0.000 A 
ATOM     26  C   UNL     1      -3.643  10.866  16.013  0.00  0.00    +0.000 A 
ATOM     27  C   UNL     1      -4.732  11.331  16.746  0.00  0.00    +0.000 A 
ATOM     28  C   UNL     1      -4.553  11.756  18.062  0.00  0.00    +0.000 A 
ATOM     29  C   UNL     1      -3.287  11.697  18.655  0.00  0.00    +0.000 A 
ENDBRANCH  22  24
ENDBRANCH  18  19
ENDBRANCH  16  18
ENDBRANCH   1  16
TORSDOF 6
ENDMDL
MODEL 8
REMARK VINA RESULT:      -8.4      4.291      9.486
REMARK  Name = 
REMARK  7 active torsions:
REMARK  status: ('A' for Active; 'I' for Inactive)
REMARK    1  A    between atoms: C_1  and  C_2
REMARK    2  A    between atoms: C_2  and  O_3
REMARK    3  A    between atoms: C_2  and  C_19
REMARK    4  A    between atoms: O_3  and  C_4
REMARK    5  A    between atoms: C_4  and  C_6
REMARK    6  A    between atoms: C_8  and  C_9
REMARK    7  A    between atoms: C_22  and  C_23
REMARK                            x       y       z     vdW  Elec       q    Type
REMARK                         _______ _______ _______ _____ _____    ______ ____
ROOT
ATOM      1  C   UNL     1       2.238   6.835  18.331  0.00  0.00    +0.000 C 
ATOM      2  O   UNL     1       1.470   6.744  17.392  0.00  0.00    +0.000 OA
ENDROOT
BRANCH   1   3
ATOM      3  C   UNL     1       3.200   5.783  18.752  0.00  0.00    +0.000 A 
ATOM      4  C   UNL     1       4.526   5.906  18.327  0.00  0.00    +0.000 A 
ATOM      5  C   UNL     1       5.452   4.938  18.682  0.00  0.00    +0.000 A 
ATOM      6  N   UNL     1       5.086   3.883  19.445  0.00  0.00    +0.000 NA
ATOM      7  C   UNL     1       3.817   3.761  19.874  0.00  0.00    +0.000 A 
ATOM      8  C   UNL     1       3.500   2.654  20.650  0.00  0.00    +0.000 A 
ATOM      9  C   UNL     1       2.210   2.436  21.144  0.00  0.00    +0.000 A 
ATOM     10  C   UNL     1       1.207   3.348  20.857  0.00  0.00    +0.000 A 
ATOM     11  C   UNL     1       1.499   4.465  20.074  0.00  0.00    +0.000 A 
ATOM     12  C   UNL     1       2.808   4.694  19.566  0.00  0.00    +0.000 A 
BRANCH   5  13
ATOM     13  C   UNL     1       6.892   5.056  18.245  0.00  0.00    +0.000 C 
ATOM     14  C   UNL     1       7.836   5.966  19.000  0.00  0.00    +0.000 C 
ATOM     15  C   UNL     1       7.396   6.334  17.615  0.00  0.00    +0.000 C 
ENDBRANCH   5  13
ENDBRANCH   1   3
BRANCH   1  16
ATOM     16  O   UNL     1       2.376   7.918  19.140  0.00  0.00    +0.000 OA
BRANCH  16  18
ATOM     17  C   UNL     1       1.961  10.082  18.117  0.00  0.00    +0.000 C 
ATOM     18  C   UNL     1       1.386   8.948  18.956  0.00  0.00    +0.000 C 
BRANCH  18  19
ATOM     19  C   UNL     1       0.982   9.427  20.309  0.00  0.00    +0.000 A 
ATOM     20  N   UNL     1       1.306   8.928  21.484  0.00  0.00    +0.000 NA
ATOM     21  N   UNL     1       0.690   9.719  22.427  0.00  0.00    +0.000 NA
ATOM     22  C   UNL     1       0.033  10.655  21.770  0.00  0.00    +0.000 A 
ATOM     23  O   UNL     1       0.162  10.525  20.407  0.00  0.00    +0.000 OA
BRANCH  22  24
ATOM     24  C   UNL     1      -0.725  11.789  22.286  0.00  0.00    +0.000 A 
ATOM     25  C   UNL     1      -1.913  11.555  22.999  0.00  0.00    +0.000 A 
ATOM     26  C   UNL     1      -2.625  12.609  23.577  0.00  0.00    +0.000 A 
ATOM     27  C   UNL     1      -2.163  13.915  23.444  0.00  0.00    +0.000 A 
ATOM     28  C   UNL     1      -1.001  14.169  22.716  0.00  0.00    +0.000 A 
ATOM     29  C   UNL     1      -0.287  13.114  22.137  0.00  0.00    +0.000 A 
ENDBRANCH  22  24
ENDBRANCH  18  19
ENDBRANCH  16  18
ENDBRANCH   1  16
TORSDOF 6
ENDMDL
MODEL 9
REMARK VINA RESULT:      -8.3      1.984      7.611
REMARK  Name = 
REMARK  7 active torsions:
REMARK  status: ('A' for Active; 'I' for Inactive)
REMARK    1  A    between atoms: C_1  and  C_2
REMARK    2  A    between atoms: C_2  and  O_3
REMARK    3  A    between atoms: C_2  and  C_19
REMARK    4  A    between atoms: O_3  and  C_4
REMARK    5  A    between atoms: C_4  and  C_6
REMARK    6  A    between atoms: C_8  and  C_9
REMARK    7  A    between atoms: C_22  and  C_23
REMARK                            x       y       z     vdW  Elec       q    Type
REMARK                         _______ _______ _______ _____ _____    ______ ____
ROOT
ATOM      1  C   UNL     1       3.943   2.823  17.501  0.00  0.00    +0.000 C 
ATOM      2  O   UNL     1       4.157   1.667  17.812  0.00  0.00    +0.000 OA
ENDROOT
BRANCH   1   3
ATOM      3  C   UNL     1       4.889   3.695  16.756  0.00  0.00    +0.000 A 
ATOM      4  C   UNL     1       4.873   3.631  15.360  0.00  0.00    +0.000 A 
ATOM      5  C   UNL     1       5.750   4.414  14.628  0.00  0.00    +0.000 A 
ATOM      6  N   UNL     1       6.613   5.248  15.251  0.00  0.00    +0.000 NA
ATOM      7  C   UNL     1       6.628   5.332  16.593  0.00  0.00    +0.000 A 
ATOM      8  C   UNL     1       7.539   6.202  17.178  0.00  0.00    +0.000 A 
ATOM      9  C   UNL     1       7.634   6.360  18.564  0.00  0.00    +0.000 A 
ATOM     10  C   UNL     1       6.795   5.632  19.392  0.00  0.00    +0.000 A 
ATOM     11  C   UNL     1       5.875   4.747  18.830  0.00  0.00    +0.000 A 
ATOM     12  C   UNL     1       5.774   4.578  17.421  0.00  0.00    +0.000 A 
BRANCH   5  13
ATOM     13  C   UNL     1       5.743   4.370  13.119  0.00  0.00    +0.000 C 
ATOM     14  C   UNL     1       6.200   3.120  12.400  0.00  0.00    +0.000 C 
ATOM     15  C   UNL     1       7.043   4.357  12.349  0.00  0.00    +0.000 C 
ENDBRANCH   5  13
ENDBRANCH   1   3
BRANCH   1  16
ATOM     16  O   UNL     1       2.798   3.512  17.748  0.00  0.00    +0.000 OA
BRANCH  16  18
ATOM     17  C   UNL     1       0.861   2.627  18.917  0.00  0.00    +0.000 C 
ATOM     18  C   UNL     1       2.224   3.294  19.051  0.00  0.00    +0.000 C 
BRANCH  18  19
ATOM     19  C   UNL     1       2.112   4.624  19.717  0.00  0.00    +0.000 A 
ATOM     20  N   UNL     1       2.235   4.910  20.997  0.00  0.00    +0.000 NA
ATOM     21  N   UNL     1       2.049   6.270  21.111  0.00  0.00    +0.000 NA
ATOM     22  C   UNL     1       1.831   6.729  19.895  0.00  0.00    +0.000 A 
ATOM     23  O   UNL     1       1.843   5.731  18.949  0.00  0.00    +0.000 OA
BRANCH  22  24
ATOM     24  C   UNL     1       1.650   8.104  19.444  0.00  0.00    +0.000 A 
ATOM     25  C   UNL     1       0.990   9.021  20.281  0.00  0.00    +0.000 A 
ATOM     26  C   UNL     1       0.865  10.364  19.920  0.00  0.00    +0.000 A 
ATOM     27  C   UNL     1       1.393  10.811  18.711  0.00  0.00    +0.000 A 
ATOM     28  C   UNL     1       2.026   9.910  17.855  0.00  0.00    +0.000 A 
ATOM     29  C   UNL     1       2.151   8.564  18.217  0.00  0.00    +0.000 A 
ENDBRANCH  22  24
ENDBRANCH  18  19
ENDBRANCH  16  18
ENDBRANCH   1  16
TORSDOF 6
ENDMDL
