MODEL 1
REMARK VINA RESULT:      -8.3      0.000      0.000
REMARK  Name = 
REMARK  6 active torsions:
REMARK  status: ('A' for Active; 'I' for Inactive)
REMARK    1  A    between atoms: C_1  and  C_2
REMARK    2  A    between atoms: C_6  and  N_7
REMARK    3  A    between atoms: N_7  and  C_8
REMARK    4  A    between atoms: C_8  and  C_9
REMARK    5  A    between atoms: N_13  and  C_14
REMARK    6  A    between atoms: C_24  and  C_25
REMARK                            x       y       z     vdW  Elec       q    Type
REMARK                         _______ _______ _______ _____ _____    ______ ____
ROOT
ATOM      1  C   UNL     1       2.044   6.280  19.957  0.00  0.00    +0.000 A 
ATOM      2  N   UNL     1       1.286   5.630  20.827  0.00  0.00    +0.000 NA
ATOM      3  N   UNL     1       1.381   4.293  20.577  0.00  0.00    +0.000 NA
ATOM      4  C   UNL     1       2.192   4.132  19.557  0.00  0.00    +0.000 A 
ATOM      5  N   UNL     1       2.564   2.932  18.979  0.00  0.00    +0.000 N 
ATOM      6  C   UNL     1       2.063   1.657  19.452  0.00  0.00    +0.000 C 
ATOM      7  C   UNL     1       3.449   2.941  17.908  0.00  0.00    +0.000 A 
ATOM      8  O   UNL     1       3.830   1.911  17.349  0.00  0.00    +0.000 OA
ATOM      9  C   UNL     1       3.947   4.258  17.427  0.00  0.00    +0.000 A 
ATOM     10  C   UNL     1       4.844   4.272  16.348  0.00  0.00    +0.000 A 
ATOM     11  C   UNL     1       5.336   5.480  15.861  0.00  0.00    +0.000 A 
ATOM     12  C   UNL     1       4.921   6.675  16.443  0.00  0.00    +0.000 A 
ATOM     13  C   UNL     1       4.017   6.674  17.513  0.00  0.00    +0.000 A 
ATOM     14  C   UNL     1       3.537   5.465  18.021  0.00  0.00    +0.000 A 
ATOM     15  N   UNL     1       2.649   5.360  19.112  0.00  0.00    +0.000 N 
ENDROOT
BRANCH   1  16
ATOM     16  C   UNL     1       2.143   7.768  19.930  0.00  0.00    +0.000 C 
BRANCH  16  17
ATOM     17  N   UNL     1       1.515   8.406  21.090  0.00  0.00    +0.000 N 
ATOM     18  H   UNL     1       2.183   8.493  21.850  0.00  0.00    +0.000 HD
BRANCH  17  24
ATOM     19  C   UNL     1      -1.766  11.710  22.968  0.00  0.00    +0.000 C 
ATOM     20  C   UNL     1      -0.931  11.153  21.841  0.00  0.00    +0.000 A 
ATOM     21  C   UNL     1      -1.062  11.728  20.573  0.00  0.00    +0.000 A 
ATOM     22  C   UNL     1      -0.307  11.255  19.511  0.00  0.00    +0.000 A 
ATOM     23  C   UNL     1       0.574  10.188  19.697  0.00  0.00    +0.000 A 
ATOM     24  C   UNL     1       0.740   9.571  20.949  0.00  0.00    +0.000 A 
ATOM     25  C   UNL     1      -0.033  10.065  22.037  0.00  0.00    +0.000 A 
ATOM     26  C   UNL     1       0.061   9.482  23.431  0.00  0.00    +0.000 C 
ENDBRANCH  17  24
ENDBRANCH  16  17
ENDBRANCH   1  16
TORSDOF 3
ENDMDL
MODEL 2
REMARK VINA RESULT:      -8.2      3.282      8.096
REMARK  Name = 
REMARK  6 active torsions:
REMARK  status: ('A' for Active; 'I' for Inactive)
REMARK    1  A    between atoms: C_1  and  C_2
REMARK    2  A    between atoms: C_6  and  N_7
REMARK    3  A    between atoms: N_7  and  C_8
REMARK    4  A    between atoms: C_8  and  C_9
REMARK    5  A    between atoms: N_13  and  C_14
REMARK    6  A    between atoms: C_24  and  C_25
REMARK                            x       y       z     vdW  Elec       q    Type
REMARK                         _______ _______ _______ _____ _____    ______ ____
ROOT
ATOM      1  C   UNL     1       0.902   9.299  20.740  0.00  0.00    +0.000 A 
ATOM      2  N   UNL     1       1.324   9.449  21.986  0.00  0.00    +0.000 NA
ATOM      3  N   UNL     1       0.603  10.445  22.576  0.00  0.00    +0.000 NA
ATOM      4  C   UNL     1      -0.252  10.901  21.688  0.00  0.00    +0.000 A 
ATOM      5  N   UNL     1      -1.174  11.914  21.874  0.00  0.00    +0.000 N 
ATOM      6  C   UNL     1      -1.294  12.630  23.128  0.00  0.00    +0.000 C 
ATOM      7  C   UNL     1      -2.018  12.263  20.828  0.00  0.00    +0.000 A 
ATOM      8  O   UNL     1      -2.867  13.150  20.924  0.00  0.00    +0.000 OA
ATOM      9  C   UNL     1      -1.876  11.526  19.543  0.00  0.00    +0.000 A 
ATOM     10  C   UNL     1      -2.728  11.873  18.483  0.00  0.00    +0.000 A 
ATOM     11  C   UNL     1      -2.632  11.213  17.262  0.00  0.00    +0.000 A 
ATOM     12  C   UNL     1      -1.674  10.216  17.093  0.00  0.00    +0.000 A 
ATOM     13  C   UNL     1      -0.810   9.870  18.139  0.00  0.00    +0.000 A 
ATOM     14  C   UNL     1      -0.916  10.512  19.375  0.00  0.00    +0.000 A 
ATOM     15  N   UNL     1      -0.112  10.214  20.495  0.00  0.00    +0.000 N 
ENDROOT
BRANCH   1  16
ATOM     16  C   UNL     1       1.504   8.309  19.800  0.00  0.00    +0.000 C 
BRANCH  16  17
ATOM     17  N   UNL     1       2.235   7.239  20.484  0.00  0.00    +0.000 N 
ATOM     18  H   UNL     1       2.124   7.323  21.491  0.00  0.00    +0.000 HD
BRANCH  17  24
ATOM     19  C   UNL     1       3.223   3.631  17.136  0.00  0.00    +0.000 C 
ATOM     20  C   UNL     1       2.547   4.143  18.384  0.00  0.00    +0.000 A 
ATOM     21  C   UNL     1       1.658   3.294  19.052  0.00  0.00    +0.000 A 
ATOM     22  C   UNL     1       1.022   3.720  20.208  0.00  0.00    +0.000 A 
ATOM     23  C   UNL     1       1.250   5.007  20.700  0.00  0.00    +0.000 A 
ATOM     24  C   UNL     1       2.129   5.901  20.065  0.00  0.00    +0.000 A 
ATOM     25  C   UNL     1       2.784   5.456  18.883  0.00  0.00    +0.000 A 
ATOM     26  C   UNL     1       3.752   6.329  18.113  0.00  0.00    +0.000 C 
ENDBRANCH  17  24
ENDBRANCH  16  17
ENDBRANCH   1  16
TORSDOF 3
ENDMDL
MODEL 3
REMARK VINA RESULT:      -8.1      1.362      3.428
REMARK  Name = 
REMARK  6 active torsions:
REMARK  status: ('A' for Active; 'I' for Inactive)
REMARK    1  A    between atoms: C_1  and  C_2
REMARK    2  A    between atoms: C_6  and  N_7
REMARK    3  A    between atoms: N_7  and  C_8
REMARK    4  A    between atoms: C_8  and  C_9
REMARK    5  A    between atoms: N_13  and  C_14
REMARK    6  A    between atoms: C_24  and  C_25
REMARK                            x       y       z     vdW  Elec       q    Type
REMARK                         _______ _______ _______ _____ _____    ______ ____
ROOT
ATOM      1  C   UNL     1       2.487   7.401  19.178  0.00  0.00    +0.000 A 
ATOM      2  N   UNL     1       3.070   8.168  18.269  0.00  0.00    +0.000 NA
ATOM      3  N   UNL     1       3.757   7.374  17.400  0.00  0.00    +0.000 NA
ATOM      4  C   UNL     1       3.594   6.127  17.782  0.00  0.00    +0.000 A 
ATOM      5  N   UNL     1       4.122   5.002  17.175  0.00  0.00    +0.000 N 
ATOM      6  C   UNL     1       4.967   5.081  16.001  0.00  0.00    +0.000 C 
ATOM      7  C   UNL     1       3.836   3.750  17.704  0.00  0.00    +0.000 A 
ATOM      8  O   UNL     1       4.266   2.705  17.213  0.00  0.00    +0.000 OA
ATOM      9  C   UNL     1       2.976   3.685  18.916  0.00  0.00    +0.000 A 
ATOM     10  C   UNL     1       2.681   2.422  19.452  0.00  0.00    +0.000 A 
ATOM     11  C   UNL     1       1.882   2.311  20.586  0.00  0.00    +0.000 A 
ATOM     12  C   UNL     1       1.388   3.463  21.194  0.00  0.00    +0.000 A 
ATOM     13  C   UNL     1       1.685   4.729  20.675  0.00  0.00    +0.000 A 
ATOM     14  C   UNL     1       2.468   4.847  19.524  0.00  0.00    +0.000 A 
ATOM     15  N   UNL     1       2.796   6.074  18.911  0.00  0.00    +0.000 N 
ENDROOT
BRANCH   1  16
ATOM     16  C   UNL     1       1.679   7.956  20.302  0.00  0.00    +0.000 C 
BRANCH  16  17
ATOM     17  N   UNL     1       0.898   9.135  19.919  0.00  0.00    +0.000 N 
ATOM     18  H   UNL     1       0.406   8.965  19.046  0.00  0.00    +0.000 HD
BRANCH  17  24
ATOM     19  C   UNL     1      -1.935  13.080  21.192  0.00  0.00    +0.000 C 
ATOM     20  C   UNL     1      -1.249  11.773  21.508  0.00  0.00    +0.000 A 
ATOM     21  C   UNL     1      -1.304  11.297  22.821  0.00  0.00    +0.000 A 
ATOM     22  C   UNL     1      -0.696  10.095  23.154  0.00  0.00    +0.000 A 
ATOM     23  C   UNL     1      -0.009   9.365  22.183  0.00  0.00    +0.000 A 
ATOM     24  C   UNL     1       0.080   9.801  20.849  0.00  0.00    +0.000 A 
ATOM     25  C   UNL     1      -0.551  11.031  20.512  0.00  0.00    +0.000 A 
ATOM     26  C   UNL     1      -0.524  11.601  19.111  0.00  0.00    +0.000 C 
ENDBRANCH  17  24
ENDBRANCH  16  17
ENDBRANCH   1  16
TORSDOF 3
ENDMDL
MODEL 4
REMARK VINA RESULT:      -8.1      1.589      2.395
REMARK  Name = 
REMARK  6 active torsions:
REMARK  status: ('A' for Active; 'I' for Inactive)
REMARK    1  A    between atoms: C_1  and  C_2
REMARK    2  A    between atoms: C_6  and  N_7
REMARK    3  A    between atoms: N_7  and  C_8
REMARK    4  A    between atoms: C_8  and  C_9
REMARK    5  A    between atoms: N_13  and  C_14
REMARK    6  A    between atoms: C_24  and  C_25
REMARK                            x       y       z     vdW  Elec       q    Type
REMARK                         _______ _______ _______ _____ _____    ______ ____
ROOT
ATOM      1  C   UNL     1       2.298   7.581  19.167  0.00  0.00    +0.000 A 
ATOM      2  N   UNL     1       1.568   7.420  20.259  0.00  0.00    +0.000 NA
ATOM      3  N   UNL     1       1.709   6.135  20.695  0.00  0.00    +0.000 NA
ATOM      4  C   UNL     1       2.520   5.518  19.868  0.00  0.00    +0.000 A 
ATOM      5  N   UNL     1       2.932   4.200  19.944  0.00  0.00    +0.000 N 
ATOM      6  C   UNL     1       2.479   3.308  20.992  0.00  0.00    +0.000 C 
ATOM      7  C   UNL     1       3.812   3.708  18.989  0.00  0.00    +0.000 A 
ATOM      8  O   UNL     1       4.226   2.547  18.998  0.00  0.00    +0.000 OA
ATOM      9  C   UNL     1       4.261   4.632  17.913  0.00  0.00    +0.000 A 
ATOM     10  C   UNL     1       5.152   4.141  16.946  0.00  0.00    +0.000 A 
ATOM     11  C   UNL     1       5.598   4.968  15.920  0.00  0.00    +0.000 A 
ATOM     12  C   UNL     1       5.144   6.282  15.850  0.00  0.00    +0.000 A 
ATOM     13  C   UNL     1       4.246   6.781  16.802  0.00  0.00    +0.000 A 
ATOM     14  C   UNL     1       3.811   5.963  17.848  0.00  0.00    +0.000 A 
ATOM     15  N   UNL     1       2.932   6.382  18.868  0.00  0.00    +0.000 N 
ENDROOT
BRANCH   1  16
ATOM     16  C   UNL     1       2.345   8.866  18.411  0.00  0.00    +0.000 C 
BRANCH  16  17
ATOM     17  N   UNL     1       1.033   9.284  17.910  0.00  0.00    +0.000 N 
ATOM     18  H   UNL     1       0.519   8.483  17.554  0.00  0.00    +0.000 HD
BRANCH  17  24
ATOM     19  C   UNL     1      -3.299  11.757  18.482  0.00  0.00    +0.000 C 
ATOM     20  C   UNL     1      -1.893  11.414  18.908  0.00  0.00    +0.000 A 
ATOM     21  C   UNL     1      -1.347  12.095  20.001  0.00  0.00    +0.000 A 
ATOM     22  C   UNL     1      -0.062  11.806  20.434  0.00  0.00    +0.000 A 
ATOM     23  C   UNL     1       0.702  10.847  19.767  0.00  0.00    +0.000 A 
ATOM     24  C   UNL     1       0.205  10.136  18.661  0.00  0.00    +0.000 A 
ATOM     25  C   UNL     1      -1.117  10.433  18.225  0.00  0.00    +0.000 A 
ATOM     26  C   UNL     1      -1.761   9.734  17.048  0.00  0.00    +0.000 C 
ENDBRANCH  17  24
ENDBRANCH  16  17
ENDBRANCH   1  16
TORSDOF 3
ENDMDL
MODEL 5
REMARK VINA RESULT:      -8.0      0.613      1.555
REMARK  Name = 
REMARK  6 active torsions:
REMARK  status: ('A' for Active; 'I' for Inactive)
REMARK    1  A    between atoms: C_1  and  C_2
REMARK    2  A    between atoms: C_6  and  N_7
REMARK    3  A    between atoms: N_7  and  C_8
REMARK    4  A    between atoms: C_8  and  C_9
REMARK    5  A    between atoms: N_13  and  C_14
REMARK    6  A    between atoms: C_24  and  C_25
REMARK                            x       y       z     vdW  Elec       q    Type
REMARK                         _______ _______ _______ _____ _____    ______ ____
ROOT
ATOM      1  C   UNL     1       2.072   6.453  19.962  0.00  0.00    +0.000 A 
ATOM      2  N   UNL     1       1.289   5.828  20.828  0.00  0.00    +0.000 NA
ATOM      3  N   UNL     1       1.337   4.489  20.574  0.00  0.00    +0.000 NA
ATOM      4  C   UNL     1       2.144   4.302  19.556  0.00  0.00    +0.000 A 
ATOM      5  N   UNL     1       2.475   3.092  18.975  0.00  0.00    +0.000 N 
ATOM      6  C   UNL     1       1.928   1.834  19.442  0.00  0.00    +0.000 C 
ATOM      7  C   UNL     1       3.363   3.072  17.907  0.00  0.00    +0.000 A 
ATOM      8  O   UNL     1       3.708   2.031  17.345  0.00  0.00    +0.000 OA
ATOM      9  C   UNL     1       3.909   4.372  17.431  0.00  0.00    +0.000 A 
ATOM     10  C   UNL     1       4.809   4.358  16.354  0.00  0.00    +0.000 A 
ATOM     11  C   UNL     1       5.345   5.548  15.873  0.00  0.00    +0.000 A 
ATOM     12  C   UNL     1       4.971   6.756  16.457  0.00  0.00    +0.000 A 
ATOM     13  C   UNL     1       4.065   6.784  17.525  0.00  0.00    +0.000 A 
ATOM     14  C   UNL     1       3.540   5.591  18.028  0.00  0.00    +0.000 A 
ATOM     15  N   UNL     1       2.646   5.515  19.116  0.00  0.00    +0.000 N 
ENDROOT
BRANCH   1  16
ATOM     16  C   UNL     1       2.224   7.936  19.940  0.00  0.00    +0.000 C 
BRANCH  16  17
ATOM     17  N   UNL     1       0.965   8.638  19.678  0.00  0.00    +0.000 N 
ATOM     18  H   UNL     1       0.331   8.043  19.152  0.00  0.00    +0.000 HD
BRANCH  17  24
ATOM     19  C   UNL     1      -1.770  12.560  21.210  0.00  0.00    +0.000 C 
ATOM     20  C   UNL     1      -0.987  11.297  21.471  0.00  0.00    +0.000 A 
ATOM     21  C   UNL     1      -0.795  10.899  22.798  0.00  0.00    +0.000 A 
ATOM     22  C   UNL     1      -0.089   9.740  23.084  0.00  0.00    +0.000 A 
ATOM     23  C   UNL     1       0.451   8.975  22.049  0.00  0.00    +0.000 A 
ATOM     24  C   UNL     1       0.292   9.332  20.699  0.00  0.00    +0.000 A 
ATOM     25  C   UNL     1      -0.439  10.519  20.411  0.00  0.00    +0.000 A 
ATOM     26  C   UNL     1      -0.676  11.004  18.997  0.00  0.00    +0.000 C 
ENDBRANCH  17  24
ENDBRANCH  16  17
ENDBRANCH   1  16
TORSDOF 3
ENDMDL
MODEL 6
REMARK VINA RESULT:      -8.0      1.542      3.536
REMARK  Name = 
REMARK  6 active torsions:
REMARK  status: ('A' for Active; 'I' for Inactive)
REMARK    1  A    between atoms: C_1  and  C_2
REMARK    2  A    between atoms: C_6  and  N_7
REMARK    3  A    between atoms: N_7  and  C_8
REMARK    4  A    between atoms: C_8  and  C_9
REMARK    5  A    between atoms: N_13  and  C_14
REMARK    6  A    between atoms: C_24  and  C_25
REMARK                            x       y       z     vdW  Elec       q    Type
REMARK                         _______ _______ _______ _____ _____    ______ ____
ROOT
ATOM      1  C   UNL     1       2.726   7.195  18.595  0.00  0.00    +0.000 A 
ATOM      2  N   UNL     1       3.459   7.782  17.662  0.00  0.00    +0.000 NA
ATOM      3  N   UNL     1       4.141   6.822  16.973  0.00  0.00    +0.000 NA
ATOM      4  C   UNL     1       3.824   5.657  17.489  0.00  0.00    +0.000 A 
ATOM      5  N   UNL     1       4.293   4.420  17.085  0.00  0.00    +0.000 N 
ATOM      6  C   UNL     1       5.243   4.269  16.002  0.00  0.00    +0.000 C 
ATOM      7  C   UNL     1       3.840   3.279  17.734  0.00  0.00    +0.000 A 
ATOM      8  O   UNL     1       4.208   2.144  17.423  0.00  0.00    +0.000 OA
ATOM      9  C   UNL     1       2.871   3.450  18.850  0.00  0.00    +0.000 A 
ATOM     10  C   UNL     1       2.408   2.299  19.507  0.00  0.00    +0.000 A 
ATOM     11  C   UNL     1       1.503   2.409  20.559  0.00  0.00    +0.000 A 
ATOM     12  C   UNL     1       1.071   3.669  20.965  0.00  0.00    +0.000 A 
ATOM     13  C   UNL     1       1.535   4.825  20.324  0.00  0.00    +0.000 A 
ATOM     14  C   UNL     1       2.426   4.721  19.254  0.00  0.00    +0.000 A 
ATOM     15  N   UNL     1       2.926   5.823  18.529  0.00  0.00    +0.000 N 
ENDROOT
BRANCH   1  16
ATOM     16  C   UNL     1       1.877   7.961  19.553  0.00  0.00    +0.000 C 
BRANCH  16  17
ATOM     17  N   UNL     1       1.448   9.260  19.026  0.00  0.00    +0.000 N 
ATOM     18  H   UNL     1       1.232   9.186  18.036  0.00  0.00    +0.000 HD
BRANCH  17  24
ATOM     19  C   UNL     1      -2.818  11.907  19.019  0.00  0.00    +0.000 C 
ATOM     20  C   UNL     1      -1.560  11.408  19.685  0.00  0.00    +0.000 A 
ATOM     21  C   UNL     1      -1.259  11.876  20.968  0.00  0.00    +0.000 A 
ATOM     22  C   UNL     1      -0.117  11.437  21.622  0.00  0.00    +0.000 A 
ATOM     23  C   UNL     1       0.749  10.541  20.994  0.00  0.00    +0.000 A 
ATOM     24  C   UNL     1       0.496  10.043  19.704  0.00  0.00    +0.000 A 
ATOM     25  C   UNL     1      -0.680  10.492  19.040  0.00  0.00    +0.000 A 
ATOM     26  C   UNL     1      -1.057  10.025  17.651  0.00  0.00    +0.000 C 
ENDBRANCH  17  24
ENDBRANCH  16  17
ENDBRANCH   1  16
TORSDOF 3
ENDMDL
MODEL 7
REMARK VINA RESULT:      -7.9      1.646      3.386
REMARK  Name = 
REMARK  6 active torsions:
REMARK  status: ('A' for Active; 'I' for Inactive)
REMARK    1  A    between atoms: C_1  and  C_2
REMARK    2  A    between atoms: C_6  and  N_7
REMARK    3  A    between atoms: N_7  and  C_8
REMARK    4  A    between atoms: C_8  and  C_9
REMARK    5  A    between atoms: N_13  and  C_14
REMARK    6  A    between atoms: C_24  and  C_25
REMARK                            x       y       z     vdW  Elec       q    Type
REMARK                         _______ _______ _______ _____ _____    ______ ____
ROOT
ATOM      1  C   UNL     1       2.478   7.436  18.775  0.00  0.00    +0.000 A 
ATOM      2  N   UNL     1       3.164   8.120  17.874  0.00  0.00    +0.000 NA
ATOM      3  N   UNL     1       3.913   7.249  17.139  0.00  0.00    +0.000 NA
ATOM      4  C   UNL     1       3.685   6.039  17.596  0.00  0.00    +0.000 A 
ATOM      5  N   UNL     1       4.242   4.862  17.132  0.00  0.00    +0.000 N 
ATOM      6  C   UNL     1       5.198   4.835  16.044  0.00  0.00    +0.000 C 
ATOM      7  C   UNL     1       3.876   3.659  17.723  0.00  0.00    +0.000 A 
ATOM      8  O   UNL     1       4.326   2.572  17.356  0.00  0.00    +0.000 OA
ATOM      9  C   UNL     1       2.900   3.703  18.845  0.00  0.00    +0.000 A 
ATOM     10  C   UNL     1       2.525   2.491  19.444  0.00  0.00    +0.000 A 
ATOM     11  C   UNL     1       1.616   2.481  20.499  0.00  0.00    +0.000 A 
ATOM     12  C   UNL     1       1.094   3.684  20.966  0.00  0.00    +0.000 A 
ATOM     13  C   UNL     1       1.470   4.902  20.384  0.00  0.00    +0.000 A 
ATOM     14  C   UNL     1       2.364   4.917  19.311  0.00  0.00    +0.000 A 
ATOM     15  N   UNL     1       2.779   6.087  18.642  0.00  0.00    +0.000 N 
ENDROOT
BRANCH   1  16
ATOM     16  C   UNL     1       1.578   8.089  19.769  0.00  0.00    +0.000 C 
BRANCH  16  17
ATOM     17  N   UNL     1       1.478   9.540  19.586  0.00  0.00    +0.000 N 
ATOM     18  H   UNL     1       2.287   9.888  19.079  0.00  0.00    +0.000 HD
BRANCH  17  24
ATOM     19  C   UNL     1      -2.494  12.504  20.385  0.00  0.00    +0.000 C 
ATOM     20  C   UNL     1      -1.705  11.531  19.545  0.00  0.00    +0.000 A 
ATOM     21  C   UNL     1      -2.263  11.090  18.341  0.00  0.00    +0.000 A 
ATOM     22  C   UNL     1      -1.568  10.202  17.533  0.00  0.00    +0.000 A 
ATOM     23  C   UNL     1      -0.315   9.729  17.928  0.00  0.00    +0.000 A 
ATOM     24  C   UNL     1       0.289  10.136  19.130  0.00  0.00    +0.000 A 
ATOM     25  C   UNL     1      -0.426  11.051  19.952  0.00  0.00    +0.000 A 
ATOM     26  C   UNL     1       0.123  11.562  21.267  0.00  0.00    +0.000 C 
ENDBRANCH  17  24
ENDBRANCH  16  17
ENDBRANCH   1  16
TORSDOF 3
ENDMDL
MODEL 8
REMARK VINA RESULT:      -7.9      1.471      1.947
REMARK  Name = 
REMARK  6 active torsions:
REMARK  status: ('A' for Active; 'I' for Inactive)
REMARK    1  A    between atoms: C_1  and  C_2
REMARK    2  A    between atoms: C_6  and  N_7
REMARK    3  A    between atoms: N_7  and  C_8
REMARK    4  A    between atoms: C_8  and  C_9
REMARK    5  A    between atoms: N_13  and  C_14
REMARK    6  A    between atoms: C_24  and  C_25
REMARK                            x       y       z     vdW  Elec       q    Type
REMARK                         _______ _______ _______ _____ _____    ______ ____
ROOT
ATOM      1  C   UNL     1       2.108   7.425  19.479  0.00  0.00    +0.000 A 
ATOM      2  N   UNL     1       1.393   7.155  20.560  0.00  0.00    +0.000 NA
ATOM      3  N   UNL     1       1.623   5.863  20.927  0.00  0.00    +0.000 NA
ATOM      4  C   UNL     1       2.475   5.348  20.070  0.00  0.00    +0.000 A 
ATOM      5  N   UNL     1       2.977   4.060  20.077  0.00  0.00    +0.000 N 
ATOM      6  C   UNL     1       2.589   3.083  21.074  0.00  0.00    +0.000 C 
ATOM      7  C   UNL     1       3.887   3.682  19.098  0.00  0.00    +0.000 A 
ATOM      8  O   UNL     1       4.381   2.554  19.047  0.00  0.00    +0.000 OA
ATOM      9  C   UNL     1       4.270   4.692  18.074  0.00  0.00    +0.000 A 
ATOM     10  C   UNL     1       5.191   4.316  17.085  0.00  0.00    +0.000 A 
ATOM     11  C   UNL     1       5.578   5.226  16.105  0.00  0.00    +0.000 A 
ATOM     12  C   UNL     1       5.033   6.507  16.104  0.00  0.00    +0.000 A 
ATOM     13  C   UNL     1       4.104   6.890  17.080  0.00  0.00    +0.000 A 
ATOM     14  C   UNL     1       3.728   5.989  18.079  0.00  0.00    +0.000 A 
ATOM     15  N   UNL     1       2.823   6.291  19.118  0.00  0.00    +0.000 N 
ENDROOT
BRANCH   1  16
ATOM     16  C   UNL     1       2.065   8.749  18.793  0.00  0.00    +0.000 C 
BRANCH  16  17
ATOM     17  N   UNL     1       1.276   9.746  19.522  0.00  0.00    +0.000 N 
ATOM     18  H   UNL     1       1.877  10.493  19.860  0.00  0.00    +0.000 HD
BRANCH  17  24
ATOM     19  C   UNL     1      -2.857  12.553  20.014  0.00  0.00    +0.000 C 
ATOM     20  C   UNL     1      -1.997  11.567  19.263  0.00  0.00    +0.000 A 
ATOM     21  C   UNL     1      -2.497  11.020  18.077  0.00  0.00    +0.000 A 
ATOM     22  C   UNL     1      -1.736  10.117  17.350  0.00  0.00    +0.000 A 
ATOM     23  C   UNL     1      -0.474   9.735  17.809  0.00  0.00    +0.000 A 
ATOM     24  C   UNL     1       0.074  10.250  18.996  0.00  0.00    +0.000 A 
ATOM     25  C   UNL     1      -0.709  11.181  19.735  0.00  0.00    +0.000 A 
ATOM     26  C   UNL     1      -0.225  11.804  21.026  0.00  0.00    +0.000 C 
ENDBRANCH  17  24
ENDBRANCH  16  17
ENDBRANCH   1  16
TORSDOF 3
ENDMDL
MODEL 9
REMARK VINA RESULT:      -7.9      3.243      8.035
REMARK  Name = 
REMARK  6 active torsions:
REMARK  status: ('A' for Active; 'I' for Inactive)
REMARK    1  A    between atoms: C_1  and  C_2
REMARK    2  A    between atoms: C_6  and  N_7
REMARK    3  A    between atoms: N_7  and  C_8
REMARK    4  A    between atoms: C_8  and  C_9
REMARK    5  A    between atoms: N_13  and  C_14
REMARK    6  A    between atoms: C_24  and  C_25
REMARK                            x       y       z     vdW  Elec       q    Type
REMARK                         _______ _______ _______ _____ _____    ______ ____
ROOT
ATOM      1  C   UNL     1       0.983   9.262  20.398  0.00  0.00    +0.000 A 
ATOM      2  N   UNL     1       1.446   9.355  21.634  0.00  0.00    +0.000 NA
ATOM      3  N   UNL     1       0.703  10.275  22.313  0.00  0.00    +0.000 NA
ATOM      4  C   UNL     1      -0.208  10.741  21.489  0.00  0.00    +0.000 A 
ATOM      5  N   UNL     1      -1.170  11.692  21.773  0.00  0.00    +0.000 N 
ATOM      6  C   UNL     1      -1.274  12.322  23.074  0.00  0.00    +0.000 C 
ATOM      7  C   UNL     1      -2.071  12.062  20.784  0.00  0.00    +0.000 A 
ATOM      8  O   UNL     1      -2.958  12.898  20.968  0.00  0.00    +0.000 OA
ATOM      9  C   UNL     1      -1.946  11.415  19.450  0.00  0.00    +0.000 A 
ATOM     10  C   UNL     1      -2.856  11.783  18.447  0.00  0.00    +0.000 A 
ATOM     11  C   UNL     1      -2.777  11.206  17.183  0.00  0.00    +0.000 A 
ATOM     12  C   UNL     1      -1.780  10.272  16.915  0.00  0.00    +0.000 A 
ATOM     13  C   UNL     1      -0.858   9.905  17.904  0.00  0.00    +0.000 A 
ATOM     14  C   UNL     1      -0.945  10.464  19.181  0.00  0.00    +0.000 A 
ATOM     15  N   UNL     1      -0.083  10.137  20.249  0.00  0.00    +0.000 N 
ENDROOT
BRANCH   1  16
ATOM     16  C   UNL     1       1.593   8.365  19.374  0.00  0.00    +0.000 C 
BRANCH  16  17
ATOM     17  N   UNL     1       2.208   7.167  19.955  0.00  0.00    +0.000 N 
ATOM     18  H   UNL     1       1.683   6.859  20.768  0.00  0.00    +0.000 HD
BRANCH  17  24
ATOM     19  C   UNL     1       2.253   2.235  19.019  0.00  0.00    +0.000 C 
ATOM     20  C   UNL     1       2.682   3.651  18.727  0.00  0.00    +0.000 A 
ATOM     21  C   UNL     1       3.623   3.863  17.714  0.00  0.00    +0.000 A 
ATOM     22  C   UNL     1       4.040   5.149  17.405  0.00  0.00    +0.000 A 
ATOM     23  C   UNL     1       3.536   6.238  18.118  0.00  0.00    +0.000 A 
ATOM     24  C   UNL     1       2.593   6.082  19.148  0.00  0.00    +0.000 A 
ATOM     25  C   UNL     1       2.165   4.760  19.457  0.00  0.00    +0.000 A 
ATOM     26  C   UNL     1       1.153   4.467  20.544  0.00  0.00    +0.000 C 
ENDBRANCH  17  24
ENDBRANCH  16  17
ENDBRANCH   1  16
TORSDOF 3
ENDMDL
