MODEL 1
REMARK VINA RESULT:      -8.4      0.000      0.000
REMARK  Name = 
REMARK  7 active torsions:
REMARK  status: ('A' for Active; 'I' for Inactive)
REMARK    1  A    between atoms: C_1  and  C_2
REMARK    2  A    between atoms: C_5  and  C_6
REMARK    3  A    between atoms: C_7  and  C_8
REMARK    4  A    between atoms: C_8  and  O_9
REMARK    5  A    between atoms: O_9  and  C_10
REMARK    6  A    between atoms: C_14  and  C_15
REMARK    7  A    between atoms: N_17  and  C_18
REMARK                            x       y       z     vdW  Elec       q    Type
REMARK                         _______ _______ _______ _____ _____    ______ ____
ROOT
ATOM      1  C   UNL     1       3.000   4.627  18.372  0.00  0.00    +0.000 A 
ATOM      2  C   UNL     1       3.096   3.592  19.294  0.00  0.00    +0.000 A 
ATOM      3  C   UNL     1       2.604   3.758  20.602  0.00  0.00    +0.000 A 
ATOM      4  C   UNL     1       2.024   4.975  21.023  0.00  0.00    +0.000 A 
ATOM      5  C   UNL     1       1.968   6.032  20.126  0.00  0.00    +0.000 A 
ATOM      6  C   UNL     1       2.462   5.845  18.802  0.00  0.00    +0.000 A 
ENDROOT
BRANCH   5   7
ATOM      7  C   UNL     1       1.442   7.413  20.432  0.00  0.00    +0.000 C 
ATOM      8  O   UNL     1       2.177   8.327  20.056  0.00  0.00    +0.000 OA
ATOM      9  N   UNL     1       0.204   7.628  21.071  0.00  0.00    +0.000 N 
ATOM     10  H   UNL     1      -0.516   6.916  21.070  0.00  0.00    +0.000 HD
BRANCH   9  11
ATOM     11  C   UNL     1      -0.214   8.955  21.432  0.00  0.00    +0.000 A 
ATOM     12  C   UNL     1      -0.470   9.256  22.786  0.00  0.00    +0.000 A 
ATOM     13  C   UNL     1      -0.737  10.534  23.252  0.00  0.00    +0.000 A 
ATOM     14  C   UNL     1      -0.628  11.589  22.370  0.00  0.00    +0.000 A 
ATOM     15  C   UNL     1      -0.409  11.336  21.031  0.00  0.00    +0.000 A 
ATOM     16  C   UNL     1      -0.341  12.417  20.190  0.00  0.00    +0.000 A 
ATOM     17  C   UNL     1      -1.032  12.307  19.004  0.00  0.00    +0.000 A 
ATOM     18  C   UNL     1      -1.147  11.019  18.516  0.00  0.00    +0.000 A 
ATOM     19  N   UNL     1      -0.701   9.895  19.162  0.00  0.00    +0.000 NA
ATOM     20  C   UNL     1      -0.420  10.014  20.492  0.00  0.00    +0.000 A 
ENDBRANCH   9  11
ENDBRANCH   5   7
BRANCH   1  21
ATOM     21  O   UNL     1       3.455   4.361  17.107  0.00  0.00    +0.000 OA
BRANCH  21  22
ATOM     22  C   UNL     1       4.642   3.552  17.005  0.00  0.00    +0.000 C 
BRANCH  22  29
ATOM     23  C   UNL     1       6.091   3.988  14.121  0.00  0.00    +0.000 C 
ATOM     24  C   UNL     1       6.471   4.566  15.430  0.00  0.00    +0.000 A 
ATOM     25  N   UNL     1       7.509   5.409  15.509  0.00  0.00    +0.000 NA
ATOM     26  O   UNL     1       7.596   5.776  16.836  0.00  0.00    +0.000 OA
ATOM     27  C   UNL     1       6.612   5.162  17.547  0.00  0.00    +0.000 A 
ATOM     28  C   UNL     1       6.569   5.479  18.985  0.00  0.00    +0.000 C 
ATOM     29  C   UNL     1       5.855   4.369  16.698  0.00  0.00    +0.000 A 
ENDBRANCH  22  29
ENDBRANCH  21  22
ENDBRANCH   1  21
TORSDOF 5
ENDMDL
MODEL 2
REMARK VINA RESULT:      -8.4      1.745      2.315
REMARK  Name = 
REMARK  7 active torsions:
REMARK  status: ('A' for Active; 'I' for Inactive)
REMARK    1  A    between atoms: C_1  and  C_2
REMARK    2  A    between atoms: C_5  and  C_6
REMARK    3  A    between atoms: C_7  and  C_8
REMARK    4  A    between atoms: C_8  and  O_9
REMARK    5  A    between atoms: O_9  and  C_10
REMARK    6  A    between atoms: C_14  and  C_15
REMARK    7  A    between atoms: N_17  and  C_18
REMARK                            x       y       z     vdW  Elec       q    Type
REMARK                         _______ _______ _______ _____ _____    ______ ____
ROOT
ATOM      1  C   UNL     1       3.167   5.344  18.204  0.00  0.00    +0.000 A 
ATOM      2  C   UNL     1       3.206   4.439  19.257  0.00  0.00    +0.000 A 
ATOM      3  C   UNL     1       2.625   4.768  20.496  0.00  0.00    +0.000 A 
ATOM      4  C   UNL     1       2.012   6.021  20.715  0.00  0.00    +0.000 A 
ATOM      5  C   UNL     1       2.012   6.952  19.686  0.00  0.00    +0.000 A 
ATOM      6  C   UNL     1       2.596   6.601  18.433  0.00  0.00    +0.000 A 
ENDROOT
BRANCH   5   7
ATOM      7  C   UNL     1       1.459   8.353  19.773  0.00  0.00    +0.000 C 
ATOM      8  O   UNL     1       1.332   8.774  20.924  0.00  0.00    +0.000 OA
ATOM      9  N   UNL     1       1.144   9.116  18.630  0.00  0.00    +0.000 N 
ATOM     10  H   UNL     1       1.551   8.901  17.728  0.00  0.00    +0.000 HD
BRANCH   9  11
ATOM     11  C   UNL     1       0.528  10.408  18.758  0.00  0.00    +0.000 A 
ATOM     12  C   UNL     1      -0.876  10.499  18.867  0.00  0.00    +0.000 A 
ATOM     13  C   UNL     1      -1.550  11.679  19.137  0.00  0.00    +0.000 A 
ATOM     14  C   UNL     1      -0.809  12.804  19.435  0.00  0.00    +0.000 A 
ATOM     15  C   UNL     1       0.564  12.767  19.310  0.00  0.00    +0.000 A 
ATOM     16  C   UNL     1       1.252  13.920  19.586  0.00  0.00    +0.000 A 
ATOM     17  C   UNL     1       2.247  14.261  18.697  0.00  0.00    +0.000 A 
ATOM     18  C   UNL     1       2.854  13.191  18.066  0.00  0.00    +0.000 A 
ATOM     19  N   UNL     1       2.480  11.880  18.215  0.00  0.00    +0.000 NA
ATOM     20  C   UNL     1       1.250  11.644  18.755  0.00  0.00    +0.000 A 
ENDBRANCH   9  11
ENDBRANCH   5   7
BRANCH   1  21
ATOM     21  O   UNL     1       3.709   4.922  17.017  0.00  0.00    +0.000 OA
BRANCH  21  22
ATOM     22  C   UNL     1       4.940   4.178  17.097  0.00  0.00    +0.000 C 
BRANCH  22  29
ATOM     23  C   UNL     1       5.791   3.857  13.971  0.00  0.00    +0.000 C 
ATOM     24  C   UNL     1       6.409   4.722  15.001  0.00  0.00    +0.000 A 
ATOM     25  N   UNL     1       7.430   5.526  14.670  0.00  0.00    +0.000 NA
ATOM     26  O   UNL     1       7.767   6.199  15.825  0.00  0.00    +0.000 OA
ATOM     27  C   UNL     1       6.951   5.808  16.841  0.00  0.00    +0.000 A 
ATOM     28  C   UNL     1       7.185   6.464  18.139  0.00  0.00    +0.000 C 
ATOM     29  C   UNL     1       6.056   4.858  16.373  0.00  0.00    +0.000 A 
ENDBRANCH  22  29
ENDBRANCH  21  22
ENDBRANCH   1  21
TORSDOF 5
ENDMDL
MODEL 3
REMARK VINA RESULT:      -8.4      1.487      2.514
REMARK  Name = 
REMARK  7 active torsions:
REMARK  status: ('A' for Active; 'I' for Inactive)
REMARK    1  A    between atoms: C_1  and  C_2
REMARK    2  A    between atoms: C_5  and  C_6
REMARK    3  A    between atoms: C_7  and  C_8
REMARK    4  A    between atoms: C_8  and  O_9
REMARK    5  A    between atoms: O_9  and  C_10
REMARK    6  A    between atoms: C_14  and  C_15
REMARK    7  A    between atoms: N_17  and  C_18
REMARK                            x       y       z     vdW  Elec       q    Type
REMARK                         _______ _______ _______ _____ _____    ______ ____
ROOT
ATOM      1  C   UNL     1       4.311   3.488  18.980  0.00  0.00    +0.000 A 
ATOM      2  C   UNL     1       4.193   2.463  19.909  0.00  0.00    +0.000 A 
ATOM      3  C   UNL     1       3.250   2.553  20.950  0.00  0.00    +0.000 A 
ATOM      4  C   UNL     1       2.417   3.684  21.095  0.00  0.00    +0.000 A 
ATOM      5  C   UNL     1       2.561   4.736  20.202  0.00  0.00    +0.000 A 
ATOM      6  C   UNL     1       3.514   4.626  19.147  0.00  0.00    +0.000 A 
ENDROOT
BRANCH   5   7
ATOM      7  C   UNL     1       1.800   6.039  20.253  0.00  0.00    +0.000 C 
ATOM      8  O   UNL     1       0.633   5.926  20.633  0.00  0.00    +0.000 OA
ATOM      9  N   UNL     1       2.389   7.274  19.919  0.00  0.00    +0.000 N 
ATOM     10  H   UNL     1       3.395   7.396  19.936  0.00  0.00    +0.000 HD
BRANCH   9  11
ATOM     11  C   UNL     1       1.603   8.477  19.886  0.00  0.00    +0.000 A 
ATOM     12  C   UNL     1       1.529   9.225  18.692  0.00  0.00    +0.000 A 
ATOM     13  C   UNL     1       0.688  10.313  18.518  0.00  0.00    +0.000 A 
ATOM     14  C   UNL     1      -0.213  10.611  19.518  0.00  0.00    +0.000 A 
ATOM     15  C   UNL     1      -0.154   9.925  20.714  0.00  0.00    +0.000 A 
ATOM     16  C   UNL     1      -1.051  10.281  21.688  0.00  0.00    +0.000 A 
ATOM     17  C   UNL     1      -0.543  10.410  22.962  0.00  0.00    +0.000 A 
ATOM     18  C   UNL     1       0.541   9.599  23.240  0.00  0.00    +0.000 A 
ATOM     19  N   UNL     1       1.154   8.774  22.332  0.00  0.00    +0.000 NA
ATOM     20  C   UNL     1       0.892   9.001  21.013  0.00  0.00    +0.000 A 
ENDBRANCH   9  11
ENDBRANCH   5   7
BRANCH   1  21
ATOM     21  O   UNL     1       5.217   3.294  17.969  0.00  0.00    +0.000 OA
BRANCH  21  22
ATOM     22  C   UNL     1       4.881   3.851  16.685  0.00  0.00    +0.000 C 
BRANCH  22  29
ATOM     23  C   UNL     1       5.995   3.767  13.626  0.00  0.00    +0.000 C 
ATOM     24  C   UNL     1       6.482   4.595  14.752  0.00  0.00    +0.000 A 
ATOM     25  N   UNL     1       7.480   5.467  14.554  0.00  0.00    +0.000 NA
ATOM     26  O   UNL     1       7.688   6.083  15.770  0.00  0.00    +0.000 OA
ATOM     27  C   UNL     1       6.816   5.590  16.690  0.00  0.00    +0.000 A 
ATOM     28  C   UNL     1       6.909   6.175  18.039  0.00  0.00    +0.000 C 
ATOM     29  C   UNL     1       6.013   4.628  16.095  0.00  0.00    +0.000 A 
ENDBRANCH  22  29
ENDBRANCH  21  22
ENDBRANCH   1  21
TORSDOF 5
ENDMDL
MODEL 4
REMARK VINA RESULT:      -8.3      1.657      2.617
REMARK  Name = 
REMARK  7 active torsions:
REMARK  status: ('A' for Active; 'I' for Inactive)
REMARK    1  A    between atoms: C_1  and  C_2
REMARK    2  A    between atoms: C_5  and  C_6
REMARK    3  A    between atoms: C_7  and  C_8
REMARK    4  A    between atoms: C_8  and  O_9
REMARK    5  A    between atoms: O_9  and  C_10
REMARK    6  A    between atoms: C_14  and  C_15
REMARK    7  A    between atoms: N_17  and  C_18
REMARK                            x       y       z     vdW  Elec       q    Type
REMARK                         _______ _______ _______ _____ _____    ______ ____
ROOT
ATOM      1  C   UNL     1       3.128   5.061  18.150  0.00  0.00    +0.000 A 
ATOM      2  C   UNL     1       3.270   4.160  19.197  0.00  0.00    +0.000 A 
ATOM      3  C   UNL     1       2.818   4.494  20.487  0.00  0.00    +0.000 A 
ATOM      4  C   UNL     1       2.232   5.750  20.762  0.00  0.00    +0.000 A 
ATOM      5  C   UNL     1       2.131   6.677  19.734  0.00  0.00    +0.000 A 
ATOM      6  C   UNL     1       2.585   6.320  18.430  0.00  0.00    +0.000 A 
ENDROOT
BRANCH   5   7
ATOM      7  C   UNL     1       1.593   8.080  19.871  0.00  0.00    +0.000 C 
ATOM      8  O   UNL     1       1.556   8.495  21.031  0.00  0.00    +0.000 OA
ATOM      9  N   UNL     1       1.194   8.850  18.760  0.00  0.00    +0.000 N 
ATOM     10  H   UNL     1       1.531   8.639  17.828  0.00  0.00    +0.000 HD
BRANCH   9  11
ATOM     11  C   UNL     1       0.596  10.144  18.942  0.00  0.00    +0.000 A 
ATOM     12  C   UNL     1      -0.787  10.237  19.208  0.00  0.00    +0.000 A 
ATOM     13  C   UNL     1      -1.427  11.421  19.538  0.00  0.00    +0.000 A 
ATOM     14  C   UNL     1      -0.658  12.549  19.738  0.00  0.00    +0.000 A 
ATOM     15  C   UNL     1       0.693  12.509  19.459  0.00  0.00    +0.000 A 
ATOM     16  C   UNL     1       1.406  13.665  19.644  0.00  0.00    +0.000 A 
ATOM     17  C   UNL     1       2.294  13.995  18.645  0.00  0.00    +0.000 A 
ATOM     18  C   UNL     1       2.828  12.918  17.962  0.00  0.00    +0.000 A 
ATOM     19  N   UNL     1       2.473  11.609  18.167  0.00  0.00    +0.000 NA
ATOM     20  C   UNL     1       1.312  11.379  18.844  0.00  0.00    +0.000 A 
ENDBRANCH   9  11
ENDBRANCH   5   7
BRANCH   1  21
ATOM     21  O   UNL     1       3.547   4.633  16.916  0.00  0.00    +0.000 OA
BRANCH  21  22
ATOM     22  C   UNL     1       4.786   3.902  16.873  0.00  0.00    +0.000 C 
BRANCH  22  29
ATOM     23  C   UNL     1       6.707   6.130  18.270  0.00  0.00    +0.000 C 
ATOM     24  C   UNL     1       6.730   5.655  16.868  0.00  0.00    +0.000 A 
ATOM     25  N   UNL     1       7.651   6.132  16.019  0.00  0.00    +0.000 NA
ATOM     26  O   UNL     1       7.421   5.494  14.818  0.00  0.00    +0.000 OA
ATOM     27  C   UNL     1       6.373   4.636  14.947  0.00  0.00    +0.000 A 
ATOM     28  C   UNL     1       6.025   3.865  13.741  0.00  0.00    +0.000 C 
ATOM     29  C   UNL     1       5.886   4.695  16.244  0.00  0.00    +0.000 A 
ENDBRANCH  22  29
ENDBRANCH  21  22
ENDBRANCH   1  21
TORSDOF 5
ENDMDL
MODEL 5
REMARK VINA RESULT:      -8.2      2.538      9.076
REMARK  Name = 
REMARK  7 active torsions:
REMARK  status: ('A' for Active; 'I' for Inactive)
REMARK    1  A    between atoms: C_1  and  C_2
REMARK    2  A    between atoms: C_5  and  C_6
REMARK    3  A    between atoms: C_7  and  C_8
REMARK    4  A    between atoms: C_8  and  O_9
REMARK    5  A    between atoms: O_9  and  C_10
REMARK    6  A    between atoms: C_14  and  C_15
REMARK    7  A    between atoms: N_17  and  C_18
REMARK                            x       y       z     vdW  Elec       q    Type
REMARK                         _______ _______ _______ _____ _____    ______ ____
ROOT
ATOM      1  C   UNL     1       0.034  10.453  20.334  0.00  0.00    +0.000 A 
ATOM      2  C   UNL     1      -0.058  10.319  21.714  0.00  0.00    +0.000 A 
ATOM      3  C   UNL     1       0.633   9.287  22.375  0.00  0.00    +0.000 A 
ATOM      4  C   UNL     1       1.416   8.351  21.665  0.00  0.00    +0.000 A 
ATOM      5  C   UNL     1       1.475   8.444  20.281  0.00  0.00    +0.000 A 
ATOM      6  C   UNL     1       0.777   9.501  19.627  0.00  0.00    +0.000 A 
ENDROOT
BRANCH   5   7
ATOM      7  C   UNL     1       2.210   7.491  19.370  0.00  0.00    +0.000 C 
ATOM      8  O   UNL     1       2.275   7.864  18.198  0.00  0.00    +0.000 OA
ATOM      9  N   UNL     1       2.789   6.294  19.835  0.00  0.00    +0.000 N 
ATOM     10  H   UNL     1       3.016   6.167  20.814  0.00  0.00    +0.000 HD
BRANCH   9  11
ATOM     11  C   UNL     1       3.394   5.367  18.917  0.00  0.00    +0.000 A 
ATOM     12  C   UNL     1       2.584   4.421  18.253  0.00  0.00    +0.000 A 
ATOM     13  C   UNL     1       3.046   3.585  17.249  0.00  0.00    +0.000 A 
ATOM     14  C   UNL     1       4.332   3.766  16.785  0.00  0.00    +0.000 A 
ATOM     15  C   UNL     1       5.167   4.659  17.426  0.00  0.00    +0.000 A 
ATOM     16  C   UNL     1       6.446   4.778  16.947  0.00  0.00    +0.000 A 
ATOM     17  C   UNL     1       7.447   4.804  17.892  0.00  0.00    +0.000 A 
ATOM     18  C   UNL     1       7.081   5.338  19.113  0.00  0.00    +0.000 A 
ATOM     19  N   UNL     1       5.814   5.748  19.438  0.00  0.00    +0.000 NA
ATOM     20  C   UNL     1       4.797   5.314  18.639  0.00  0.00    +0.000 A 
ENDBRANCH   9  11
ENDBRANCH   5   7
BRANCH   1  21
ATOM     21  O   UNL     1      -0.628  11.517  19.779  0.00  0.00    +0.000 OA
BRANCH  21  22
ATOM     22  C   UNL     1      -0.954  11.416  18.380  0.00  0.00    +0.000 C 
BRANCH  22  29
ATOM     23  C   UNL     1      -3.355  12.698  20.169  0.00  0.00    +0.000 C 
ATOM     24  C   UNL     1      -3.468  11.894  18.930  0.00  0.00    +0.000 A 
ATOM     25  N   UNL     1      -4.676  11.653  18.402  0.00  0.00    +0.000 NA
ATOM     26  O   UNL     1      -4.446  10.905  17.267  0.00  0.00    +0.000 OA
ATOM     27  C   UNL     1      -3.110  10.704  17.111  0.00  0.00    +0.000 A 
ATOM     28  C   UNL     1      -2.714   9.932  15.920  0.00  0.00    +0.000 C 
ATOM     29  C   UNL     1      -2.427  11.317  18.151  0.00  0.00    +0.000 A 
ENDBRANCH  22  29
ENDBRANCH  21  22
ENDBRANCH   1  21
TORSDOF 5
ENDMDL
MODEL 6
REMARK VINA RESULT:      -8.2      2.669      8.971
REMARK  Name = 
REMARK  7 active torsions:
REMARK  status: ('A' for Active; 'I' for Inactive)
REMARK    1  A    between atoms: C_1  and  C_2
REMARK    2  A    between atoms: C_5  and  C_6
REMARK    3  A    between atoms: C_7  and  C_8
REMARK    4  A    between atoms: C_8  and  O_9
REMARK    5  A    between atoms: O_9  and  C_10
REMARK    6  A    between atoms: C_14  and  C_15
REMARK    7  A    between atoms: N_17  and  C_18
REMARK                            x       y       z     vdW  Elec       q    Type
REMARK                         _______ _______ _______ _____ _____    ______ ____
ROOT
ATOM      1  C   UNL     1      -0.192  11.098  20.626  0.00  0.00    +0.000 A 
ATOM      2  C   UNL     1      -0.371  10.755  21.960  0.00  0.00    +0.000 A 
ATOM      3  C   UNL     1       0.199   9.574  22.471  0.00  0.00    +0.000 A 
ATOM      4  C   UNL     1       0.944   8.698  21.650  0.00  0.00    +0.000 A 
ATOM      5  C   UNL     1       1.087   9.006  20.305  0.00  0.00    +0.000 A 
ATOM      6  C   UNL     1       0.511  10.211  19.804  0.00  0.00    +0.000 A 
ENDROOT
BRANCH   5   7
ATOM      7  C   UNL     1       1.792   8.151  19.281  0.00  0.00    +0.000 C 
ATOM      8  O   UNL     1       1.626   8.518  18.117  0.00  0.00    +0.000 OA
ATOM      9  N   UNL     1       2.591   7.046  19.638  0.00  0.00    +0.000 N 
ATOM     10  H   UNL     1       2.981   6.960  20.569  0.00  0.00    +0.000 HD
BRANCH   9  11
ATOM     11  C   UNL     1       3.165   6.200  18.628  0.00  0.00    +0.000 A 
ATOM     12  C   UNL     1       4.078   6.747  17.702  0.00  0.00    +0.000 A 
ATOM     13  C   UNL     1       4.791   5.988  16.786  0.00  0.00    +0.000 A 
ATOM     14  C   UNL     1       4.698   4.614  16.861  0.00  0.00    +0.000 A 
ATOM     15  C   UNL     1       3.794   4.039  17.731  0.00  0.00    +0.000 A 
ATOM     16  C   UNL     1       3.718   2.670  17.744  0.00  0.00    +0.000 A 
ATOM     17  C   UNL     1       2.450   2.134  17.755  0.00  0.00    +0.000 A 
ATOM     18  C   UNL     1       1.493   2.917  18.376  0.00  0.00    +0.000 A 
ATOM     19  N   UNL     1       1.718   4.171  18.882  0.00  0.00    +0.000 NA
ATOM     20  C   UNL     1       2.850   4.812  18.471  0.00  0.00    +0.000 A 
ENDBRANCH   9  11
ENDBRANCH   5   7
BRANCH   1  21
ATOM     21  O   UNL     1      -0.737  12.291  20.226  0.00  0.00    +0.000 OA
BRANCH  21  22
ATOM     22  C   UNL     1      -1.156  12.381  18.851  0.00  0.00    +0.000 C 
BRANCH  22  29
ATOM     23  C   UNL     1      -2.128  10.076  16.766  0.00  0.00    +0.000 C 
ATOM     24  C   UNL     1      -2.948  10.827  17.744  0.00  0.00    +0.000 A 
ATOM     25  N   UNL     1      -4.254  10.554  17.866  0.00  0.00    +0.000 NA
ATOM     26  O   UNL     1      -4.724  11.398  18.851  0.00  0.00    +0.000 OA
ATOM     27  C   UNL     1      -3.705  12.167  19.321  0.00  0.00    +0.000 A 
ATOM     28  C   UNL     1      -4.058  13.107  20.399  0.00  0.00    +0.000 C 
ATOM     29  C   UNL     1      -2.536  11.847  18.647  0.00  0.00    +0.000 A 
ENDBRANCH  22  29
ENDBRANCH  21  22
ENDBRANCH   1  21
TORSDOF 5
ENDMDL
MODEL 7
REMARK VINA RESULT:      -8.2      1.068      1.116
REMARK  Name = 
REMARK  7 active torsions:
REMARK  status: ('A' for Active; 'I' for Inactive)
REMARK    1  A    between atoms: C_1  and  C_2
REMARK    2  A    between atoms: C_5  and  C_6
REMARK    3  A    between atoms: C_7  and  C_8
REMARK    4  A    between atoms: C_8  and  O_9
REMARK    5  A    between atoms: O_9  and  C_10
REMARK    6  A    between atoms: C_14  and  C_15
REMARK    7  A    between atoms: N_17  and  C_18
REMARK                            x       y       z     vdW  Elec       q    Type
REMARK                         _______ _______ _______ _____ _____    ______ ____
ROOT
ATOM      1  C   UNL     1       3.460   4.469  18.036  0.00  0.00    +0.000 A 
ATOM      2  C   UNL     1       3.952   3.422  18.806  0.00  0.00    +0.000 A 
ATOM      3  C   UNL     1       3.582   3.300  20.158  0.00  0.00    +0.000 A 
ATOM      4  C   UNL     1       2.725   4.238  20.776  0.00  0.00    +0.000 A 
ATOM      5  C   UNL     1       2.268   5.315  20.031  0.00  0.00    +0.000 A 
ATOM      6  C   UNL     1       2.644   5.420  18.659  0.00  0.00    +0.000 A 
ENDROOT
BRANCH   5   7
ATOM      7  C   UNL     1       1.403   6.436  20.552  0.00  0.00    +0.000 C 
ATOM      8  O   UNL     1       0.261   6.090  20.862  0.00  0.00    +0.000 OA
ATOM      9  N   UNL     1       1.876   7.756  20.693  0.00  0.00    +0.000 N 
ATOM     10  H   UNL     1       2.868   7.952  20.756  0.00  0.00    +0.000 HD
BRANCH   9  11
ATOM     11  C   UNL     1       0.992   8.813  21.100  0.00  0.00    +0.000 A 
ATOM     12  C   UNL     1       0.588   8.899  22.449  0.00  0.00    +0.000 A 
ATOM     13  C   UNL     1      -0.143   9.957  22.967  0.00  0.00    +0.000 A 
ATOM     14  C   UNL     1      -0.387  11.044  22.154  0.00  0.00    +0.000 A 
ATOM     15  C   UNL     1      -0.036  10.989  20.820  0.00  0.00    +0.000 A 
ATOM     16  C   UNL     1      -0.329  12.083  20.048  0.00  0.00    +0.000 A 
ATOM     17  C   UNL     1      -0.884  11.823  18.814  0.00  0.00    +0.000 A 
ATOM     18  C   UNL     1      -0.505  10.620  18.249  0.00  0.00    +0.000 A 
ATOM     19  N   UNL     1       0.291   9.685  18.859  0.00  0.00    +0.000 NA
ATOM     20  C   UNL     1       0.455   9.796  20.209  0.00  0.00    +0.000 A 
ENDBRANCH   9  11
ENDBRANCH   5   7
BRANCH   1  21
ATOM     21  O   UNL     1       3.829   4.481  16.716  0.00  0.00    +0.000 OA
BRANCH  21  22
ATOM     22  C   UNL     1       4.969   3.678  16.357  0.00  0.00    +0.000 C 
BRANCH  22  29
ATOM     23  C   UNL     1       6.137   3.729  13.317  0.00  0.00    +0.000 C 
ATOM     24  C   UNL     1       6.583   4.530  14.480  0.00  0.00    +0.000 A 
ATOM     25  N   UNL     1       7.561   5.433  14.330  0.00  0.00    +0.000 NA
ATOM     26  O   UNL     1       7.732   6.011  15.571  0.00  0.00    +0.000 OA
ATOM     27  C   UNL     1       6.858   5.464  16.457  0.00  0.00    +0.000 A 
ATOM     28  C   UNL     1       6.913   6.004  17.827  0.00  0.00    +0.000 C 
ATOM     29  C   UNL     1       6.090   4.503  15.815  0.00  0.00    +0.000 A 
ENDBRANCH  22  29
ENDBRANCH  21  22
ENDBRANCH   1  21
TORSDOF 5
ENDMDL
MODEL 8
REMARK VINA RESULT:      -8.1      2.811      4.290
REMARK  Name = 
REMARK  7 active torsions:
REMARK  status: ('A' for Active; 'I' for Inactive)
REMARK    1  A    between atoms: C_1  and  C_2
REMARK    2  A    between atoms: C_5  and  C_6
REMARK    3  A    between atoms: C_7  and  C_8
REMARK    4  A    between atoms: C_8  and  O_9
REMARK    5  A    between atoms: O_9  and  C_10
REMARK    6  A    between atoms: C_14  and  C_15
REMARK    7  A    between atoms: N_17  and  C_18
REMARK                            x       y       z     vdW  Elec       q    Type
REMARK                         _______ _______ _______ _____ _____    ______ ____
ROOT
ATOM      1  C   UNL     1       4.666   4.790  18.895  0.00  0.00    +0.000 A 
ATOM      2  C   UNL     1       5.287   4.699  17.655  0.00  0.00    +0.000 A 
ATOM      3  C   UNL     1       5.070   5.688  16.678  0.00  0.00    +0.000 A 
ATOM      4  C   UNL     1       4.207   6.782  16.913  0.00  0.00    +0.000 A 
ATOM      5  C   UNL     1       3.543   6.857  18.129  0.00  0.00    +0.000 A 
ATOM      6  C   UNL     1       3.780   5.852  19.113  0.00  0.00    +0.000 A 
ENDROOT
BRANCH   5   7
ATOM      7  C   UNL     1       2.543   7.918  18.516  0.00  0.00    +0.000 C 
ATOM      8  O   UNL     1       2.067   7.775  19.644  0.00  0.00    +0.000 OA
ATOM      9  N   UNL     1       2.207   8.990  17.665  0.00  0.00    +0.000 N 
ATOM     10  H   UNL     1       2.825   9.276  16.915  0.00  0.00    +0.000 HD
BRANCH   9  11
ATOM     11  C   UNL     1       1.177   9.923  18.031  0.00  0.00    +0.000 A 
ATOM     12  C   UNL     1      -0.175   9.531  17.947  0.00  0.00    +0.000 A 
ATOM     13  C   UNL     1      -1.229  10.303  18.411  0.00  0.00    +0.000 A 
ATOM     14  C   UNL     1      -0.938  11.462  19.100  0.00  0.00    +0.000 A 
ATOM     15  C   UNL     1       0.369  11.897  19.179  0.00  0.00    +0.000 A 
ATOM     16  C   UNL     1       0.601  13.071  19.848  0.00  0.00    +0.000 A 
ATOM     17  C   UNL     1       1.463  13.955  19.240  0.00  0.00    +0.000 A 
ATOM     18  C   UNL     1       2.436  13.369  18.451  0.00  0.00    +0.000 A 
ATOM     19  N   UNL     1       2.529  12.026  18.194  0.00  0.00    +0.000 NA
ATOM     20  C   UNL     1       1.428  11.265  18.461  0.00  0.00    +0.000 A 
ENDBRANCH   9  11
ENDBRANCH   5   7
BRANCH   1  21
ATOM     21  O   UNL     1       4.975   3.813  19.805  0.00  0.00    +0.000 OA
BRANCH  21  22
ATOM     22  C   UNL     1       4.366   2.524  19.600  0.00  0.00    +0.000 C 
BRANCH  22  29
ATOM     23  C   UNL     1       2.639   2.481  16.840  0.00  0.00    +0.000 C 
ATOM     24  C   UNL     1       2.137   2.585  18.229  0.00  0.00    +0.000 A 
ATOM     25  N   UNL     1       0.818   2.638  18.458  0.00  0.00    +0.000 NA
ATOM     26  O   UNL     1       0.677   2.716  19.827  0.00  0.00    +0.000 OA
ATOM     27  C   UNL     1       1.902   2.704  20.417  0.00  0.00    +0.000 A 
ATOM     28  C   UNL     1       1.905   2.761  21.889  0.00  0.00    +0.000 C 
ATOM     29  C   UNL     1       2.883   2.621  19.440  0.00  0.00    +0.000 A 
ENDBRANCH  22  29
ENDBRANCH  21  22
ENDBRANCH   1  21
TORSDOF 5
ENDMDL
MODEL 9
REMARK VINA RESULT:      -8.1      2.886      9.189
REMARK  Name = 
REMARK  7 active torsions:
REMARK  status: ('A' for Active; 'I' for Inactive)
REMARK    1  A    between atoms: C_1  and  C_2
REMARK    2  A    between atoms: C_5  and  C_6
REMARK    3  A    between atoms: C_7  and  C_8
REMARK    4  A    between atoms: C_8  and  O_9
REMARK    5  A    between atoms: O_9  and  C_10
REMARK    6  A    between atoms: C_14  and  C_15
REMARK    7  A    between atoms: N_17  and  C_18
REMARK                            x       y       z     vdW  Elec       q    Type
REMARK                         _______ _______ _______ _____ _____    ______ ____
ROOT
ATOM      1  C   UNL     1      -0.653  10.917  20.294  0.00  0.00    +0.000 A 
ATOM      2  C   UNL     1      -0.556  10.788  21.674  0.00  0.00    +0.000 A 
ATOM      3  C   UNL     1       0.335   9.857  22.239  0.00  0.00    +0.000 A 
ATOM      4  C   UNL     1       1.133   9.016  21.433  0.00  0.00    +0.000 A 
ATOM      5  C   UNL     1       1.008   9.101  20.054  0.00  0.00    +0.000 A 
ATOM      6  C   UNL     1       0.109  10.056  19.496  0.00  0.00    +0.000 A 
ENDROOT
BRANCH   5   7
ATOM      7  C   UNL     1       1.736   8.236  19.054  0.00  0.00    +0.000 C 
ATOM      8  O   UNL     1       1.560   8.566  17.880  0.00  0.00    +0.000 OA
ATOM      9  N   UNL     1       2.563   7.162  19.441  0.00  0.00    +0.000 N 
ATOM     10  H   UNL     1       2.955   7.113  20.374  0.00  0.00    +0.000 HD
BRANCH   9  11
ATOM     11  C   UNL     1       3.159   6.303  18.454  0.00  0.00    +0.000 A 
ATOM     12  C   UNL     1       4.070   6.844  17.523  0.00  0.00    +0.000 A 
ATOM     13  C   UNL     1       4.802   6.077  16.630  0.00  0.00    +0.000 A 
ATOM     14  C   UNL     1       4.731   4.704  16.735  0.00  0.00    +0.000 A 
ATOM     15  C   UNL     1       3.831   4.134  17.611  0.00  0.00    +0.000 A 
ATOM     16  C   UNL     1       3.777   2.764  17.655  0.00  0.00    +0.000 A 
ATOM     17  C   UNL     1       2.518   2.207  17.670  0.00  0.00    +0.000 A 
ATOM     18  C   UNL     1       1.544   2.988  18.265  0.00  0.00    +0.000 A 
ATOM     19  N   UNL     1       1.744   4.257  18.744  0.00  0.00    +0.000 NA
ATOM     20  C   UNL     1       2.868   4.907  18.327  0.00  0.00    +0.000 A 
ENDBRANCH   9  11
ENDBRANCH   5   7
BRANCH   1  21
ATOM     21  O   UNL     1      -1.506  11.885  19.831  0.00  0.00    +0.000 OA
BRANCH  21  22
ATOM     22  C   UNL     1      -1.650  11.988  18.402  0.00  0.00    +0.000 C 
BRANCH  22  29
ATOM     23  C   UNL     1      -4.478  12.492  19.937  0.00  0.00    +0.000 C 
ATOM     24  C   UNL     1      -4.255  11.855  18.619  0.00  0.00    +0.000 A 
ATOM     25  N   UNL     1      -5.304  11.440  17.895  0.00  0.00    +0.000 NA
ATOM     26  O   UNL     1      -4.775  10.914  16.735  0.00  0.00    +0.000 OA
ATOM     27  C   UNL     1      -3.419  11.017  16.760  0.00  0.00    +0.000 A 
ATOM     28  C   UNL     1      -2.717  10.511  15.568  0.00  0.00    +0.000 C 
ATOM     29  C   UNL     1      -3.024  11.615  17.947  0.00  0.00    +0.000 A 
ENDBRANCH  22  29
ENDBRANCH  21  22
ENDBRANCH   1  21
TORSDOF 5
ENDMDL
