MODEL 1
REMARK VINA RESULT:      -7.7      0.000      0.000
REMARK  Name = 
REMARK  4 active torsions:
REMARK  status: ('A' for Active; 'I' for Inactive)
REMARK    1  A    between atoms: C_1  and  C_2
REMARK    2  A    between atoms: C_8  and  N_9
REMARK    3  A    between atoms: C_10  and  C_12
REMARK    4  A    between atoms: C_25  and  C_26
REMARK                            x       y       z     vdW  Elec       q    Type
REMARK                         _______ _______ _______ _____ _____    ______ ____
ROOT
ATOM      1  C   UNL     1      -4.342  12.795  20.210  0.00  0.00    +0.000 C 
ATOM      2  C   UNL     1      -3.696  13.833  21.123  0.00  0.00    +0.000 C 
ATOM      3  C   UNL     1      -2.157  13.822  21.050  0.00  0.00    +0.000 C 
ATOM      4  N   UNL     1      -1.577  12.719  21.818  0.00  0.00    +0.000 N 
ATOM      5  C   UNL     1      -0.892  11.697  21.192  0.00  0.00    +0.000 A 
ATOM      6  C   UNL     1       0.060  10.980  21.907  0.00  0.00    +0.000 A 
ATOM      7  C   UNL     1       0.800   9.966  21.301  0.00  0.00    +0.000 A 
ATOM      8  C   UNL     1       0.595   9.646  19.965  0.00  0.00    +0.000 A 
ATOM      9  C   UNL     1      -0.374  10.408  19.316  0.00  0.00    +0.000 A 
ATOM     10  N   UNL     1      -1.100  11.420  19.887  0.00  0.00    +0.000 NA
ATOM     11  C   UNL     1      -2.118  12.551  23.174  0.00  0.00    +0.000 C 
ATOM     12  C   UNL     1      -3.662  12.556  23.150  0.00  0.00    +0.000 C 
ATOM     13  C   UNL     1      -4.220  12.554  24.570  0.00  0.00    +0.000 C 
ATOM     14  O   UNL     1      -4.178  13.719  22.478  0.00  0.00    +0.000 OA
ENDROOT
BRANCH   8  15
ATOM     15  N   UNL     1       1.323   8.638  19.281  0.00  0.00    +0.000 N 
ATOM     16  C   UNL     1       2.078   8.828  18.137  0.00  0.00    +0.000 C 
ATOM     17  O   UNL     1       2.258   9.896  17.555  0.00  0.00    +0.000 OA
ATOM     18  H   UNL     1       1.277   7.689  19.643  0.00  0.00    +0.000 HD
BRANCH  16  19
ATOM     19  C   UNL     1       2.719   7.564  17.538  0.00  0.00    +0.000 C 
ATOM     20  C   UNL     1       2.013   6.337  18.146  0.00  0.00    +0.000 C 
ATOM     21  C   UNL     1       3.184   5.498  18.468  0.00  0.00    +0.000 A 
ATOM     22  C   UNL     1       3.217   4.235  19.037  0.00  0.00    +0.000 A 
ATOM     23  C   UNL     1       4.464   3.641  19.233  0.00  0.00    +0.000 A 
ATOM     24 CL   UNL     1       4.558   2.093  19.978  0.00  0.00    +0.000 Cl
ATOM     25  C   UNL     1       5.643   4.295  18.841  0.00  0.00    +0.000 A 
ATOM     26  C   UNL     1       5.587   5.579  18.287  0.00  0.00    +0.000 A 
ATOM     27  C   UNL     1       4.347   6.167  18.137  0.00  0.00    +0.000 A 
ATOM     28  O   UNL     1       4.148   7.449  17.699  0.00  0.00    +0.000 OA
ENDBRANCH  16  19
ENDBRANCH   8  15
TORSDOF 2
ENDMDL
MODEL 2
REMARK VINA RESULT:      -7.7      3.635      9.726
REMARK  Name = 
REMARK  4 active torsions:
REMARK  status: ('A' for Active; 'I' for Inactive)
REMARK    1  A    between atoms: C_1  and  C_2
REMARK    2  A    between atoms: C_8  and  N_9
REMARK    3  A    between atoms: C_10  and  C_12
REMARK    4  A    between atoms: C_25  and  C_26
REMARK                            x       y       z     vdW  Elec       q    Type
REMARK                         _______ _______ _______ _____ _____    ______ ____
ROOT
ATOM      1  C   UNL     1       1.993   3.762  20.976  0.00  0.00    +0.000 C 
ATOM      2  C   UNL     1       3.336   3.788  20.254  0.00  0.00    +0.000 C 
ATOM      3  C   UNL     1       3.885   5.214  20.056  0.00  0.00    +0.000 C 
ATOM      4  N   UNL     1       3.225   5.909  18.950  0.00  0.00    +0.000 N 
ATOM      5  C   UNL     1       2.439   7.022  19.176  0.00  0.00    +0.000 A 
ATOM      6  C   UNL     1       2.259   7.945  18.152  0.00  0.00    +0.000 A 
ATOM      7  C   UNL     1       1.505   9.100  18.351  0.00  0.00    +0.000 A 
ATOM      8  C   UNL     1       0.907   9.349  19.580  0.00  0.00    +0.000 A 
ATOM      9  C   UNL     1       1.132   8.380  20.554  0.00  0.00    +0.000 A 
ATOM     10  N   UNL     1       1.884   7.247  20.386  0.00  0.00    +0.000 NA
ATOM     11  C   UNL     1       3.103   5.133  17.709  0.00  0.00    +0.000 C 
ATOM     12  C   UNL     1       2.532   3.728  17.997  0.00  0.00    +0.000 C 
ATOM     13  C   UNL     1       2.566   2.866  16.740  0.00  0.00    +0.000 C 
ATOM     14  O   UNL     1       3.286   3.048  19.015  0.00  0.00    +0.000 OA
ENDROOT
BRANCH   8  15
ATOM     15  N   UNL     1       0.140  10.511  19.856  0.00  0.00    +0.000 N 
ATOM     16  C   UNL     1       0.457  11.480  20.792  0.00  0.00    +0.000 C 
ATOM     17  O   UNL     1       1.459  11.500  21.505  0.00  0.00    +0.000 OA
ATOM     18  H   UNL     1      -0.727  10.642  19.343  0.00  0.00    +0.000 HD
BRANCH  16  19
ATOM     19  C   UNL     1      -0.570  12.612  20.961  0.00  0.00    +0.000 C 
ATOM     20  C   UNL     1      -1.039  12.615  22.428  0.00  0.00    +0.000 C 
ATOM     21  C   UNL     1      -2.496  12.752  22.235  0.00  0.00    +0.000 A 
ATOM     22  C   UNL     1      -3.496  12.829  23.190  0.00  0.00    +0.000 A 
ATOM     23  C   UNL     1      -4.812  12.967  22.747  0.00  0.00    +0.000 A 
ATOM     24 CL   UNL     1      -6.092  13.021  23.896  0.00  0.00    +0.000 Cl
ATOM     25  C   UNL     1      -5.105  13.049  21.377  0.00  0.00    +0.000 A 
ATOM     26  C   UNL     1      -4.081  12.949  20.428  0.00  0.00    +0.000 A 
ATOM     27  C   UNL     1      -2.790  12.773  20.884  0.00  0.00    +0.000 A 
ATOM     28  O   UNL     1      -1.706  12.566  20.073  0.00  0.00    +0.000 OA
ENDBRANCH  16  19
ENDBRANCH   8  15
TORSDOF 2
ENDMDL
MODEL 3
REMARK VINA RESULT:      -7.7      7.660      9.104
REMARK  Name = 
REMARK  4 active torsions:
REMARK  status: ('A' for Active; 'I' for Inactive)
REMARK    1  A    between atoms: C_1  and  C_2
REMARK    2  A    between atoms: C_8  and  N_9
REMARK    3  A    between atoms: C_10  and  C_12
REMARK    4  A    between atoms: C_25  and  C_26
REMARK                            x       y       z     vdW  Elec       q    Type
REMARK                         _______ _______ _______ _____ _____    ______ ____
ROOT
ATOM      1  C   UNL     1       8.470  15.676  18.287  0.00  0.00    +0.000 C 
ATOM      2  C   UNL     1       9.945  15.676  18.674  0.00  0.00    +0.000 C 
ATOM      3  C   UNL     1      10.667  14.369  18.292  0.00  0.00    +0.000 C 
ATOM      4  N   UNL     1      10.373  13.284  19.229  0.00  0.00    +0.000 N 
ATOM      5  C   UNL     1       9.672  12.165  18.826  0.00  0.00    +0.000 A 
ATOM      6  C   UNL     1       9.844  10.970  19.517  0.00  0.00    +0.000 A 
ATOM      7  C   UNL     1       9.184   9.809  19.119  0.00  0.00    +0.000 A 
ATOM      8  C   UNL     1       8.330   9.824  18.023  0.00  0.00    +0.000 A 
ATOM      9  C   UNL     1       8.209  11.055  17.384  0.00  0.00    +0.000 A 
ATOM     10  N   UNL     1       8.862  12.204  17.747  0.00  0.00    +0.000 NA
ATOM     11  C   UNL     1      10.484  13.640  20.650  0.00  0.00    +0.000 C 
ATOM     12  C   UNL     1       9.720  14.948  20.946  0.00  0.00    +0.000 C 
ATOM     13  C   UNL     1       9.977  15.407  22.378  0.00  0.00    +0.000 C 
ATOM     14  O   UNL     1      10.128  16.010  20.066  0.00  0.00    +0.000 OA
ENDROOT
BRANCH   8  15
ATOM     15  N   UNL     1       7.640   8.675  17.555  0.00  0.00    +0.000 N 
ATOM     16  C   UNL     1       7.785   7.392  18.051  0.00  0.00    +0.000 C 
ATOM     17  O   UNL     1       8.507   7.053  18.987  0.00  0.00    +0.000 OA
ATOM     18  H   UNL     1       6.997   8.792  16.776  0.00  0.00    +0.000 HD
BRANCH  16  19
ATOM     19  C   UNL     1       6.980   6.298  17.330  0.00  0.00    +0.000 C 
ATOM     20  C   UNL     1       5.549   6.826  17.108  0.00  0.00    +0.000 C 
ATOM     21  C   UNL     1       4.769   5.646  17.527  0.00  0.00    +0.000 A 
ATOM     22  C   UNL     1       3.394   5.476  17.550  0.00  0.00    +0.000 A 
ATOM     23  C   UNL     1       2.896   4.247  17.984  0.00  0.00    +0.000 A 
ATOM     24 CL   UNL     1       1.195   4.006  18.073  0.00  0.00    +0.000 Cl
ATOM     25  C   UNL     1       3.765   3.211  18.360  0.00  0.00    +0.000 A 
ATOM     26  C   UNL     1       5.150   3.410  18.349  0.00  0.00    +0.000 A 
ATOM     27  C   UNL     1       5.623   4.646  17.954  0.00  0.00    +0.000 A 
ATOM     28  O   UNL     1       6.942   5.013  17.984  0.00  0.00    +0.000 OA
ENDBRANCH  16  19
ENDBRANCH   8  15
TORSDOF 2
ENDMDL
MODEL 4
REMARK VINA RESULT:      -7.6      2.284      2.776
REMARK  Name = 
REMARK  4 active torsions:
REMARK  status: ('A' for Active; 'I' for Inactive)
REMARK    1  A    between atoms: C_1  and  C_2
REMARK    2  A    between atoms: C_8  and  N_9
REMARK    3  A    between atoms: C_10  and  C_12
REMARK    4  A    between atoms: C_25  and  C_26
REMARK                            x       y       z     vdW  Elec       q    Type
REMARK                         _______ _______ _______ _____ _____    ______ ____
ROOT
ATOM      1  C   UNL     1      -2.542  12.303  19.526  0.00  0.00    +0.000 C 
ATOM      2  C   UNL     1      -1.969  13.250  20.577  0.00  0.00    +0.000 C 
ATOM      3  C   UNL     1      -0.486  12.971  20.893  0.00  0.00    +0.000 C 
ATOM      4  N   UNL     1      -0.321  11.815  21.777  0.00  0.00    +0.000 N 
ATOM      5  C   UNL     1       0.306  10.666  21.337  0.00  0.00    +0.000 A 
ATOM      6  C   UNL     1       0.908   9.824  22.265  0.00  0.00    +0.000 A 
ATOM      7  C   UNL     1       1.583   8.674  21.859  0.00  0.00    +0.000 A 
ATOM      8  C   UNL     1       1.662   8.341  20.513  0.00  0.00    +0.000 A 
ATOM      9  C   UNL     1       1.035   9.232  19.645  0.00  0.00    +0.000 A 
ATOM     10  N   UNL     1       0.381  10.377  20.021  0.00  0.00    +0.000 NA
ATOM     11  C   UNL     1      -1.202  11.798  22.952  0.00  0.00    +0.000 C 
ATOM     12  C   UNL     1      -2.665  12.069  22.542  0.00  0.00    +0.000 C 
ATOM     13  C   UNL     1      -3.549  12.220  23.776  0.00  0.00    +0.000 C 
ATOM     14  O   UNL     1      -2.784  13.275  21.768  0.00  0.00    +0.000 OA
ENDROOT
BRANCH   8  15
ATOM     15  N   UNL     1       2.346   7.195  20.029  0.00  0.00    +0.000 N 
ATOM     16  C   UNL     1       1.986   5.882  20.272  0.00  0.00    +0.000 C 
ATOM     17  O   UNL     1       1.008   5.505  20.916  0.00  0.00    +0.000 OA
ATOM     18  H   UNL     1       3.185   7.341  19.473  0.00  0.00    +0.000 HD
BRANCH  16  19
ATOM     19  C   UNL     1       2.927   4.810  19.699  0.00  0.00    +0.000 C 
ATOM     20  C   UNL     1       4.342   5.414  19.613  0.00  0.00    +0.000 C 
ATOM     21  C   UNL     1       4.733   4.972  18.261  0.00  0.00    +0.000 A 
ATOM     22  C   UNL     1       5.922   5.188  17.585  0.00  0.00    +0.000 A 
ATOM     23  C   UNL     1       6.051   4.651  16.304  0.00  0.00    +0.000 A 
ATOM     24 CL   UNL     1       7.494   4.933  15.408  0.00  0.00    +0.000 Cl
ATOM     25  C   UNL     1       5.016   3.894  15.733  0.00  0.00    +0.000 A 
ATOM     26  C   UNL     1       3.815   3.705  16.425  0.00  0.00    +0.000 A 
ATOM     27  C   UNL     1       3.690   4.277  17.675  0.00  0.00    +0.000 A 
ATOM     28  O   UNL     1       2.544   4.255  18.424  0.00  0.00    +0.000 OA
ENDBRANCH  16  19
ENDBRANCH   8  15
TORSDOF 2
ENDMDL
MODEL 5
REMARK VINA RESULT:      -7.6      2.008      2.496
REMARK  Name = 
REMARK  4 active torsions:
REMARK  status: ('A' for Active; 'I' for Inactive)
REMARK    1  A    between atoms: C_1  and  C_2
REMARK    2  A    between atoms: C_8  and  N_9
REMARK    3  A    between atoms: C_10  and  C_12
REMARK    4  A    between atoms: C_25  and  C_26
REMARK                            x       y       z     vdW  Elec       q    Type
REMARK                         _______ _______ _______ _____ _____    ______ ____
ROOT
ATOM      1  C   UNL     1      -1.352  14.300  20.268  0.00  0.00    +0.000 C 
ATOM      2  C   UNL     1      -1.609  14.671  21.725  0.00  0.00    +0.000 C 
ATOM      3  C   UNL     1      -0.764  13.843  22.714  0.00  0.00    +0.000 C 
ATOM      4  N   UNL     1      -1.310  12.499  22.912  0.00  0.00    +0.000 N 
ATOM      5  C   UNL     1      -0.612  11.380  22.503  0.00  0.00    +0.000 A 
ATOM      6  C   UNL     1      -0.855  10.162  23.128  0.00  0.00    +0.000 A 
ATOM      7  C   UNL     1      -0.145   9.017  22.771  0.00  0.00    +0.000 A 
ATOM      8  C   UNL     1       0.819   9.068  21.772  0.00  0.00    +0.000 A 
ATOM      9  C   UNL     1       1.005  10.321  21.193  0.00  0.00    +0.000 A 
ATOM     10  N   UNL     1       0.331  11.463  21.540  0.00  0.00    +0.000 NA
ATOM     11  C   UNL     1      -2.756  12.443  23.161  0.00  0.00    +0.000 C 
ATOM     12  C   UNL     1      -3.523  13.283  22.118  0.00  0.00    +0.000 C 
ATOM     13  C   UNL     1      -5.003  13.365  22.476  0.00  0.00    +0.000 C 
ATOM     14  O   UNL     1      -3.016  14.627  22.043  0.00  0.00    +0.000 OA
ENDROOT
BRANCH   8  15
ATOM     15  N   UNL     1       1.589   7.946  21.369  0.00  0.00    +0.000 N 
ATOM     16  C   UNL     1       1.919   7.624  20.065  0.00  0.00    +0.000 C 
ATOM     17  O   UNL     1       1.623   8.270  19.061  0.00  0.00    +0.000 OA
ATOM     18  H   UNL     1       1.913   7.307  22.091  0.00  0.00    +0.000 HD
BRANCH  16  19
ATOM     19  C   UNL     1       2.703   6.315  19.874  0.00  0.00    +0.000 C 
ATOM     20  C   UNL     1       4.013   6.647  19.135  0.00  0.00    +0.000 C 
ATOM     21  C   UNL     1       4.027   5.566  18.131  0.00  0.00    +0.000 A 
ATOM     22  C   UNL     1       4.971   5.299  17.153  0.00  0.00    +0.000 A 
ATOM     23  C   UNL     1       4.757   4.199  16.323  0.00  0.00    +0.000 A 
ATOM     24 CL   UNL     1       5.880   3.856  15.064  0.00  0.00    +0.000 Cl
ATOM     25  C   UNL     1       3.633   3.376  16.494  0.00  0.00    +0.000 A 
ATOM     26  C   UNL     1       2.681   3.675  17.475  0.00  0.00    +0.000 A 
ATOM     27  C   UNL     1       2.889   4.790  18.261  0.00  0.00    +0.000 A 
ATOM     28  O   UNL     1       2.000   5.256  19.192  0.00  0.00    +0.000 OA
ENDBRANCH  16  19
ENDBRANCH   8  15
TORSDOF 2
ENDMDL
MODEL 6
REMARK VINA RESULT:      -7.6      8.123      9.366
REMARK  Name = 
REMARK  4 active torsions:
REMARK  status: ('A' for Active; 'I' for Inactive)
REMARK    1  A    between atoms: C_1  and  C_2
REMARK    2  A    between atoms: C_8  and  N_9
REMARK    3  A    between atoms: C_10  and  C_12
REMARK    4  A    between atoms: C_25  and  C_26
REMARK                            x       y       z     vdW  Elec       q    Type
REMARK                         _______ _______ _______ _____ _____    ______ ____
ROOT
ATOM      1  C   UNL     1       9.853  15.715  17.435  0.00  0.00    +0.000 C 
ATOM      2  C   UNL     1      10.804  16.054  18.578  0.00  0.00    +0.000 C 
ATOM      3  C   UNL     1      11.481  14.810  19.187  0.00  0.00    +0.000 C 
ATOM      4  N   UNL     1      10.585  14.082  20.087  0.00  0.00    +0.000 N 
ATOM      5  C   UNL     1      10.154  12.806  19.783  0.00  0.00    +0.000 A 
ATOM      6  C   UNL     1       9.766  11.957  20.814  0.00  0.00    +0.000 A 
ATOM      7  C   UNL     1       9.361  10.649  20.553  0.00  0.00    +0.000 A 
ATOM      8  C   UNL     1       9.328  10.168  19.250  0.00  0.00    +0.000 A 
ATOM      9  C   UNL     1       9.729  11.076  18.274  0.00  0.00    +0.000 A 
ATOM     10  N   UNL     1      10.148  12.359  18.509  0.00  0.00    +0.000 NA
ATOM     11  C   UNL     1       9.867  14.914  21.061  0.00  0.00    +0.000 C 
ATOM     12  C   UNL     1       9.208  16.124  20.365  0.00  0.00    +0.000 C 
ATOM     13  C   UNL     1       8.610  17.076  21.395  0.00  0.00    +0.000 C 
ATOM     14  O   UNL     1      10.158  16.867  19.581  0.00  0.00    +0.000 OA
ENDROOT
BRANCH   8  15
ATOM     15  N   UNL     1       8.941   8.844  18.915  0.00  0.00    +0.000 N 
ATOM     16  C   UNL     1       7.979   8.499  17.983  0.00  0.00    +0.000 C 
ATOM     17  O   UNL     1       7.333   9.279  17.284  0.00  0.00    +0.000 OA
ATOM     18  H   UNL     1       9.389   8.077  19.410  0.00  0.00    +0.000 HD
BRANCH  16  19
ATOM     19  C   UNL     1       7.683   6.996  17.846  0.00  0.00    +0.000 C 
ATOM     20  C   UNL     1       6.617   6.818  16.748  0.00  0.00    +0.000 C 
ATOM     21  C   UNL     1       5.715   5.859  17.414  0.00  0.00    +0.000 A 
ATOM     22  C   UNL     1       4.551   5.282  16.934  0.00  0.00    +0.000 A 
ATOM     23  C   UNL     1       3.876   4.387  17.764  0.00  0.00    +0.000 A 
ATOM     24 CL   UNL     1       2.400   3.682  17.228  0.00  0.00    +0.000 Cl
ATOM     25  C   UNL     1       4.379   4.064  19.034  0.00  0.00    +0.000 A 
ATOM     26  C   UNL     1       5.547   4.673  19.508  0.00  0.00    +0.000 A 
ATOM     27  C   UNL     1       6.179   5.586  18.688  0.00  0.00    +0.000 A 
ATOM     28  O   UNL     1       7.272   6.326  19.054  0.00  0.00    +0.000 OA
ENDBRANCH  16  19
ENDBRANCH   8  15
TORSDOF 2
ENDMDL
MODEL 7
REMARK VINA RESULT:      -7.5      4.248      9.381
REMARK  Name = 
REMARK  4 active torsions:
REMARK  status: ('A' for Active; 'I' for Inactive)
REMARK    1  A    between atoms: C_1  and  C_2
REMARK    2  A    between atoms: C_8  and  N_9
REMARK    3  A    between atoms: C_10  and  C_12
REMARK    4  A    between atoms: C_25  and  C_26
REMARK                            x       y       z     vdW  Elec       q    Type
REMARK                         _______ _______ _______ _____ _____    ______ ____
ROOT
ATOM      1  C   UNL     1       4.568   4.353  16.870  0.00  0.00    +0.000 C 
ATOM      2  C   UNL     1       3.542   3.283  17.229  0.00  0.00    +0.000 C 
ATOM      3  C   UNL     1       2.186   3.873  17.665  0.00  0.00    +0.000 C 
ATOM      4  N   UNL     1       2.220   4.368  19.042  0.00  0.00    +0.000 N 
ATOM      5  C   UNL     1       2.074   5.713  19.319  0.00  0.00    +0.000 A 
ATOM      6  C   UNL     1       1.595   6.102  20.565  0.00  0.00    +0.000 A 
ATOM      7  C   UNL     1       1.398   7.448  20.870  0.00  0.00    +0.000 A 
ATOM      8  C   UNL     1       1.684   8.433  19.933  0.00  0.00    +0.000 A 
ATOM      9  C   UNL     1       2.159   7.966  18.710  0.00  0.00    +0.000 A 
ATOM     10  N   UNL     1       2.344   6.648  18.383  0.00  0.00    +0.000 NA
ATOM     11  C   UNL     1       2.821   3.453  20.020  0.00  0.00    +0.000 C 
ATOM     12  C   UNL     1       4.180   2.925  19.511  0.00  0.00    +0.000 C 
ATOM     13  C   UNL     1       4.721   1.848  20.445  0.00  0.00    +0.000 C 
ATOM     14  O   UNL     1       4.066   2.351  18.198  0.00  0.00    +0.000 OA
ENDROOT
BRANCH   8  15
ATOM     15  N   UNL     1       1.492   9.819  20.172  0.00  0.00    +0.000 N 
ATOM     16  C   UNL     1       0.300  10.503  20.015  0.00  0.00    +0.000 C 
ATOM     17  O   UNL     1      -0.778  10.016  19.675  0.00  0.00    +0.000 OA
ATOM     18  H   UNL     1       2.296  10.368  20.464  0.00  0.00    +0.000 HD
BRANCH  16  19
ATOM     19  C   UNL     1       0.358  12.019  20.266  0.00  0.00    +0.000 C 
ATOM     20  C   UNL     1       0.596  12.718  18.914  0.00  0.00    +0.000 C 
ATOM     21  C   UNL     1       1.646  13.681  19.300  0.00  0.00    +0.000 A 
ATOM     22  C   UNL     1       2.287  14.627  18.518  0.00  0.00    +0.000 A 
ATOM     23  C   UNL     1       3.248  15.434  19.128  0.00  0.00    +0.000 A 
ATOM     24 CL   UNL     1       4.104  16.592  18.185  0.00  0.00    +0.000 Cl
ATOM     25  C   UNL     1       3.534  15.304  20.496  0.00  0.00    +0.000 A 
ATOM     26  C   UNL     1       2.888  14.328  21.263  0.00  0.00    +0.000 A 
ATOM     27  C   UNL     1       1.969  13.513  20.634  0.00  0.00    +0.000 A 
ATOM     28  O   UNL     1       1.333  12.458  21.233  0.00  0.00    +0.000 OA
ENDBRANCH  16  19
ENDBRANCH   8  15
TORSDOF 2
ENDMDL
MODEL 8
REMARK VINA RESULT:      -7.4      3.580      9.808
REMARK  Name = 
REMARK  4 active torsions:
REMARK  status: ('A' for Active; 'I' for Inactive)
REMARK    1  A    between atoms: C_1  and  C_2
REMARK    2  A    between atoms: C_8  and  N_9
REMARK    3  A    between atoms: C_10  and  C_12
REMARK    4  A    between atoms: C_25  and  C_26
REMARK                            x       y       z     vdW  Elec       q    Type
REMARK                         _______ _______ _______ _____ _____    ______ ____
ROOT
ATOM      1  C   UNL     1       5.007   6.670  15.944  0.00  0.00    +0.000 C 
ATOM      2  C   UNL     1       4.744   5.308  16.579  0.00  0.00    +0.000 C 
ATOM      3  C   UNL     1       3.378   5.230  17.290  0.00  0.00    +0.000 C 
ATOM      4  N   UNL     1       3.401   5.887  18.597  0.00  0.00    +0.000 N 
ATOM      5  C   UNL     1       2.648   7.019  18.839  0.00  0.00    +0.000 A 
ATOM      6  C   UNL     1       2.268   7.317  20.142  0.00  0.00    +0.000 A 
ATOM      7  C   UNL     1       1.476   8.429  20.424  0.00  0.00    +0.000 A 
ATOM      8  C   UNL     1       1.055   9.270  19.402  0.00  0.00    +0.000 A 
ATOM      9  C   UNL     1       1.475   8.907  18.125  0.00  0.00    +0.000 A 
ATOM     10  N   UNL     1       2.238   7.809  17.824  0.00  0.00    +0.000 NA
ATOM     11  C   UNL     1       4.545   5.540  19.451  0.00  0.00    +0.000 C 
ATOM     12  C   UNL     1       5.868   5.662  18.666  0.00  0.00    +0.000 C 
ATOM     13  C   UNL     1       7.036   5.139  19.497  0.00  0.00    +0.000 C 
ATOM     14  O   UNL     1       5.830   4.907  17.442  0.00  0.00    +0.000 OA
ENDROOT
BRANCH   8  15
ATOM     15  N   UNL     1       0.235  10.409  19.615  0.00  0.00    +0.000 N 
ATOM     16  C   UNL     1       0.394  11.335  20.632  0.00  0.00    +0.000 C 
ATOM     17  O   UNL     1       1.279  11.331  21.485  0.00  0.00    +0.000 OA
ATOM     18  H   UNL     1      -0.550  10.556  18.986  0.00  0.00    +0.000 HD
BRANCH  16  19
ATOM     19  C   UNL     1      -0.667  12.447  20.699  0.00  0.00    +0.000 C 
ATOM     20  C   UNL     1      -1.174  12.534  22.151  0.00  0.00    +0.000 C 
ATOM     21  C   UNL     1      -2.629  12.616  21.913  0.00  0.00    +0.000 A 
ATOM     22  C   UNL     1      -3.655  12.729  22.836  0.00  0.00    +0.000 A 
ATOM     23  C   UNL     1      -4.962  12.800  22.353  0.00  0.00    +0.000 A 
ATOM     24 CL   UNL     1      -6.273  12.894  23.463  0.00  0.00    +0.000 Cl
ATOM     25  C   UNL     1      -5.221  12.784  20.973  0.00  0.00    +0.000 A 
ATOM     26  C   UNL     1      -4.170  12.650  20.058  0.00  0.00    +0.000 A 
ATOM     27  C   UNL     1      -2.888  12.541  20.557  0.00  0.00    +0.000 A 
ATOM     28  O   UNL     1      -1.777  12.311  19.789  0.00  0.00    +0.000 OA
ENDBRANCH  16  19
ENDBRANCH   8  15
TORSDOF 2
ENDMDL
MODEL 9
REMARK VINA RESULT:      -7.4      3.718      9.917
REMARK  Name = 
REMARK  4 active torsions:
REMARK  status: ('A' for Active; 'I' for Inactive)
REMARK    1  A    between atoms: C_1  and  C_2
REMARK    2  A    between atoms: C_8  and  N_9
REMARK    3  A    between atoms: C_10  and  C_12
REMARK    4  A    between atoms: C_25  and  C_26
REMARK                            x       y       z     vdW  Elec       q    Type
REMARK                         _______ _______ _______ _____ _____    ______ ____
ROOT
ATOM      1  C   UNL     1       2.381   3.945  20.866  0.00  0.00    +0.000 C 
ATOM      2  C   UNL     1       3.682   4.010  20.071  0.00  0.00    +0.000 C 
ATOM      3  C   UNL     1       4.143   5.453  19.789  0.00  0.00    +0.000 C 
ATOM      4  N   UNL     1       3.389   6.067  18.694  0.00  0.00    +0.000 N 
ATOM      5  C   UNL     1       2.558   7.146  18.919  0.00  0.00    +0.000 A 
ATOM      6  C   UNL     1       2.277   8.016  17.872  0.00  0.00    +0.000 A 
ATOM      7  C   UNL     1       1.473   9.138  18.066  0.00  0.00    +0.000 A 
ATOM      8  C   UNL     1       0.928   9.407  19.315  0.00  0.00    +0.000 A 
ATOM      9  C   UNL     1       1.254   8.491  20.313  0.00  0.00    +0.000 A 
ATOM     10  N   UNL     1       2.056   7.392  20.148  0.00  0.00    +0.000 NA
ATOM     11  C   UNL     1       3.245   5.235  17.492  0.00  0.00    +0.000 C 
ATOM     12  C   UNL     1       2.765   3.816  17.865  0.00  0.00    +0.000 C 
ATOM     13  C   UNL     1       2.780   2.905  16.642  0.00  0.00    +0.000 C 
ATOM     14  O   UNL     1       3.606   3.218  18.867  0.00  0.00    +0.000 OA
ENDROOT
BRANCH   8  15
ATOM     15  N   UNL     1       0.115  10.538  19.587  0.00  0.00    +0.000 N 
ATOM     16  C   UNL     1      -1.170  10.737  19.113  0.00  0.00    +0.000 C 
ATOM     17  O   UNL     1      -1.813   9.958  18.412  0.00  0.00    +0.000 OA
ATOM     18  H   UNL     1       0.508  11.280  20.161  0.00  0.00    +0.000 HD
BRANCH  16  19
ATOM     19  C   UNL     1      -1.823  12.078  19.487  0.00  0.00    +0.000 C 
ATOM     20  C   UNL     1      -1.763  12.228  21.019  0.00  0.00    +0.000 C 
ATOM     21  C   UNL     1      -3.139  12.689  21.289  0.00  0.00    +0.000 A 
ATOM     22  C   UNL     1      -3.722  13.019  22.501  0.00  0.00    +0.000 A 
ATOM     23  C   UNL     1      -5.052  13.441  22.491  0.00  0.00    +0.000 A 
ATOM     24 CL   UNL     1      -5.833  13.817  23.978  0.00  0.00    +0.000 Cl
ATOM     25  C   UNL     1      -5.763  13.552  21.286  0.00  0.00    +0.000 A 
ATOM     26  C   UNL     1      -5.160  13.194  20.075  0.00  0.00    +0.000 A 
ATOM     27  C   UNL     1      -3.857  12.741  20.109  0.00  0.00    +0.000 A 
ATOM     28  O   UNL     1      -3.174  12.269  19.019  0.00  0.00    +0.000 OA
ENDBRANCH  16  19
ENDBRANCH   8  15
TORSDOF 2
ENDMDL
