MODEL 1
REMARK VINA RESULT:      -8.8      0.000      0.000
REMARK  Name = 
REMARK  3 active torsions:
REMARK  status: ('A' for Active; 'I' for Inactive)
REMARK    1  A    between atoms: C_1  and  C_2
REMARK    2  A    between atoms: C_5  and  C_6
REMARK    3  A    between atoms: C_10  and  C_11
REMARK                            x       y       z     vdW  Elec       q    Type
REMARK                         _______ _______ _______ _____ _____    ______ ____
ROOT
ATOM      1  C   UNL     1       2.119   5.857  19.795  0.00  0.00    +0.000 C 
ATOM      2  O   UNL     1       1.659   5.406  20.840  0.00  0.00    +0.000 OA
ATOM      3  N   UNL     1       2.118   7.173  19.386  0.00  0.00    +0.000 N 
ATOM      4  C   UNL     1       1.568   8.146  20.181  0.00  0.00    +0.000 A 
ATOM      5  N   UNL     1       1.236   8.077  21.446  0.00  0.00    +0.000 NA
ATOM      6  C   UNL     1       0.633   9.252  21.815  0.00  0.00    +0.000 A 
ATOM      7  C   UNL     1       0.504  10.196  20.819  0.00  0.00    +0.000 A 
ATOM      8  S   UNL     1       1.242   9.633  19.389  0.00  0.00    +0.000 S 
ATOM      9  C   UNL     1      -0.224  11.483  20.977  0.00  0.00    +0.000 C 
ATOM     10  O   UNL     1      -0.383  11.759  22.387  0.00  0.00    +0.000 OA
ATOM     11  C   UNL     1      -0.902  10.638  23.133  0.00  0.00    +0.000 C 
ATOM     12  C   UNL     1       0.125   9.498  23.188  0.00  0.00    +0.000 C 
ATOM     13  H   UNL     1       2.350   7.432  18.441  0.00  0.00    +0.000 HD
ENDROOT
BRANCH   1  18
ATOM     14  C   UNL     1       4.349   4.397  17.118  0.00  0.00    +0.000 A 
ATOM     15  C   UNL     1       3.732   3.155  16.904  0.00  0.00    +0.000 A 
ATOM     16  C   UNL     1       2.603   2.774  17.640  0.00  0.00    +0.000 A 
ATOM     17  C   UNL     1       2.071   3.631  18.603  0.00  0.00    +0.000 A 
ATOM     18  C   UNL     1       2.668   4.875  18.826  0.00  0.00    +0.000 A 
ATOM     19  C   UNL     1       3.798   5.255  18.077  0.00  0.00    +0.000 A 
BRANCH  14  24
ATOM     20  C   UNL     1       7.189   4.688  13.242  0.00  0.00    +0.000 C 
ATOM     21  C   UNL     1       6.793   4.893  14.644  0.00  0.00    +0.000 A 
ATOM     22  N   UNL     1       7.389   5.584  15.592  0.00  0.00    +0.000 NA
ATOM     23  N   UNL     1       6.574   5.497  16.704  0.00  0.00    +0.000 NA
ATOM     24  C   UNL     1       5.540   4.754  16.357  0.00  0.00    +0.000 A 
ATOM     25  O   UNL     1       5.616   4.328  15.055  0.00  0.00    +0.000 OA
ENDBRANCH  14  24
ENDBRANCH   1  18
TORSDOF 2
ENDMDL
MODEL 2
REMARK VINA RESULT:      -8.7      1.914      2.457
REMARK  Name = 
REMARK  3 active torsions:
REMARK  status: ('A' for Active; 'I' for Inactive)
REMARK    1  A    between atoms: C_1  and  C_2
REMARK    2  A    between atoms: C_5  and  C_6
REMARK    3  A    between atoms: C_10  and  C_11
REMARK                            x       y       z     vdW  Elec       q    Type
REMARK                         _______ _______ _______ _____ _____    ______ ____
ROOT
ATOM      1  C   UNL     1       2.553   7.829  18.400  0.00  0.00    +0.000 C 
ATOM      2  O   UNL     1       2.505   8.514  17.382  0.00  0.00    +0.000 OA
ATOM      3  N   UNL     1       1.914   8.072  19.596  0.00  0.00    +0.000 N 
ATOM      4  C   UNL     1       1.111   9.175  19.742  0.00  0.00    +0.000 A 
ATOM      5  N   UNL     1       0.624   9.960  18.814  0.00  0.00    +0.000 NA
ATOM      6  C   UNL     1      -0.048  10.996  19.412  0.00  0.00    +0.000 A 
ATOM      7  C   UNL     1      -0.052  10.989  20.789  0.00  0.00    +0.000 A 
ATOM      8  S   UNL     1       0.737   9.591  21.364  0.00  0.00    +0.000 S 
ATOM      9  C   UNL     1      -0.617  12.079  21.628  0.00  0.00    +0.000 C 
ATOM     10  O   UNL     1      -1.500  12.884  20.814  0.00  0.00    +0.000 OA
ATOM     11  C   UNL     1      -0.911  13.286  19.560  0.00  0.00    +0.000 C 
ATOM     12  C   UNL     1      -0.713  12.074  18.638  0.00  0.00    +0.000 C 
ATOM     13  H   UNL     1       2.150   7.564  20.433  0.00  0.00    +0.000 HD
ENDROOT
BRANCH   1  18
ATOM     14  C   UNL     1       5.105   5.357  17.116  0.00  0.00    +0.000 A 
ATOM     15  C   UNL     1       5.126   4.425  18.165  0.00  0.00    +0.000 A 
ATOM     16  C   UNL     1       4.330   4.602  19.303  0.00  0.00    +0.000 A 
ATOM     17  C   UNL     1       3.498   5.716  19.411  0.00  0.00    +0.000 A 
ATOM     18  C   UNL     1       3.458   6.652  18.374  0.00  0.00    +0.000 A 
ATOM     19  C   UNL     1       4.255   6.464  17.229  0.00  0.00    +0.000 A 
BRANCH  14  24
ATOM     20  C   UNL     1       6.353   3.693  12.774  0.00  0.00    +0.000 C 
ATOM     21  C   UNL     1       6.517   4.436  14.034  0.00  0.00    +0.000 A 
ATOM     22  N   UNL     1       7.481   5.248  14.410  0.00  0.00    +0.000 NA
ATOM     23  N   UNL     1       7.122   5.722  15.657  0.00  0.00    +0.000 NA
ATOM     24  C   UNL     1       5.966   5.161  15.956  0.00  0.00    +0.000 A 
ATOM     25  O   UNL     1       5.521   4.322  14.966  0.00  0.00    +0.000 OA
ENDBRANCH  14  24
ENDBRANCH   1  18
TORSDOF 2
ENDMDL
MODEL 3
REMARK VINA RESULT:      -8.3      0.920      1.038
REMARK  Name = 
REMARK  3 active torsions:
REMARK  status: ('A' for Active; 'I' for Inactive)
REMARK    1  A    between atoms: C_1  and  C_2
REMARK    2  A    between atoms: C_5  and  C_6
REMARK    3  A    between atoms: C_10  and  C_11
REMARK                            x       y       z     vdW  Elec       q    Type
REMARK                         _______ _______ _______ _____ _____    ______ ____
ROOT
ATOM      1  C   UNL     1       2.208   6.120  19.655  0.00  0.00    +0.000 C 
ATOM      2  O   UNL     1       1.644   5.937  20.731  0.00  0.00    +0.000 OA
ATOM      3  N   UNL     1       2.289   7.300  18.949  0.00  0.00    +0.000 N 
ATOM      4  C   UNL     1       1.707   8.442  19.437  0.00  0.00    +0.000 A 
ATOM      5  N   UNL     1       1.265   8.682  20.646  0.00  0.00    +0.000 NA
ATOM      6  C   UNL     1       0.675   9.919  20.670  0.00  0.00    +0.000 A 
ATOM      7  C   UNL     1       0.666  10.600  19.472  0.00  0.00    +0.000 A 
ATOM      8  S   UNL     1       1.503   9.701  18.290  0.00  0.00    +0.000 S 
ATOM      9  C   UNL     1      -0.027  11.897  19.253  0.00  0.00    +0.000 C 
ATOM     10  O   UNL     1      -0.297  12.504  20.537  0.00  0.00    +0.000 OA
ATOM     11  C   UNL     1      -0.917  11.601  21.476  0.00  0.00    +0.000 C 
ATOM     12  C   UNL     1       0.060  10.493  21.893  0.00  0.00    +0.000 C 
ATOM     13  H   UNL     1       2.610   7.323  17.994  0.00  0.00    +0.000 HD
ENDROOT
BRANCH   1  18
ATOM     14  C   UNL     1       4.448   4.064  17.414  0.00  0.00    +0.000 A 
ATOM     15  C   UNL     1       3.938   2.775  17.634  0.00  0.00    +0.000 A 
ATOM     16  C   UNL     1       2.880   2.562  18.526  0.00  0.00    +0.000 A 
ATOM     17  C   UNL     1       2.312   3.636  19.212  0.00  0.00    +0.000 A 
ATOM     18  C   UNL     1       2.803   4.928  19.001  0.00  0.00    +0.000 A 
ATOM     19  C   UNL     1       3.862   5.136  18.097  0.00  0.00    +0.000 A 
BRANCH  14  24
ATOM     20  C   UNL     1       6.708   4.203  13.165  0.00  0.00    +0.000 C 
ATOM     21  C   UNL     1       6.568   4.324  14.625  0.00  0.00    +0.000 A 
ATOM     22  N   UNL     1       7.430   4.764  15.517  0.00  0.00    +0.000 NA
ATOM     23  N   UNL     1       6.781   4.721  16.735  0.00  0.00    +0.000 NA
ATOM     24  C   UNL     1       5.570   4.252  16.501  0.00  0.00    +0.000 A 
ATOM     25  O   UNL     1       5.365   3.971  15.174  0.00  0.00    +0.000 OA
ENDBRANCH  14  24
ENDBRANCH   1  18
TORSDOF 2
ENDMDL
MODEL 4
REMARK VINA RESULT:      -8.3      1.810      2.380
REMARK  Name = 
REMARK  3 active torsions:
REMARK  status: ('A' for Active; 'I' for Inactive)
REMARK    1  A    between atoms: C_1  and  C_2
REMARK    2  A    between atoms: C_5  and  C_6
REMARK    3  A    between atoms: C_10  and  C_11
REMARK                            x       y       z     vdW  Elec       q    Type
REMARK                         _______ _______ _______ _____ _____    ______ ____
ROOT
ATOM      1  C   UNL     1       1.916   7.488  19.811  0.00  0.00    +0.000 C 
ATOM      2  O   UNL     1       2.152   8.243  18.872  0.00  0.00    +0.000 OA
ATOM      3  N   UNL     1       1.124   7.749  20.909  0.00  0.00    +0.000 N 
ATOM      4  C   UNL     1       0.490   8.959  21.035  0.00  0.00    +0.000 A 
ATOM      5  N   UNL     1       0.300   9.881  20.125  0.00  0.00    +0.000 NA
ATOM      6  C   UNL     1      -0.295  10.970  20.709  0.00  0.00    +0.000 A 
ATOM      7  C   UNL     1      -0.540  10.864  22.060  0.00  0.00    +0.000 A 
ATOM      8  S   UNL     1      -0.090   9.314  22.610  0.00  0.00    +0.000 S 
ATOM      9  C   UNL     1      -1.065  11.971  22.904  0.00  0.00    +0.000 C 
ATOM     10  O   UNL     1      -1.657  12.971  22.044  0.00  0.00    +0.000 OA
ATOM     11  C   UNL     1      -0.804  13.357  20.946  0.00  0.00    +0.000 C 
ATOM     12  C   UNL     1      -0.640  12.199  19.951  0.00  0.00    +0.000 C 
ATOM     13  H   UNL     1       1.129   7.149  21.717  0.00  0.00    +0.000 HD
ENDROOT
BRANCH   1  18
ATOM     14  C   UNL     1       4.441   4.828  18.908  0.00  0.00    +0.000 A 
ATOM     15  C   UNL     1       3.961   3.740  19.651  0.00  0.00    +0.000 A 
ATOM     16  C   UNL     1       2.829   3.865  20.466  0.00  0.00    +0.000 A 
ATOM     17  C   UNL     1       2.157   5.085  20.549  0.00  0.00    +0.000 A 
ATOM     18  C   UNL     1       2.617   6.180  19.811  0.00  0.00    +0.000 A 
ATOM     19  C   UNL     1       3.751   6.044  18.989  0.00  0.00    +0.000 A 
BRANCH  14  24
ATOM     20  C   UNL     1       7.036   4.705  14.854  0.00  0.00    +0.000 C 
ATOM     21  C   UNL     1       6.790   4.630  16.303  0.00  0.00    +0.000 A 
ATOM     22  N   UNL     1       7.647   4.512  17.294  0.00  0.00    +0.000 NA
ATOM     23  N   UNL     1       6.901   4.545  18.456  0.00  0.00    +0.000 NA
ATOM     24  C   UNL     1       5.639   4.675  18.091  0.00  0.00    +0.000 A 
ATOM     25  O   UNL     1       5.492   4.731  16.728  0.00  0.00    +0.000 OA
ENDBRANCH  14  24
ENDBRANCH   1  18
TORSDOF 2
ENDMDL
MODEL 5
REMARK VINA RESULT:      -8.3      1.600      1.837
REMARK  Name = 
REMARK  3 active torsions:
REMARK  status: ('A' for Active; 'I' for Inactive)
REMARK    1  A    between atoms: C_1  and  C_2
REMARK    2  A    between atoms: C_5  and  C_6
REMARK    3  A    between atoms: C_10  and  C_11
REMARK                            x       y       z     vdW  Elec       q    Type
REMARK                         _______ _______ _______ _____ _____    ______ ____
ROOT
ATOM      1  C   UNL     1       2.084   6.533  20.231  0.00  0.00    +0.000 C 
ATOM      2  O   UNL     1       1.315   6.483  21.187  0.00  0.00    +0.000 OA
ATOM      3  N   UNL     1       2.265   7.588  19.363  0.00  0.00    +0.000 N 
ATOM      4  C   UNL     1       1.550   8.748  19.523  0.00  0.00    +0.000 A 
ATOM      5  N   UNL     1       0.855   9.143  20.560  0.00  0.00    +0.000 NA
ATOM      6  C   UNL     1       0.225  10.322  20.253  0.00  0.00    +0.000 A 
ATOM      7  C   UNL     1       0.440  10.801  18.979  0.00  0.00    +0.000 A 
ATOM      8  S   UNL     1       1.542   9.789  18.160  0.00  0.00    +0.000 S 
ATOM      9  C   UNL     1      -0.242  11.992  18.407  0.00  0.00    +0.000 C 
ATOM     10  O   UNL     1      -0.798  12.774  19.489  0.00  0.00    +0.000 OA
ATOM     11  C   UNL     1      -1.565  11.989  20.424  0.00  0.00    +0.000 C 
ATOM     12  C   UNL     1      -0.654  11.036  21.212  0.00  0.00    +0.000 C 
ATOM     13  H   UNL     1       2.778   7.482  18.503  0.00  0.00    +0.000 HD
ENDROOT
BRANCH   1  18
ATOM     14  C   UNL     1       4.680   4.279  18.667  0.00  0.00    +0.000 A 
ATOM     15  C   UNL     1       4.302   3.032  19.189  0.00  0.00    +0.000 A 
ATOM     16  C   UNL     1       3.218   2.917  20.067  0.00  0.00    +0.000 A 
ATOM     17  C   UNL     1       2.492   4.049  20.437  0.00  0.00    +0.000 A 
ATOM     18  C   UNL     1       2.849   5.298  19.922  0.00  0.00    +0.000 A 
ATOM     19  C   UNL     1       3.936   5.406  19.034  0.00  0.00    +0.000 A 
BRANCH  14  24
ATOM     20  C   UNL     1       6.991   4.747  14.469  0.00  0.00    +0.000 C 
ATOM     21  C   UNL     1       6.856   4.589  15.926  0.00  0.00    +0.000 A 
ATOM     22  N   UNL     1       7.781   4.605  16.861  0.00  0.00    +0.000 NA
ATOM     23  N   UNL     1       7.117   4.467  18.064  0.00  0.00    +0.000 NA
ATOM     24  C   UNL     1       5.832   4.372  17.777  0.00  0.00    +0.000 A 
ATOM     25  O   UNL     1       5.592   4.436  16.428  0.00  0.00    +0.000 OA
ENDBRANCH  14  24
ENDBRANCH   1  18
TORSDOF 2
ENDMDL
MODEL 6
REMARK VINA RESULT:      -7.9      3.796      9.280
REMARK  Name = 
REMARK  3 active torsions:
REMARK  status: ('A' for Active; 'I' for Inactive)
REMARK    1  A    between atoms: C_1  and  C_2
REMARK    2  A    between atoms: C_5  and  C_6
REMARK    3  A    between atoms: C_10  and  C_11
REMARK                            x       y       z     vdW  Elec       q    Type
REMARK                         _______ _______ _______ _____ _____    ______ ____
ROOT
ATOM      1  C   UNL     1       1.674   9.199  18.297  0.00  0.00    +0.000 C 
ATOM      2  O   UNL     1       2.307   9.731  17.389  0.00  0.00    +0.000 OA
ATOM      3  N   UNL     1       1.824   7.915  18.774  0.00  0.00    +0.000 N 
ATOM      4  C   UNL     1       2.768   7.080  18.233  0.00  0.00    +0.000 A 
ATOM      5  N   UNL     1       3.777   7.382  17.455  0.00  0.00    +0.000 NA
ATOM      6  C   UNL     1       4.408   6.226  17.073  0.00  0.00    +0.000 A 
ATOM      7  C   UNL     1       3.862   5.058  17.557  0.00  0.00    +0.000 A 
ATOM      8  S   UNL     1       2.563   5.417  18.601  0.00  0.00    +0.000 S 
ATOM      9  C   UNL     1       4.318   3.698  17.168  0.00  0.00    +0.000 C 
ATOM     10  O   UNL     1       5.635   3.798  16.578  0.00  0.00    +0.000 OA
ATOM     11  C   UNL     1       5.727   4.817  15.560  0.00  0.00    +0.000 C 
ATOM     12  C   UNL     1       5.591   6.217  16.176  0.00  0.00    +0.000 C 
ATOM     13  H   UNL     1       1.146   7.500  19.392  0.00  0.00    +0.000 HD
ENDROOT
BRANCH   1  18
ATOM     14  C   UNL     1      -1.655  10.958  18.614  0.00  0.00    +0.000 A 
ATOM     15  C   UNL     1      -1.526  11.547  19.881  0.00  0.00    +0.000 A 
ATOM     16  C   UNL     1      -0.370  11.361  20.649  0.00  0.00    +0.000 A 
ATOM     17  C   UNL     1       0.679  10.582  20.161  0.00  0.00    +0.000 A 
ATOM     18  C   UNL     1       0.572   9.992  18.898  0.00  0.00    +0.000 A 
ATOM     19  C   UNL     1      -0.590  10.189  18.128  0.00  0.00    +0.000 A 
BRANCH  14  24
ATOM     20  C   UNL     1      -6.304  11.991  17.912  0.00  0.00    +0.000 C 
ATOM     21  C   UNL     1      -4.933  11.610  17.535  0.00  0.00    +0.000 A 
ATOM     22  N   UNL     1      -4.407  11.444  16.341  0.00  0.00    +0.000 NA
ATOM     23  N   UNL     1      -3.074  11.144  16.544  0.00  0.00    +0.000 NA
ATOM     24  C   UNL     1      -2.882  11.145  17.850  0.00  0.00    +0.000 A 
ATOM     25  O   UNL     1      -4.029  11.430  18.547  0.00  0.00    +0.000 OA
ENDBRANCH  14  24
ENDBRANCH   1  18
TORSDOF 2
ENDMDL
MODEL 7
REMARK VINA RESULT:      -7.9      7.876     10.086
REMARK  Name = 
REMARK  3 active torsions:
REMARK  status: ('A' for Active; 'I' for Inactive)
REMARK    1  A    between atoms: C_1  and  C_2
REMARK    2  A    between atoms: C_5  and  C_6
REMARK    3  A    between atoms: C_10  and  C_11
REMARK                            x       y       z     vdW  Elec       q    Type
REMARK                         _______ _______ _______ _____ _____    ______ ____
ROOT
ATOM      1  C   UNL     1       8.511   9.773  18.232  0.00  0.00    +0.000 C 
ATOM      2  O   UNL     1       7.769  10.166  17.335  0.00  0.00    +0.000 OA
ATOM      3  N   UNL     1       8.635   8.483  18.702  0.00  0.00    +0.000 N 
ATOM      4  C   UNL     1       7.890   7.470  18.155  0.00  0.00    +0.000 A 
ATOM      5  N   UNL     1       7.212   7.468  17.035  0.00  0.00    +0.000 NA
ATOM      6  C   UNL     1       6.538   6.279  16.923  0.00  0.00    +0.000 A 
ATOM      7  C   UNL     1       6.704   5.397  17.968  0.00  0.00    +0.000 A 
ATOM      8  S   UNL     1       7.813   6.037  19.094  0.00  0.00    +0.000 S 
ATOM      9  C   UNL     1       5.971   4.110  18.101  0.00  0.00    +0.000 C 
ATOM     10  O   UNL     1       5.420   3.752  16.813  0.00  0.00    +0.000 OA
ATOM     11  C   UNL     1       4.702   4.832  16.180  0.00  0.00    +0.000 C 
ATOM     12  C   UNL     1       5.663   5.957  15.768  0.00  0.00    +0.000 C 
ATOM     13  H   UNL     1       9.128   8.279  19.556  0.00  0.00    +0.000 HD
ENDROOT
BRANCH   1  18
ATOM     14  C   UNL     1      10.633  12.849  18.780  0.00  0.00    +0.000 A 
ATOM     15  C   UNL     1      10.896  12.751  20.155  0.00  0.00    +0.000 A 
ATOM     16  C   UNL     1      10.372  11.700  20.917  0.00  0.00    +0.000 A 
ATOM     17  C   UNL     1       9.573  10.727  20.315  0.00  0.00    +0.000 A 
ATOM     18  C   UNL     1       9.305  10.805  18.945  0.00  0.00    +0.000 A 
ATOM     19  C   UNL     1       9.842  11.860  18.184  0.00  0.00    +0.000 A 
BRANCH  14  24
ATOM     20  C   UNL     1      11.032  17.432  17.359  0.00  0.00    +0.000 C 
ATOM     21  C   UNL     1      11.355  15.996  17.396  0.00  0.00    +0.000 A 
ATOM     22  N   UNL     1      12.332  15.340  16.809  0.00  0.00    +0.000 NA
ATOM     23  N   UNL     1      12.214  14.026  17.215  0.00  0.00    +0.000 NA
ATOM     24  C   UNL     1      11.169  13.971  18.019  0.00  0.00    +0.000 A 
ATOM     25  O   UNL     1      10.566  15.194  18.177  0.00  0.00    +0.000 OA
ENDBRANCH  14  24
ENDBRANCH   1  18
TORSDOF 2
ENDMDL
MODEL 8
REMARK VINA RESULT:      -7.8      4.087      8.839
REMARK  Name = 
REMARK  3 active torsions:
REMARK  status: ('A' for Active; 'I' for Inactive)
REMARK    1  A    between atoms: C_1  and  C_2
REMARK    2  A    between atoms: C_5  and  C_6
REMARK    3  A    between atoms: C_10  and  C_11
REMARK                            x       y       z     vdW  Elec       q    Type
REMARK                         _______ _______ _______ _____ _____    ______ ____
ROOT
ATOM      1  C   UNL     1       1.991   9.020  18.213  0.00  0.00    +0.000 C 
ATOM      2  O   UNL     1       2.776   9.665  17.524  0.00  0.00    +0.000 OA
ATOM      3  N   UNL     1       2.059   7.677  18.515  0.00  0.00    +0.000 N 
ATOM      4  C   UNL     1       3.091   6.910  18.036  0.00  0.00    +0.000 A 
ATOM      5  N   UNL     1       4.223   7.301  17.506  0.00  0.00    +0.000 NA
ATOM      6  C   UNL     1       4.920   6.200  17.078  0.00  0.00    +0.000 A 
ATOM      7  C   UNL     1       4.301   4.986  17.277  0.00  0.00    +0.000 A 
ATOM      8  S   UNL     1       2.832   5.215  18.111  0.00  0.00    +0.000 S 
ATOM      9  C   UNL     1       4.829   3.688  16.780  0.00  0.00    +0.000 C 
ATOM     10  O   UNL     1       6.230   3.845  16.460  0.00  0.00    +0.000 OA
ATOM     11  C   UNL     1       6.500   4.999  15.637  0.00  0.00    +0.000 C 
ATOM     12  C   UNL     1       6.246   6.297  16.419  0.00  0.00    +0.000 C 
ATOM     13  H   UNL     1       1.283   7.190  18.932  0.00  0.00    +0.000 HD
ENDROOT
BRANCH   1  18
ATOM     14  C   UNL     1      -1.413  10.656  18.210  0.00  0.00    +0.000 A 
ATOM     15  C   UNL     1      -1.467  11.165  19.516  0.00  0.00    +0.000 A 
ATOM     16  C   UNL     1      -0.411  10.964  20.413  0.00  0.00    +0.000 A 
ATOM     17  C   UNL     1       0.720  10.249  20.016  0.00  0.00    +0.000 A 
ATOM     18  C   UNL     1       0.794   9.739  18.717  0.00  0.00    +0.000 A 
ATOM     19  C   UNL     1      -0.268   9.952  17.818  0.00  0.00    +0.000 A 
BRANCH  14  24
ATOM     20  C   UNL     1      -3.959  10.183  14.151  0.00  0.00    +0.000 C 
ATOM     21  C   UNL     1      -3.673  10.641  15.520  0.00  0.00    +0.000 A 
ATOM     22  N   UNL     1      -4.445  11.285  16.368  0.00  0.00    +0.000 NA
ATOM     23  N   UNL     1      -3.712  11.423  17.530  0.00  0.00    +0.000 NA
ATOM     24  C   UNL     1      -2.541  10.856  17.308  0.00  0.00    +0.000 A 
ATOM     25  O   UNL     1      -2.443  10.340  16.040  0.00  0.00    +0.000 OA
ENDBRANCH  14  24
ENDBRANCH   1  18
TORSDOF 2
ENDMDL
MODEL 9
REMARK VINA RESULT:      -7.8      2.011      2.468
REMARK  Name = 
REMARK  3 active torsions:
REMARK  status: ('A' for Active; 'I' for Inactive)
REMARK    1  A    between atoms: C_1  and  C_2
REMARK    2  A    between atoms: C_5  and  C_6
REMARK    3  A    between atoms: C_10  and  C_11
REMARK                            x       y       z     vdW  Elec       q    Type
REMARK                         _______ _______ _______ _____ _____    ______ ____
ROOT
ATOM      1  C   UNL     1       1.474   7.259  20.522  0.00  0.00    +0.000 C 
ATOM      2  O   UNL     1       0.731   7.358  21.495  0.00  0.00    +0.000 OA
ATOM      3  N   UNL     1       1.753   8.231  19.587  0.00  0.00    +0.000 N 
ATOM      4  C   UNL     1       1.184   9.475  19.689  0.00  0.00    +0.000 A 
ATOM      5  N   UNL     1       0.570  10.012  20.713  0.00  0.00    +0.000 NA
ATOM      6  C   UNL     1       0.074  11.236  20.346  0.00  0.00    +0.000 A 
ATOM      7  C   UNL     1       0.308  11.609  19.041  0.00  0.00    +0.000 A 
ATOM      8  S   UNL     1       1.260  10.427  18.264  0.00  0.00    +0.000 S 
ATOM      9  C   UNL     1      -0.245  12.837  18.410  0.00  0.00    +0.000 C 
ATOM     10  O   UNL     1      -0.675  13.743  19.451  0.00  0.00    +0.000 OA
ATOM     11  C   UNL     1      -1.503  13.111  20.449  0.00  0.00    +0.000 C 
ATOM     12  C   UNL     1      -0.689  12.105  21.276  0.00  0.00    +0.000 C 
ATOM     13  H   UNL     1       2.226   8.014  18.725  0.00  0.00    +0.000 HD
ENDROOT
BRANCH   1  18
ATOM     14  C   UNL     1       3.943   4.663  19.324  0.00  0.00    +0.000 A 
ATOM     15  C   UNL     1       3.274   3.478  19.669  0.00  0.00    +0.000 A 
ATOM     16  C   UNL     1       2.030   3.512  20.311  0.00  0.00    +0.000 A 
ATOM     17  C   UNL     1       1.433   4.735  20.618  0.00  0.00    +0.000 A 
ATOM     18  C   UNL     1       2.081   5.926  20.276  0.00  0.00    +0.000 A 
ATOM     19  C   UNL     1       3.327   5.884  19.624  0.00  0.00    +0.000 A 
BRANCH  14  24
ATOM     20  C   UNL     1       7.065   4.586  15.660  0.00  0.00    +0.000 C 
ATOM     21  C   UNL     1       6.633   4.571  17.067  0.00  0.00    +0.000 A 
ATOM     22  N   UNL     1       7.354   4.610  18.167  0.00  0.00    +0.000 NA
ATOM     23  N   UNL     1       6.457   4.629  19.217  0.00  0.00    +0.000 NA
ATOM     24  C   UNL     1       5.251   4.595  18.683  0.00  0.00    +0.000 A 
ATOM     25  O   UNL     1       5.287   4.552  17.312  0.00  0.00    +0.000 OA
ENDBRANCH  14  24
ENDBRANCH   1  18
TORSDOF 2
ENDMDL
