MODEL 1
REMARK VINA RESULT:      -8.7      0.000      0.000
REMARK  Name = 
REMARK  7 active torsions:
REMARK  status: ('A' for Active; 'I' for Inactive)
REMARK    1  A    between atoms: C_1  and  O_2
REMARK    2  A    between atoms: O_2  and  C_3
REMARK    3  A    between atoms: C_3  and  C_5
REMARK    4  A    between atoms: C_5  and  C_6
REMARK    5  A    between atoms: C_9  and  O_10
REMARK    6  A    between atoms: O_10  and  C_11
REMARK    7  A    between atoms: C_13  and  C_14
REMARK                            x       y       z     vdW  Elec       q    Type
REMARK                         _______ _______ _______ _____ _____    ______ ____
ROOT
ATOM      1  C   UNL     1       4.029   6.056  17.994  0.00  0.00    +0.000 A 
ATOM      2  N   UNL     1       5.324   6.340  18.228  0.00  0.00    +0.000 NA
ATOM      3  C   UNL     1       6.099   5.298  18.634  0.00  0.00    +0.000 A 
ATOM      4  N   UNL     1       5.631   4.038  18.823  0.00  0.00    +0.000 NA
ATOM      5  C   UNL     1       4.347   3.789  18.576  0.00  0.00    +0.000 A 
ATOM      6  C   UNL     1       3.873   2.494  18.741  0.00  0.00    +0.000 A 
ATOM      7  C   UNL     1       2.542   2.158  18.480  0.00  0.00    +0.000 A 
ATOM      8  C   UNL     1       1.654   3.141  18.065  0.00  0.00    +0.000 A 
ATOM      9  C   UNL     1       2.108   4.447  17.906  0.00  0.00    +0.000 A 
ATOM     10  C   UNL     1       3.465   4.780  18.151  0.00  0.00    +0.000 A 
ENDROOT
BRANCH   3  11
ATOM     11  C   UNL     1       7.598   5.498  18.899  0.00  0.00    +0.000 C 
ATOM     12  F   UNL     1       7.948   5.484  20.219  0.00  0.00    +0.000 F 
ATOM     13  F   UNL     1       8.376   4.541  18.304  0.00  0.00    +0.000 F 
ATOM     14  F   UNL     1       8.064   6.692  18.414  0.00  0.00    +0.000 F 
ENDBRANCH   3  11
BRANCH   1  15
ATOM     15  O   UNL     1       3.097   7.030  17.638  0.00  0.00    +0.000 OA
BRANCH  15  19
ATOM     16  C   UNL     1       0.560   9.558  19.798  0.00  0.00    +0.000 A 
ATOM     17  C   UNL     1       1.199   8.511  20.484  0.00  0.00    +0.000 A 
ATOM     18  C   UNL     1       2.073   7.631  19.824  0.00  0.00    +0.000 A 
ATOM     19  C   UNL     1       2.324   7.789  18.468  0.00  0.00    +0.000 A 
ATOM     20  C   UNL     1       1.682   8.837  17.785  0.00  0.00    +0.000 A 
ATOM     21  C   UNL     1       0.813   9.713  18.435  0.00  0.00    +0.000 A 
BRANCH  16  22
ATOM     22  C   UNL     1      -0.323  10.544  20.521  0.00  0.00    +0.000 C 
BRANCH  22  23
ATOM     23  C   UNL     1       0.446  11.433  21.475  0.00  0.00    +0.000 C 
ATOM     24  O   UNL     1       1.488  12.022  21.211  0.00  0.00    +0.000 OA
BRANCH  23  26
ATOM     25  C   UNL     1      -0.747  10.295  23.131  0.00  0.00    +0.000 C 
ATOM     26  O   UNL     1      -0.215  11.534  22.665  0.00  0.00    +0.000 OA
ENDBRANCH  23  26
ENDBRANCH  22  23
ENDBRANCH  16  22
ENDBRANCH  15  19
ENDBRANCH   1  15
TORSDOF 6
ENDMDL
MODEL 2
REMARK VINA RESULT:      -8.4      2.447      3.063
REMARK  Name = 
REMARK  7 active torsions:
REMARK  status: ('A' for Active; 'I' for Inactive)
REMARK    1  A    between atoms: C_1  and  O_2
REMARK    2  A    between atoms: O_2  and  C_3
REMARK    3  A    between atoms: C_3  and  C_5
REMARK    4  A    between atoms: C_5  and  C_6
REMARK    5  A    between atoms: C_9  and  O_10
REMARK    6  A    between atoms: O_10  and  C_11
REMARK    7  A    between atoms: C_13  and  C_14
REMARK                            x       y       z     vdW  Elec       q    Type
REMARK                         _______ _______ _______ _____ _____    ______ ____
ROOT
ATOM      1  C   UNL     1       3.299   5.640  18.567  0.00  0.00    +0.000 A 
ATOM      2  N   UNL     1       4.251   5.773  17.623  0.00  0.00    +0.000 NA
ATOM      3  C   UNL     1       4.456   4.690  16.826  0.00  0.00    +0.000 A 
ATOM      4  N   UNL     1       3.778   3.521  16.954  0.00  0.00    +0.000 NA
ATOM      5  C   UNL     1       2.839   3.424  17.892  0.00  0.00    +0.000 A 
ATOM      6  C   UNL     1       2.125   2.238  18.005  0.00  0.00    +0.000 A 
ATOM      7  C   UNL     1       1.113   2.075  18.954  0.00  0.00    +0.000 A 
ATOM      8  C   UNL     1       0.817   3.112  19.828  0.00  0.00    +0.000 A 
ATOM      9  C   UNL     1       1.531   4.304  19.739  0.00  0.00    +0.000 A 
ATOM     10  C   UNL     1       2.543   4.473  18.760  0.00  0.00    +0.000 A 
ENDROOT
BRANCH   3  11
ATOM     11  C   UNL     1       5.492   4.739  15.696  0.00  0.00    +0.000 C 
ATOM     12  F   UNL     1       5.932   5.993  15.382  0.00  0.00    +0.000 F 
ATOM     13  F   UNL     1       6.621   4.016  15.977  0.00  0.00    +0.000 F 
ATOM     14  F   UNL     1       5.017   4.218  14.522  0.00  0.00    +0.000 F 
ENDBRANCH   3  11
BRANCH   1  15
ATOM     15  O   UNL     1       3.021   6.637  19.501  0.00  0.00    +0.000 OA
BRANCH  15  19
ATOM     16  C   UNL     1       0.474   9.954  19.492  0.00  0.00    +0.000 A 
ATOM     17  C   UNL     1       1.146   9.628  18.303  0.00  0.00    +0.000 A 
ATOM     18  C   UNL     1       2.008   8.521  18.230  0.00  0.00    +0.000 A 
ATOM     19  C   UNL     1       2.206   7.721  19.347  0.00  0.00    +0.000 A 
ATOM     20  C   UNL     1       1.532   8.051  20.536  0.00  0.00    +0.000 A 
ATOM     21  C   UNL     1       0.676   9.149  20.614  0.00  0.00    +0.000 A 
BRANCH  16  22
ATOM     22  C   UNL     1      -0.505  11.101  19.550  0.00  0.00    +0.000 C 
BRANCH  22  23
ATOM     23  C   UNL     1      -1.525  11.061  18.433  0.00  0.00    +0.000 C 
ATOM     24  O   UNL     1      -2.301  10.137  18.215  0.00  0.00    +0.000 OA
BRANCH  23  26
ATOM     25  C   UNL     1      -0.604  13.202  18.260  0.00  0.00    +0.000 C 
ATOM     26  O   UNL     1      -1.501  12.228  17.726  0.00  0.00    +0.000 OA
ENDBRANCH  23  26
ENDBRANCH  22  23
ENDBRANCH  16  22
ENDBRANCH  15  19
ENDBRANCH   1  15
TORSDOF 6
ENDMDL
MODEL 3
REMARK VINA RESULT:      -8.4      0.775      1.025
REMARK  Name = 
REMARK  7 active torsions:
REMARK  status: ('A' for Active; 'I' for Inactive)
REMARK    1  A    between atoms: C_1  and  O_2
REMARK    2  A    between atoms: O_2  and  C_3
REMARK    3  A    between atoms: C_3  and  C_5
REMARK    4  A    between atoms: C_5  and  C_6
REMARK    5  A    between atoms: C_9  and  O_10
REMARK    6  A    between atoms: O_10  and  C_11
REMARK    7  A    between atoms: C_13  and  C_14
REMARK                            x       y       z     vdW  Elec       q    Type
REMARK                         _______ _______ _______ _____ _____    ______ ____
ROOT
ATOM      1  C   UNL     1       3.889   5.960  18.003  0.00  0.00    +0.000 A 
ATOM      2  N   UNL     1       5.195   6.258  18.143  0.00  0.00    +0.000 NA
ATOM      3  C   UNL     1       6.007   5.227  18.502  0.00  0.00    +0.000 A 
ATOM      4  N   UNL     1       5.565   3.964  18.734  0.00  0.00    +0.000 NA
ATOM      5  C   UNL     1       4.269   3.701  18.580  0.00  0.00    +0.000 A 
ATOM      6  C   UNL     1       3.820   2.404  18.790  0.00  0.00    +0.000 A 
ATOM      7  C   UNL     1       2.477   2.053  18.627  0.00  0.00    +0.000 A 
ATOM      8  C   UNL     1       1.553   3.024  18.267  0.00  0.00    +0.000 A 
ATOM      9  C   UNL     1       1.982   4.333  18.065  0.00  0.00    +0.000 A 
ATOM     10  C   UNL     1       3.349   4.680  18.210  0.00  0.00    +0.000 A 
ENDROOT
BRANCH   3  11
ATOM     11  C   UNL     1       7.518   5.443  18.658  0.00  0.00    +0.000 C 
ATOM     12  F   UNL     1       7.943   5.569  19.950  0.00  0.00    +0.000 F 
ATOM     13  F   UNL     1       8.259   4.420  18.128  0.00  0.00    +0.000 F 
ATOM     14  F   UNL     1       7.958   6.572  18.021  0.00  0.00    +0.000 F 
ENDBRANCH   3  11
BRANCH   1  15
ATOM     15  O   UNL     1       2.925   6.922  17.705  0.00  0.00    +0.000 OA
BRANCH  15  19
ATOM     16  C   UNL     1       0.743   9.653  20.002  0.00  0.00    +0.000 A 
ATOM     17  C   UNL     1       1.274   8.520  20.641  0.00  0.00    +0.000 A 
ATOM     18  C   UNL     1       2.027   7.568  19.934  0.00  0.00    +0.000 A 
ATOM     19  C   UNL     1       2.262   7.738  18.577  0.00  0.00    +0.000 A 
ATOM     20  C   UNL     1       1.728   8.872  17.941  0.00  0.00    +0.000 A 
ATOM     21  C   UNL     1       0.979   9.820  18.637  0.00  0.00    +0.000 A 
BRANCH  16  22
ATOM     22  C   UNL     1      -0.006  10.710  20.775  0.00  0.00    +0.000 C 
BRANCH  22  23
ATOM     23  C   UNL     1       0.641  12.075  20.682  0.00  0.00    +0.000 C 
ATOM     24  O   UNL     1       1.740  12.372  21.136  0.00  0.00    +0.000 OA
BRANCH  23  26
ATOM     25  C   UNL     1      -1.539  12.598  20.021  0.00  0.00    +0.000 C 
ATOM     26  O   UNL     1      -0.152  12.927  19.968  0.00  0.00    +0.000 OA
ENDBRANCH  23  26
ENDBRANCH  22  23
ENDBRANCH  16  22
ENDBRANCH  15  19
ENDBRANCH   1  15
TORSDOF 6
ENDMDL
MODEL 4
REMARK VINA RESULT:      -8.4      0.811      1.458
REMARK  Name = 
REMARK  7 active torsions:
REMARK  status: ('A' for Active; 'I' for Inactive)
REMARK    1  A    between atoms: C_1  and  O_2
REMARK    2  A    between atoms: O_2  and  C_3
REMARK    3  A    between atoms: C_3  and  C_5
REMARK    4  A    between atoms: C_5  and  C_6
REMARK    5  A    between atoms: C_9  and  O_10
REMARK    6  A    between atoms: O_10  and  C_11
REMARK    7  A    between atoms: C_13  and  C_14
REMARK                            x       y       z     vdW  Elec       q    Type
REMARK                         _______ _______ _______ _____ _____    ______ ____
ROOT
ATOM      1  C   UNL     1       3.871   6.002  18.032  0.00  0.00    +0.000 A 
ATOM      2  N   UNL     1       5.175   6.299  18.193  0.00  0.00    +0.000 NA
ATOM      3  C   UNL     1       5.984   5.261  18.537  0.00  0.00    +0.000 A 
ATOM      4  N   UNL     1       5.543   3.993  18.735  0.00  0.00    +0.000 NA
ATOM      5  C   UNL     1       4.249   3.732  18.561  0.00  0.00    +0.000 A 
ATOM      6  C   UNL     1       3.800   2.429  18.735  0.00  0.00    +0.000 A 
ATOM      7  C   UNL     1       2.460   2.080  18.550  0.00  0.00    +0.000 A 
ATOM      8  C   UNL     1       1.538   3.058  18.202  0.00  0.00    +0.000 A 
ATOM      9  C   UNL     1       1.966   4.372  18.036  0.00  0.00    +0.000 A 
ATOM     10  C   UNL     1       3.332   4.717  18.204  0.00  0.00    +0.000 A 
ENDROOT
BRANCH   3  11
ATOM     11  C   UNL     1       7.493   5.476  18.715  0.00  0.00    +0.000 C 
ATOM     12  F   UNL     1       8.275   4.494  18.176  0.00  0.00    +0.000 F 
ATOM     13  F   UNL     1       7.935   6.644  18.152  0.00  0.00    +0.000 F 
ATOM     14  F   UNL     1       7.864   5.551  20.032  0.00  0.00    +0.000 F 
ENDBRANCH   3  11
BRANCH   1  15
ATOM     15  O   UNL     1       2.909   6.970  17.746  0.00  0.00    +0.000 OA
BRANCH  15  19
ATOM     16  C   UNL     1       0.738   9.681  20.076  0.00  0.00    +0.000 A 
ATOM     17  C   UNL     1       1.262   8.537  20.701  0.00  0.00    +0.000 A 
ATOM     18  C   UNL     1       2.011   7.590  19.983  0.00  0.00    +0.000 A 
ATOM     19  C   UNL     1       2.249   7.777  18.628  0.00  0.00    +0.000 A 
ATOM     20  C   UNL     1       1.722   8.923  18.006  0.00  0.00    +0.000 A 
ATOM     21  C   UNL     1       0.978   9.866  18.714  0.00  0.00    +0.000 A 
BRANCH  16  22
ATOM     22  C   UNL     1      -0.006  10.732  20.863  0.00  0.00    +0.000 C 
BRANCH  22  23
ATOM     23  C   UNL     1       0.436  12.140  20.528  0.00  0.00    +0.000 C 
ATOM     24  O   UNL     1      -0.206  12.945  19.861  0.00  0.00    +0.000 OA
BRANCH  23  26
ATOM     25  C   UNL     1       2.422  13.366  20.406  0.00  0.00    +0.000 C 
ATOM     26  O   UNL     1       1.634  12.415  21.121  0.00  0.00    +0.000 OA
ENDBRANCH  23  26
ENDBRANCH  22  23
ENDBRANCH  16  22
ENDBRANCH  15  19
ENDBRANCH   1  15
TORSDOF 6
ENDMDL
MODEL 5
REMARK VINA RESULT:      -8.3      2.388      2.991
REMARK  Name = 
REMARK  7 active torsions:
REMARK  status: ('A' for Active; 'I' for Inactive)
REMARK    1  A    between atoms: C_1  and  O_2
REMARK    2  A    between atoms: O_2  and  C_3
REMARK    3  A    between atoms: C_3  and  C_5
REMARK    4  A    between atoms: C_5  and  C_6
REMARK    5  A    between atoms: C_9  and  O_10
REMARK    6  A    between atoms: O_10  and  C_11
REMARK    7  A    between atoms: C_13  and  C_14
REMARK                            x       y       z     vdW  Elec       q    Type
REMARK                         _______ _______ _______ _____ _____    ______ ____
ROOT
ATOM      1  C   UNL     1       3.333   5.595  18.549  0.00  0.00    +0.000 A 
ATOM      2  N   UNL     1       4.341   5.699  17.661  0.00  0.00    +0.000 NA
ATOM      3  C   UNL     1       4.610   4.583  16.932  0.00  0.00    +0.000 A 
ATOM      4  N   UNL     1       3.942   3.410  17.072  0.00  0.00    +0.000 NA
ATOM      5  C   UNL     1       2.946   3.342  17.953  0.00  0.00    +0.000 A 
ATOM      6  C   UNL     1       2.242   2.152  18.078  0.00  0.00    +0.000 A 
ATOM      7  C   UNL     1       1.173   2.017  18.968  0.00  0.00    +0.000 A 
ATOM      8  C   UNL     1       0.809   3.089  19.770  0.00  0.00    +0.000 A 
ATOM      9  C   UNL     1       1.511   4.287  19.669  0.00  0.00    +0.000 A 
ATOM     10  C   UNL     1       2.581   4.426  18.749  0.00  0.00    +0.000 A 
ENDROOT
BRANCH   3  11
ATOM     11  C   UNL     1       5.716   4.595  15.868  0.00  0.00    +0.000 C 
ATOM     12  F   UNL     1       6.045   3.365  15.376  0.00  0.00    +0.000 F 
ATOM     13  F   UNL     1       5.394   5.352  14.774  0.00  0.00    +0.000 F 
ATOM     14  F   UNL     1       6.891   5.123  16.335  0.00  0.00    +0.000 F 
ENDBRANCH   3  11
BRANCH   1  15
ATOM     15  O   UNL     1       2.982   6.630  19.414  0.00  0.00    +0.000 OA
BRANCH  15  19
ATOM     16  C   UNL     1       0.832  10.186  18.938  0.00  0.00    +0.000 A 
ATOM     17  C   UNL     1       1.604   9.725  17.858  0.00  0.00    +0.000 A 
ATOM     18  C   UNL     1       2.342   8.533  17.944  0.00  0.00    +0.000 A 
ATOM     19  C   UNL     1       2.315   7.782  19.111  0.00  0.00    +0.000 A 
ATOM     20  C   UNL     1       1.542   8.247  20.189  0.00  0.00    +0.000 A 
ATOM     21  C   UNL     1       0.808   9.430  20.110  0.00  0.00    +0.000 A 
BRANCH  16  22
ATOM     22  C   UNL     1      -0.015  11.429  18.821  0.00  0.00    +0.000 C 
BRANCH  22  23
ATOM     23  C   UNL     1      -1.490  11.124  18.670  0.00  0.00    +0.000 C 
ATOM     24  O   UNL     1      -2.392  11.654  19.309  0.00  0.00    +0.000 OA
BRANCH  23  26
ATOM     25  C   UNL     1      -3.034   9.754  17.576  0.00  0.00    +0.000 C 
ATOM     26  O   UNL     1      -1.685  10.207  17.678  0.00  0.00    +0.000 OA
ENDBRANCH  23  26
ENDBRANCH  22  23
ENDBRANCH  16  22
ENDBRANCH  15  19
ENDBRANCH   1  15
TORSDOF 6
ENDMDL
MODEL 6
REMARK VINA RESULT:      -8.3      1.942      2.484
REMARK  Name = 
REMARK  7 active torsions:
REMARK  status: ('A' for Active; 'I' for Inactive)
REMARK    1  A    between atoms: C_1  and  O_2
REMARK    2  A    between atoms: O_2  and  C_3
REMARK    3  A    between atoms: C_3  and  C_5
REMARK    4  A    between atoms: C_5  and  C_6
REMARK    5  A    between atoms: C_9  and  O_10
REMARK    6  A    between atoms: O_10  and  C_11
REMARK    7  A    between atoms: C_13  and  C_14
REMARK                            x       y       z     vdW  Elec       q    Type
REMARK                         _______ _______ _______ _____ _____    ______ ____
ROOT
ATOM      1  C   UNL     1       3.234   5.722  18.649  0.00  0.00    +0.000 A 
ATOM      2  N   UNL     1       4.153   5.938  17.688  0.00  0.00    +0.000 NA
ATOM      3  C   UNL     1       4.363   4.910  16.822  0.00  0.00    +0.000 A 
ATOM      4  N   UNL     1       3.722   3.716  16.899  0.00  0.00    +0.000 NA
ATOM      5  C   UNL     1       2.815   3.537  17.856  0.00  0.00    +0.000 A 
ATOM      6  C   UNL     1       2.138   2.326  17.919  0.00  0.00    +0.000 A 
ATOM      7  C   UNL     1       1.159   2.078  18.884  0.00  0.00    +0.000 A 
ATOM      8  C   UNL     1       0.861   3.053  19.826  0.00  0.00    +0.000 A 
ATOM      9  C   UNL     1       1.539   4.268  19.789  0.00  0.00    +0.000 A 
ATOM     10  C   UNL     1       2.516   4.524  18.793  0.00  0.00    +0.000 A 
ENDROOT
BRANCH   3  11
ATOM     11  C   UNL     1       5.364   5.056  15.668  0.00  0.00    +0.000 C 
ATOM     12  F   UNL     1       5.259   4.097  14.701  0.00  0.00    +0.000 F 
ATOM     13  F   UNL     1       5.248   6.252  15.011  0.00  0.00    +0.000 F 
ATOM     14  F   UNL     1       6.666   5.004  16.090  0.00  0.00    +0.000 F 
ENDBRANCH   3  11
BRANCH   1  15
ATOM     15  O   UNL     1       2.957   6.654  19.648  0.00  0.00    +0.000 OA
BRANCH  15  19
ATOM     16  C   UNL     1       0.340   9.908  19.889  0.00  0.00    +0.000 A 
ATOM     17  C   UNL     1       1.034   9.699  18.685  0.00  0.00    +0.000 A 
ATOM     18  C   UNL     1       1.919   8.619  18.529  0.00  0.00    +0.000 A 
ATOM     19  C   UNL     1       2.121   7.731  19.577  0.00  0.00    +0.000 A 
ATOM     20  C   UNL     1       1.426   7.945  20.780  0.00  0.00    +0.000 A 
ATOM     21  C   UNL     1       0.546   9.014  20.940  0.00  0.00    +0.000 A 
BRANCH  16  22
ATOM     22  C   UNL     1      -0.663  11.026  20.031  0.00  0.00    +0.000 C 
BRANCH  22  23
ATOM     23  C   UNL     1      -0.361  11.943  21.197  0.00  0.00    +0.000 C 
ATOM     24  O   UNL     1       0.738  12.419  21.457  0.00  0.00    +0.000 OA
BRANCH  23  26
ATOM     25  C   UNL     1      -1.643  11.436  23.084  0.00  0.00    +0.000 C 
ATOM     26  O   UNL     1      -1.502  12.213  21.895  0.00  0.00    +0.000 OA
ENDBRANCH  23  26
ENDBRANCH  22  23
ENDBRANCH  16  22
ENDBRANCH  15  19
ENDBRANCH   1  15
TORSDOF 6
ENDMDL
MODEL 7
REMARK VINA RESULT:      -8.3      1.171      1.741
REMARK  Name = 
REMARK  7 active torsions:
REMARK  status: ('A' for Active; 'I' for Inactive)
REMARK    1  A    between atoms: C_1  and  O_2
REMARK    2  A    between atoms: O_2  and  C_3
REMARK    3  A    between atoms: C_3  and  C_5
REMARK    4  A    between atoms: C_5  and  C_6
REMARK    5  A    between atoms: C_9  and  O_10
REMARK    6  A    between atoms: O_10  and  C_11
REMARK    7  A    between atoms: C_13  and  C_14
REMARK                            x       y       z     vdW  Elec       q    Type
REMARK                         _______ _______ _______ _____ _____    ______ ____
ROOT
ATOM      1  C   UNL     1       3.845   5.904  18.048  0.00  0.00    +0.000 A 
ATOM      2  N   UNL     1       5.146   6.226  18.185  0.00  0.00    +0.000 NA
ATOM      3  C   UNL     1       5.976   5.211  18.546  0.00  0.00    +0.000 A 
ATOM      4  N   UNL     1       5.558   3.942  18.782  0.00  0.00    +0.000 NA
ATOM      5  C   UNL     1       4.267   3.655  18.631  0.00  0.00    +0.000 A 
ATOM      6  C   UNL     1       3.842   2.350  18.845  0.00  0.00    +0.000 A 
ATOM      7  C   UNL     1       2.505   1.974  18.684  0.00  0.00    +0.000 A 
ATOM      8  C   UNL     1       1.563   2.928  18.322  0.00  0.00    +0.000 A 
ATOM      9  C   UNL     1       1.968   4.244  18.117  0.00  0.00    +0.000 A 
ATOM     10  C   UNL     1       3.329   4.616  18.259  0.00  0.00    +0.000 A 
ENDROOT
BRANCH   3  11
ATOM     11  C   UNL     1       7.484   5.455  18.700  0.00  0.00    +0.000 C 
ATOM     12  F   UNL     1       7.937   6.601  18.114  0.00  0.00    +0.000 F 
ATOM     13  F   UNL     1       7.879   5.533  20.009  0.00  0.00    +0.000 F 
ATOM     14  F   UNL     1       8.239   4.448  18.158  0.00  0.00    +0.000 F 
ENDBRANCH   3  11
BRANCH   1  15
ATOM     15  O   UNL     1       2.864   6.848  17.749  0.00  0.00    +0.000 OA
BRANCH  15  19
ATOM     16  C   UNL     1       0.866   9.754  19.998  0.00  0.00    +0.000 A 
ATOM     17  C   UNL     1       1.284   8.580  20.648  0.00  0.00    +0.000 A 
ATOM     18  C   UNL     1       1.971   7.567  19.957  0.00  0.00    +0.000 A 
ATOM     19  C   UNL     1       2.252   7.717  18.606  0.00  0.00    +0.000 A 
ATOM     20  C   UNL     1       1.831   8.892  17.960  0.00  0.00    +0.000 A 
ATOM     21  C   UNL     1       1.149   9.900  18.640  0.00  0.00    +0.000 A 
BRANCH  16  22
ATOM     22  C   UNL     1       0.192  10.870  20.756  0.00  0.00    +0.000 C 
BRANCH  22  23
ATOM     23  C   UNL     1      -0.744  11.687  19.891  0.00  0.00    +0.000 C 
ATOM     24  O   UNL     1      -1.835  11.312  19.477  0.00  0.00    +0.000 OA
BRANCH  23  26
ATOM     25  C   UNL     1      -0.387  13.396  18.338  0.00  0.00    +0.000 C 
ATOM     26  O   UNL     1      -0.226  12.932  19.677  0.00  0.00    +0.000 OA
ENDBRANCH  23  26
ENDBRANCH  22  23
ENDBRANCH  16  22
ENDBRANCH  15  19
ENDBRANCH   1  15
TORSDOF 6
ENDMDL
MODEL 8
REMARK VINA RESULT:      -8.3      2.444      2.872
REMARK  Name = 
REMARK  7 active torsions:
REMARK  status: ('A' for Active; 'I' for Inactive)
REMARK    1  A    between atoms: C_1  and  O_2
REMARK    2  A    between atoms: O_2  and  C_3
REMARK    3  A    between atoms: C_3  and  C_5
REMARK    4  A    between atoms: C_5  and  C_6
REMARK    5  A    between atoms: C_9  and  O_10
REMARK    6  A    between atoms: O_10  and  C_11
REMARK    7  A    between atoms: C_13  and  C_14
REMARK                            x       y       z     vdW  Elec       q    Type
REMARK                         _______ _______ _______ _____ _____    ______ ____
ROOT
ATOM      1  C   UNL     1       3.246   5.751  18.673  0.00  0.00    +0.000 A 
ATOM      2  N   UNL     1       4.190   5.963  17.735  0.00  0.00    +0.000 NA
ATOM      3  C   UNL     1       4.414   4.935  16.872  0.00  0.00    +0.000 A 
ATOM      4  N   UNL     1       3.762   3.746  16.930  0.00  0.00    +0.000 NA
ATOM      5  C   UNL     1       2.830   3.571  17.864  0.00  0.00    +0.000 A 
ATOM      6  C   UNL     1       2.142   2.365  17.907  0.00  0.00    +0.000 A 
ATOM      7  C   UNL     1       1.138   2.122  18.848  0.00  0.00    +0.000 A 
ATOM      8  C   UNL     1       0.826   3.097  19.785  0.00  0.00    +0.000 A 
ATOM      9  C   UNL     1       1.513   4.307  19.767  0.00  0.00    +0.000 A 
ATOM     10  C   UNL     1       2.516   4.558  18.796  0.00  0.00    +0.000 A 
ENDROOT
BRANCH   3  11
ATOM     11  C   UNL     1       5.443   5.076  15.743  0.00  0.00    +0.000 C 
ATOM     12  F   UNL     1       5.198   6.101  14.875  0.00  0.00    +0.000 F 
ATOM     13  F   UNL     1       6.715   5.285  16.205  0.00  0.00    +0.000 F 
ATOM     14  F   UNL     1       5.526   3.953  14.962  0.00  0.00    +0.000 F 
ENDBRANCH   3  11
BRANCH   1  15
ATOM     15  O   UNL     1       2.952   6.682  19.668  0.00  0.00    +0.000 OA
BRANCH  15  19
ATOM     16  C   UNL     1       0.461   9.963  18.943  0.00  0.00    +0.000 A 
ATOM     17  C   UNL     1       0.487   9.421  20.238  0.00  0.00    +0.000 A 
ATOM     18  C   UNL     1       1.309   8.326  20.556  0.00  0.00    +0.000 A 
ATOM     19  C   UNL     1       2.120   7.761  19.582  0.00  0.00    +0.000 A 
ATOM     20  C   UNL     1       2.090   8.307  18.286  0.00  0.00    +0.000 A 
ATOM     21  C   UNL     1       1.277   9.392  17.965  0.00  0.00    +0.000 A 
BRANCH  16  22
ATOM     22  C   UNL     1      -0.368  11.182  18.620  0.00  0.00    +0.000 C 
BRANCH  22  23
ATOM     23  C   UNL     1      -1.815  10.848  18.328  0.00  0.00    +0.000 C 
ATOM     24  O   UNL     1      -2.206   9.854  17.725  0.00  0.00    +0.000 OA
BRANCH  23  26
ATOM     25  C   UNL     1      -2.147  12.327  20.107  0.00  0.00    +0.000 C 
ATOM     26  O   UNL     1      -2.638  11.785  18.882  0.00  0.00    +0.000 OA
ENDBRANCH  23  26
ENDBRANCH  22  23
ENDBRANCH  16  22
ENDBRANCH  15  19
ENDBRANCH   1  15
TORSDOF 6
ENDMDL
MODEL 9
REMARK VINA RESULT:      -8.3      2.479      2.936
REMARK  Name = 
REMARK  7 active torsions:
REMARK  status: ('A' for Active; 'I' for Inactive)
REMARK    1  A    between atoms: C_1  and  O_2
REMARK    2  A    between atoms: O_2  and  C_3
REMARK    3  A    between atoms: C_3  and  C_5
REMARK    4  A    between atoms: C_5  and  C_6
REMARK    5  A    between atoms: C_9  and  O_10
REMARK    6  A    between atoms: O_10  and  C_11
REMARK    7  A    between atoms: C_13  and  C_14
REMARK                            x       y       z     vdW  Elec       q    Type
REMARK                         _______ _______ _______ _____ _____    ______ ____
ROOT
ATOM      1  C   UNL     1       3.224   5.755  18.683  0.00  0.00    +0.000 A 
ATOM      2  N   UNL     1       4.171   6.003  17.758  0.00  0.00    +0.000 NA
ATOM      3  C   UNL     1       4.423   4.996  16.879  0.00  0.00    +0.000 A 
ATOM      4  N   UNL     1       3.796   3.793  16.910  0.00  0.00    +0.000 NA
ATOM      5  C   UNL     1       2.860   3.582  17.833  0.00  0.00    +0.000 A 
ATOM      6  C   UNL     1       2.197   2.362  17.848  0.00  0.00    +0.000 A 
ATOM      7  C   UNL     1       1.191   2.081  18.776  0.00  0.00    +0.000 A 
ATOM      8  C   UNL     1       0.850   3.033  19.727  0.00  0.00    +0.000 A 
ATOM      9  C   UNL     1       1.512   4.257  19.737  0.00  0.00    +0.000 A 
ATOM     10  C   UNL     1       2.518   4.546  18.779  0.00  0.00    +0.000 A 
ENDROOT
BRANCH   3  11
ATOM     11  C   UNL     1       5.459   5.178  15.761  0.00  0.00    +0.000 C 
ATOM     12  F   UNL     1       6.727   5.435  16.198  0.00  0.00    +0.000 F 
ATOM     13  F   UNL     1       5.568   4.078  14.952  0.00  0.00    +0.000 F 
ATOM     14  F   UNL     1       5.150   6.213  14.919  0.00  0.00    +0.000 F 
ENDBRANCH   3  11
BRANCH   1  15
ATOM     15  O   UNL     1       2.902   6.662  19.692  0.00  0.00    +0.000 OA
BRANCH  15  19
ATOM     16  C   UNL     1       0.594  10.065  18.928  0.00  0.00    +0.000 A 
ATOM     17  C   UNL     1       0.548   9.505  20.215  0.00  0.00    +0.000 A 
ATOM     18  C   UNL     1       1.306   8.369  20.546  0.00  0.00    +0.000 A 
ATOM     19  C   UNL     1       2.124   7.780  19.592  0.00  0.00    +0.000 A 
ATOM     20  C   UNL     1       2.167   8.343  18.305  0.00  0.00    +0.000 A 
ATOM     21  C   UNL     1       1.416   9.470  17.971  0.00  0.00    +0.000 A 
BRANCH  16  22
ATOM     22  C   UNL     1      -0.166  11.325  18.594  0.00  0.00    +0.000 C 
BRANCH  22  23
ATOM     23  C   UNL     1      -1.660  11.104  18.501  0.00  0.00    +0.000 C 
ATOM     24  O   UNL     1      -2.503  11.650  19.205  0.00  0.00    +0.000 OA
BRANCH  23  26
ATOM     25  C   UNL     1      -3.284   9.740  17.518  0.00  0.00    +0.000 C 
ATOM     26  O   UNL     1      -1.950  10.246  17.480  0.00  0.00    +0.000 OA
ENDBRANCH  23  26
ENDBRANCH  22  23
ENDBRANCH  16  22
ENDBRANCH  15  19
ENDBRANCH   1  15
TORSDOF 6
ENDMDL
