MODEL 1
REMARK VINA RESULT:      -8.6      0.000      0.000
REMARK  Name = 
REMARK  6 active torsions:
REMARK  status: ('A' for Active; 'I' for Inactive)
REMARK    1  A    between atoms: C_2  and  C_18
REMARK    2  A    between atoms: N_3  and  C_4
REMARK    3  A    between atoms: C_4  and  C_5
REMARK    4  A    between atoms: N_8  and  C_9
REMARK    5  A    between atoms: C_9  and  C_10
REMARK    6  A    between atoms: C_10  and  C_11
REMARK                            x       y       z     vdW  Elec       q    Type
REMARK                         _______ _______ _______ _____ _____    ______ ____
ROOT
ATOM      1  O   UNL     1       7.619   8.440  17.004  0.00  0.00    +0.000 OA
ATOM      2  C   UNL     1       8.165   8.561  18.096  0.00  0.00    +0.000 C 
ATOM      3  N   UNL     1       8.363   7.483  18.921  0.00  0.00    +0.000 N 
ATOM      4  H   UNL     1       8.761   7.602  19.849  0.00  0.00    +0.000 HD
ENDROOT
BRANCH   2   5
ATOM      5  C   UNL     1       8.651   9.910  18.527  0.00  0.00    +0.000 A 
ATOM      6  C   UNL     1       8.420  10.926  17.590  0.00  0.00    +0.000 A 
ATOM      7  C   UNL     1       9.011  12.163  17.729  0.00  0.00    +0.000 A 
ATOM      8  C   UNL     1       9.728  12.452  18.870  0.00  0.00    +0.000 A 
ATOM      9  C   UNL     1      10.337  13.682  18.964  0.00  0.00    +0.000 A 
ATOM     10  C   UNL     1      10.319  14.303  20.189  0.00  0.00    +0.000 A 
ATOM     11  C   UNL     1      10.277  13.529  21.325  0.00  0.00    +0.000 A 
ATOM     12  C   UNL     1      10.134  12.120  21.207  0.00  0.00    +0.000 A 
ATOM     13  C   UNL     1       9.763  11.564  19.956  0.00  0.00    +0.000 A 
ATOM     14  C   UNL     1       9.313  10.230  19.733  0.00  0.00    +0.000 A 
ENDBRANCH   2   5
BRANCH   3  15
ATOM     15  C   UNL     1       7.894   6.167  18.528  0.00  0.00    +0.000 C 
BRANCH  15  16
ATOM     16  C   UNL     1       6.403   6.124  18.160  0.00  0.00    +0.000 C 
ATOM     17  C   UNL     1       5.603   5.358  19.214  0.00  0.00    +0.000 C 
ATOM     18  C   UNL     1       5.476   3.970  18.612  0.00  0.00    +0.000 C 
ATOM     19  N   UNL     1       5.260   4.210  17.174  0.00  0.00    +0.000 NA
ATOM     20  C   UNL     1       6.146   5.350  16.859  0.00  0.00    +0.000 C 
BRANCH  19  21
ATOM     21  C   UNL     1       3.833   4.490  16.884  0.00  0.00    +0.000 C 
BRANCH  21  22
ATOM     22  C   UNL     1       2.909   3.310  17.240  0.00  0.00    +0.000 C 
BRANCH  22  23
ATOM     23  C   UNL     1       2.295   3.383  18.621  0.00  0.00    +0.000 A 
ATOM     24  C   UNL     1       2.235   2.232  19.423  0.00  0.00    +0.000 A 
ATOM     25  C   UNL     1       1.760   2.298  20.734  0.00  0.00    +0.000 A 
ATOM     26  C   UNL     1       1.333   3.514  21.259  0.00  0.00    +0.000 A 
ATOM     27  C   UNL     1       1.370   4.662  20.467  0.00  0.00    +0.000 A 
ATOM     28  C   UNL     1       1.847   4.598  19.156  0.00  0.00    +0.000 A 
ENDBRANCH  22  23
ENDBRANCH  21  22
ENDBRANCH  19  21
ENDBRANCH  15  16
ENDBRANCH   3  15
TORSDOF 6
ENDMDL
MODEL 2
REMARK VINA RESULT:      -8.5      0.498      1.391
REMARK  Name = 
REMARK  6 active torsions:
REMARK  status: ('A' for Active; 'I' for Inactive)
REMARK    1  A    between atoms: C_2  and  C_18
REMARK    2  A    between atoms: N_3  and  C_4
REMARK    3  A    between atoms: C_4  and  C_5
REMARK    4  A    between atoms: N_8  and  C_9
REMARK    5  A    between atoms: C_9  and  C_10
REMARK    6  A    between atoms: C_10  and  C_11
REMARK                            x       y       z     vdW  Elec       q    Type
REMARK                         _______ _______ _______ _____ _____    ______ ____
ROOT
ATOM      1  O   UNL     1       7.674   8.453  17.054  0.00  0.00    +0.000 OA
ATOM      2  C   UNL     1       8.250   8.567  18.131  0.00  0.00    +0.000 C 
ATOM      3  N   UNL     1       8.442   7.488  18.957  0.00  0.00    +0.000 N 
ATOM      4  H   UNL     1       8.866   7.602  19.874  0.00  0.00    +0.000 HD
ENDROOT
BRANCH   2   5
ATOM      5  C   UNL     1       8.779   9.905  18.543  0.00  0.00    +0.000 A 
ATOM      6  C   UNL     1       9.242   9.953  19.864  0.00  0.00    +0.000 A 
ATOM      7  C   UNL     1       9.538  11.157  20.467  0.00  0.00    +0.000 A 
ATOM      8  C   UNL     1       9.509  12.317  19.722  0.00  0.00    +0.000 A 
ATOM      9  C   UNL     1       9.774  13.507  20.358  0.00  0.00    +0.000 A 
ATOM     10  C   UNL     1      10.519  14.435  19.676  0.00  0.00    +0.000 A 
ATOM     11  C   UNL     1      10.464  14.452  18.302  0.00  0.00    +0.000 A 
ATOM     12  C   UNL     1       9.736  13.440  17.619  0.00  0.00    +0.000 A 
ATOM     13  C   UNL     1       9.315  12.289  18.333  0.00  0.00    +0.000 A 
ATOM     14  C   UNL     1       8.831  11.078  17.758  0.00  0.00    +0.000 A 
ENDBRANCH   2   5
BRANCH   3  15
ATOM     15  C   UNL     1       7.931   6.182  18.583  0.00  0.00    +0.000 C 
BRANCH  15  16
ATOM     16  C   UNL     1       6.450   6.189  18.175  0.00  0.00    +0.000 C 
ATOM     17  C   UNL     1       5.588   5.508  19.238  0.00  0.00    +0.000 C 
ATOM     18  C   UNL     1       5.414   4.101  18.695  0.00  0.00    +0.000 C 
ATOM     19  N   UNL     1       5.248   4.284  17.242  0.00  0.00    +0.000 NA
ATOM     20  C   UNL     1       6.194   5.368  16.902  0.00  0.00    +0.000 C 
BRANCH  19  21
ATOM     21  C   UNL     1       3.845   4.613  16.897  0.00  0.00    +0.000 C 
BRANCH  21  22
ATOM     22  C   UNL     1       2.871   3.454  17.187  0.00  0.00    +0.000 C 
BRANCH  22  23
ATOM     23  C   UNL     1       2.259   3.474  18.570  0.00  0.00    +0.000 A 
ATOM     24  C   UNL     1       2.107   2.275  19.286  0.00  0.00    +0.000 A 
ATOM     25  C   UNL     1       1.632   2.283  20.599  0.00  0.00    +0.000 A 
ATOM     26  C   UNL     1       1.298   3.487  21.211  0.00  0.00    +0.000 A 
ATOM     27  C   UNL     1       1.427   4.683  20.506  0.00  0.00    +0.000 A 
ATOM     28  C   UNL     1       1.904   4.678  19.192  0.00  0.00    +0.000 A 
ENDBRANCH  22  23
ENDBRANCH  21  22
ENDBRANCH  19  21
ENDBRANCH  15  16
ENDBRANCH   3  15
TORSDOF 6
ENDMDL
MODEL 3
REMARK VINA RESULT:      -8.4      5.927      9.276
REMARK  Name = 
REMARK  6 active torsions:
REMARK  status: ('A' for Active; 'I' for Inactive)
REMARK    1  A    between atoms: C_2  and  C_18
REMARK    2  A    between atoms: N_3  and  C_4
REMARK    3  A    between atoms: C_4  and  C_5
REMARK    4  A    between atoms: N_8  and  C_9
REMARK    5  A    between atoms: C_9  and  C_10
REMARK    6  A    between atoms: C_10  and  C_11
REMARK                            x       y       z     vdW  Elec       q    Type
REMARK                         _______ _______ _______ _____ _____    ______ ____
ROOT
ATOM      1  O   UNL     1       1.460   5.421  20.761  0.00  0.00    +0.000 OA
ATOM      2  C   UNL     1       2.078   6.216  20.061  0.00  0.00    +0.000 C 
ATOM      3  N   UNL     1       2.069   7.561  20.328  0.00  0.00    +0.000 N 
ATOM      4  H   UNL     1       2.533   8.220  19.708  0.00  0.00    +0.000 HD
ENDROOT
BRANCH   2   5
ATOM      5  C   UNL     1       2.881   5.706  18.904  0.00  0.00    +0.000 A 
ATOM      6  C   UNL     1       2.685   4.347  18.629  0.00  0.00    +0.000 A 
ATOM      7  C   UNL     1       3.516   3.674  17.759  0.00  0.00    +0.000 A 
ATOM      8  C   UNL     1       4.467   4.374  17.047  0.00  0.00    +0.000 A 
ATOM      9  C   UNL     1       5.305   3.671  16.213  0.00  0.00    +0.000 A 
ATOM     10  C   UNL     1       5.624   4.246  15.008  0.00  0.00    +0.000 A 
ATOM     11  C   UNL     1       5.639   5.618  14.910  0.00  0.00    +0.000 A 
ATOM     12  C   UNL     1       5.211   6.403  16.015  0.00  0.00    +0.000 A 
ATOM     13  C   UNL     1       4.524   5.775  17.085  0.00  0.00    +0.000 A 
ATOM     14  C   UNL     1       3.796   6.438  18.116  0.00  0.00    +0.000 A 
ENDBRANCH   2   5
BRANCH   3  15
ATOM     15  C   UNL     1       1.292   8.080  21.439  0.00  0.00    +0.000 C 
BRANCH  15  16
ATOM     16  C   UNL     1       0.087   8.931  21.008  0.00  0.00    +0.000 C 
ATOM     17  C   UNL     1       0.397   9.706  19.727  0.00  0.00    +0.000 C 
ATOM     18  C   UNL     1       0.794  11.079  20.238  0.00  0.00    +0.000 C 
ATOM     19  N   UNL     1      -0.125  11.334  21.362  0.00  0.00    +0.000 NA
ATOM     20  C   UNL     1      -0.250  10.024  22.034  0.00  0.00    +0.000 C 
BRANCH  19  21
ATOM     21  C   UNL     1      -1.424  11.864  20.884  0.00  0.00    +0.000 C 
BRANCH  21  22
ATOM     22  C   UNL     1      -1.350  12.422  19.449  0.00  0.00    +0.000 C 
BRANCH  22  23
ATOM     23  C   UNL     1      -2.410  11.890  18.509  0.00  0.00    +0.000 A 
ATOM     24  C   UNL     1      -3.767  11.980  18.861  0.00  0.00    +0.000 A 
ATOM     25  C   UNL     1      -4.764  11.582  17.969  0.00  0.00    +0.000 A 
ATOM     26  C   UNL     1      -4.418  11.083  16.716  0.00  0.00    +0.000 A 
ATOM     27  C   UNL     1      -3.073  10.971  16.361  0.00  0.00    +0.000 A 
ATOM     28  C   UNL     1      -2.074  11.371  17.252  0.00  0.00    +0.000 A 
ENDBRANCH  22  23
ENDBRANCH  21  22
ENDBRANCH  19  21
ENDBRANCH  15  16
ENDBRANCH   3  15
TORSDOF 6
ENDMDL
MODEL 4
REMARK VINA RESULT:      -8.3      1.222      1.425
REMARK  Name = 
REMARK  6 active torsions:
REMARK  status: ('A' for Active; 'I' for Inactive)
REMARK    1  A    between atoms: C_2  and  C_18
REMARK    2  A    between atoms: N_3  and  C_4
REMARK    3  A    between atoms: C_4  and  C_5
REMARK    4  A    between atoms: N_8  and  C_9
REMARK    5  A    between atoms: C_9  and  C_10
REMARK    6  A    between atoms: C_10  and  C_11
REMARK                            x       y       z     vdW  Elec       q    Type
REMARK                         _______ _______ _______ _____ _____    ______ ____
ROOT
ATOM      1  O   UNL     1       8.314   7.067  18.926  0.00  0.00    +0.000 OA
ATOM      2  C   UNL     1       8.145   7.939  18.080  0.00  0.00    +0.000 C 
ATOM      3  N   UNL     1       7.608   7.650  16.852  0.00  0.00    +0.000 N 
ATOM      4  H   UNL     1       7.528   8.366  16.135  0.00  0.00    +0.000 HD
ENDROOT
BRANCH   2   5
ATOM      5  C   UNL     1       8.507   9.356  18.404  0.00  0.00    +0.000 A 
ATOM      6  C   UNL     1       7.946  10.300  17.533  0.00  0.00    +0.000 A 
ATOM      7  C   UNL     1       8.367  11.612  17.549  0.00  0.00    +0.000 A 
ATOM      8  C   UNL     1       9.250  12.034  18.521  0.00  0.00    +0.000 A 
ATOM      9  C   UNL     1       9.679  13.341  18.489  0.00  0.00    +0.000 A 
ATOM     10  C   UNL     1       9.817  13.988  19.691  0.00  0.00    +0.000 A 
ATOM     11  C   UNL     1      10.118  13.250  20.812  0.00  0.00    +0.000 A 
ATOM     12  C   UNL     1      10.161  11.832  20.726  0.00  0.00    +0.000 A 
ATOM     13  C   UNL     1       9.630  11.193  19.576  0.00  0.00    +0.000 A 
ATOM     14  C   UNL     1       9.344   9.803  19.450  0.00  0.00    +0.000 A 
ENDBRANCH   2   5
BRANCH   3  15
ATOM     15  C   UNL     1       7.257   6.283  16.512  0.00  0.00    +0.000 C 
BRANCH  15  16
ATOM     16  C   UNL     1       5.754   6.071  16.271  0.00  0.00    +0.000 C 
ATOM     17  C   UNL     1       4.923   6.910  17.242  0.00  0.00    +0.000 C 
ATOM     18  C   UNL     1       4.573   5.924  18.342  0.00  0.00    +0.000 C 
ATOM     19  N   UNL     1       4.306   4.660  17.633  0.00  0.00    +0.000 NA
ATOM     20  C   UNL     1       5.317   4.626  16.556  0.00  0.00    +0.000 C 
BRANCH  19  21
ATOM     21  C   UNL     1       2.915   4.614  17.121  0.00  0.00    +0.000 C 
BRANCH  21  22
ATOM     22  C   UNL     1       1.886   5.135  18.143  0.00  0.00    +0.000 C 
BRANCH  22  23
ATOM     23  C   UNL     1       1.753   4.292  19.392  0.00  0.00    +0.000 A 
ATOM     24  C   UNL     1       1.233   2.991  19.307  0.00  0.00    +0.000 A 
ATOM     25  C   UNL     1       1.190   2.163  20.430  0.00  0.00    +0.000 A 
ATOM     26  C   UNL     1       1.661   2.628  21.655  0.00  0.00    +0.000 A 
ATOM     27  C   UNL     1       2.164   3.925  21.758  0.00  0.00    +0.000 A 
ATOM     28  C   UNL     1       2.209   4.753  20.633  0.00  0.00    +0.000 A 
ENDBRANCH  22  23
ENDBRANCH  21  22
ENDBRANCH  19  21
ENDBRANCH  15  16
ENDBRANCH   3  15
TORSDOF 6
ENDMDL
MODEL 5
REMARK VINA RESULT:      -8.2      6.133      9.326
REMARK  Name = 
REMARK  6 active torsions:
REMARK  status: ('A' for Active; 'I' for Inactive)
REMARK    1  A    between atoms: C_2  and  C_18
REMARK    2  A    between atoms: N_3  and  C_4
REMARK    3  A    between atoms: C_4  and  C_5
REMARK    4  A    between atoms: N_8  and  C_9
REMARK    5  A    between atoms: C_9  and  C_10
REMARK    6  A    between atoms: C_10  and  C_11
REMARK                            x       y       z     vdW  Elec       q    Type
REMARK                         _______ _______ _______ _____ _____    ______ ____
ROOT
ATOM      1  O   UNL     1       1.582   5.868  20.600  0.00  0.00    +0.000 OA
ATOM      2  C   UNL     1       2.099   6.570  19.738  0.00  0.00    +0.000 C 
ATOM      3  N   UNL     1       1.956   7.935  19.747  0.00  0.00    +0.000 N 
ATOM      4  H   UNL     1       2.336   8.505  18.996  0.00  0.00    +0.000 HD
ENDROOT
BRANCH   2   5
ATOM      5  C   UNL     1       2.927   5.930  18.668  0.00  0.00    +0.000 A 
ATOM      6  C   UNL     1       2.744   4.545  18.558  0.00  0.00    +0.000 A 
ATOM      7  C   UNL     1       3.596   3.779  17.792  0.00  0.00    +0.000 A 
ATOM      8  C   UNL     1       4.556   4.394  17.016  0.00  0.00    +0.000 A 
ATOM      9  C   UNL     1       5.414   3.601  16.291  0.00  0.00    +0.000 A 
ATOM     10  C   UNL     1       5.752   4.027  15.031  0.00  0.00    +0.000 A 
ATOM     11  C   UNL     1       5.760   5.377  14.765  0.00  0.00    +0.000 A 
ATOM     12  C   UNL     1       5.307   6.287  15.757  0.00  0.00    +0.000 A 
ATOM     13  C   UNL     1       4.604   5.790  16.884  0.00  0.00    +0.000 A 
ATOM     14  C   UNL     1       3.852   6.567  17.812  0.00  0.00    +0.000 A 
ENDBRANCH   2   5
BRANCH   3  15
ATOM     15  C   UNL     1       1.151   8.578  20.770  0.00  0.00    +0.000 C 
BRANCH  15  16
ATOM     16  C   UNL     1       0.177   9.632  20.221  0.00  0.00    +0.000 C 
ATOM     17  C   UNL     1       0.612  10.106  18.834  0.00  0.00    +0.000 C 
ATOM     18  C   UNL     1       1.360  11.395  19.126  0.00  0.00    +0.000 C 
ATOM     19  N   UNL     1       0.583  12.036  20.203  0.00  0.00    +0.000 NA
ATOM     20  C   UNL     1       0.167  10.913  21.068  0.00  0.00    +0.000 C 
BRANCH  19  21
ATOM     21  C   UNL     1      -0.564  12.800  19.657  0.00  0.00    +0.000 C 
BRANCH  21  22
ATOM     22  C   UNL     1      -1.914  12.359  20.256  0.00  0.00    +0.000 C 
BRANCH  22  23
ATOM     23  C   UNL     1      -2.994  12.072  19.236  0.00  0.00    +0.000 A 
ATOM     24  C   UNL     1      -2.659  11.474  18.010  0.00  0.00    +0.000 A 
ATOM     25  C   UNL     1      -3.650  11.115  17.095  0.00  0.00    +0.000 A 
ATOM     26  C   UNL     1      -4.989  11.355  17.391  0.00  0.00    +0.000 A 
ATOM     27  C   UNL     1      -5.335  11.965  18.597  0.00  0.00    +0.000 A 
ATOM     28  C   UNL     1      -4.343  12.322  19.514  0.00  0.00    +0.000 A 
ENDBRANCH  22  23
ENDBRANCH  21  22
ENDBRANCH  19  21
ENDBRANCH  15  16
ENDBRANCH   3  15
TORSDOF 6
ENDMDL
MODEL 6
REMARK VINA RESULT:      -8.1      6.728      9.947
REMARK  Name = 
REMARK  6 active torsions:
REMARK  status: ('A' for Active; 'I' for Inactive)
REMARK    1  A    between atoms: C_2  and  C_18
REMARK    2  A    between atoms: N_3  and  C_4
REMARK    3  A    between atoms: C_4  and  C_5
REMARK    4  A    between atoms: N_8  and  C_9
REMARK    5  A    between atoms: C_9  and  C_10
REMARK    6  A    between atoms: C_10  and  C_11
REMARK                            x       y       z     vdW  Elec       q    Type
REMARK                         _______ _______ _______ _____ _____    ______ ____
ROOT
ATOM      1  O   UNL     1       1.403   5.420  20.872  0.00  0.00    +0.000 OA
ATOM      2  C   UNL     1       1.955   6.239  20.146  0.00  0.00    +0.000 C 
ATOM      3  N   UNL     1       1.884   7.585  20.403  0.00  0.00    +0.000 N 
ATOM      4  H   UNL     1       2.293   8.261  19.763  0.00  0.00    +0.000 HD
ENDROOT
BRANCH   2   5
ATOM      5  C   UNL     1       2.747   5.761  18.969  0.00  0.00    +0.000 A 
ATOM      6  C   UNL     1       2.459   4.445  18.585  0.00  0.00    +0.000 A 
ATOM      7  C   UNL     1       3.260   3.780  17.681  0.00  0.00    +0.000 A 
ATOM      8  C   UNL     1       4.276   4.460  17.043  0.00  0.00    +0.000 A 
ATOM      9  C   UNL     1       5.081   3.762  16.173  0.00  0.00    +0.000 A 
ATOM     10  C   UNL     1       5.469   4.402  15.022  0.00  0.00    +0.000 A 
ATOM     11  C   UNL     1       5.586   5.772  15.031  0.00  0.00    +0.000 A 
ATOM     12  C   UNL     1       5.189   6.501  16.185  0.00  0.00    +0.000 A 
ATOM     13  C   UNL     1       4.433   5.846  17.191  0.00  0.00    +0.000 A 
ATOM     14  C   UNL     1       3.731   6.481  18.256  0.00  0.00    +0.000 A 
ENDBRANCH   2   5
BRANCH   3  15
ATOM     15  C   UNL     1       1.116   8.073  21.534  0.00  0.00    +0.000 C 
BRANCH  15  16
ATOM     16  C   UNL     1       0.090   9.157  21.165  0.00  0.00    +0.000 C 
ATOM     17  C   UNL     1       0.522   9.910  19.906  0.00  0.00    +0.000 C 
ATOM     18  C   UNL     1       1.185  11.159  20.460  0.00  0.00    +0.000 C 
ATOM     19  N   UNL     1       0.351  11.539  21.614  0.00  0.00    +0.000 NA
ATOM     20  C   UNL     1      -0.013  10.250  22.239  0.00  0.00    +0.000 C 
BRANCH  19  21
ATOM     21  C   UNL     1      -0.831  12.327  21.189  0.00  0.00    +0.000 C 
BRANCH  21  22
ATOM     22  C   UNL     1      -2.043  12.137  22.121  0.00  0.00    +0.000 C 
BRANCH  22  23
ATOM     23  C   UNL     1      -2.276  13.272  23.094  0.00  0.00    +0.000 A 
ATOM     24  C   UNL     1      -3.576  13.546  23.551  0.00  0.00    +0.000 A 
ATOM     25  C   UNL     1      -3.800  14.526  24.519  0.00  0.00    +0.000 A 
ATOM     26  C   UNL     1      -2.730  15.249  25.039  0.00  0.00    +0.000 A 
ATOM     27  C   UNL     1      -1.436  14.999  24.581  0.00  0.00    +0.000 A 
ATOM     28  C   UNL     1      -1.210  14.017  23.613  0.00  0.00    +0.000 A 
ENDBRANCH  22  23
ENDBRANCH  21  22
ENDBRANCH  19  21
ENDBRANCH  15  16
ENDBRANCH   3  15
TORSDOF 6
ENDMDL
MODEL 7
REMARK VINA RESULT:      -8.0      7.451     11.058
REMARK  Name = 
REMARK  6 active torsions:
REMARK  status: ('A' for Active; 'I' for Inactive)
REMARK    1  A    between atoms: C_2  and  C_18
REMARK    2  A    between atoms: N_3  and  C_4
REMARK    3  A    between atoms: C_4  and  C_5
REMARK    4  A    between atoms: N_8  and  C_9
REMARK    5  A    between atoms: C_9  and  C_10
REMARK    6  A    between atoms: C_10  and  C_11
REMARK                            x       y       z     vdW  Elec       q    Type
REMARK                         _______ _______ _______ _____ _____    ______ ____
ROOT
ATOM      1  O   UNL     1       1.771   8.465  21.980  0.00  0.00    +0.000 OA
ATOM      2  C   UNL     1       1.522   8.334  20.786  0.00  0.00    +0.000 C 
ATOM      3  N   UNL     1       1.024   9.372  20.041  0.00  0.00    +0.000 N 
ATOM      4  H   UNL     1       0.763   9.238  19.067  0.00  0.00    +0.000 HD
ENDROOT
BRANCH   2   5
ATOM      5  C   UNL     1       1.792   7.021  20.120  0.00  0.00    +0.000 A 
ATOM      6  C   UNL     1       2.412   7.134  18.868  0.00  0.00    +0.000 A 
ATOM      7  C   UNL     1       2.513   6.045  18.029  0.00  0.00    +0.000 A 
ATOM      8  C   UNL     1       2.124   4.800  18.477  0.00  0.00    +0.000 A 
ATOM      9  C   UNL     1       2.202   3.740  17.604  0.00  0.00    +0.000 A 
ATOM     10  C   UNL     1       2.621   2.535  18.113  0.00  0.00    +0.000 A 
ATOM     11  C   UNL     1       2.373   2.250  19.435  0.00  0.00    +0.000 A 
ATOM     12  C   UNL     1       1.800   3.247  20.271  0.00  0.00    +0.000 A 
ATOM     13  C   UNL     1       1.750   4.588  19.812  0.00  0.00    +0.000 A 
ATOM     14  C   UNL     1       1.472   5.736  20.610  0.00  0.00    +0.000 A 
ENDBRANCH   2   5
BRANCH   3  15
ATOM     15  C   UNL     1       0.746  10.653  20.666  0.00  0.00    +0.000 C 
BRANCH  15  16
ATOM     16  C   UNL     1      -0.669  10.762  21.254  0.00  0.00    +0.000 C 
ATOM     17  C   UNL     1      -1.350  12.054  20.801  0.00  0.00    +0.000 C 
ATOM     18  C   UNL     1      -1.123  12.994  21.971  0.00  0.00    +0.000 C 
ATOM     19  N   UNL     1      -1.286  12.145  23.165  0.00  0.00    +0.000 NA
ATOM     20  C   UNL     1      -0.656  10.863  22.786  0.00  0.00    +0.000 C 
BRANCH  19  21
ATOM     21  C   UNL     1      -2.715  12.000  23.531  0.00  0.00    +0.000 C 
BRANCH  21  22
ATOM     22  C   UNL     1      -3.547  13.254  23.199  0.00  0.00    +0.000 C 
BRANCH  22  23
ATOM     23  C   UNL     1      -4.979  12.975  22.798  0.00  0.00    +0.000 A 
ATOM     24  C   UNL     1      -5.284  12.664  21.462  0.00  0.00    +0.000 A 
ATOM     25  C   UNL     1      -6.582  12.311  21.090  0.00  0.00    +0.000 A 
ATOM     26  C   UNL     1      -7.593  12.271  22.046  0.00  0.00    +0.000 A 
ATOM     27  C   UNL     1      -7.308  12.595  23.372  0.00  0.00    +0.000 A 
ATOM     28  C   UNL     1      -6.008  12.947  23.747  0.00  0.00    +0.000 A 
ENDBRANCH  22  23
ENDBRANCH  21  22
ENDBRANCH  19  21
ENDBRANCH  15  16
ENDBRANCH   3  15
TORSDOF 6
ENDMDL
MODEL 8
REMARK VINA RESULT:      -8.0      5.911      9.105
REMARK  Name = 
REMARK  6 active torsions:
REMARK  status: ('A' for Active; 'I' for Inactive)
REMARK    1  A    between atoms: C_2  and  C_18
REMARK    2  A    between atoms: N_3  and  C_4
REMARK    3  A    between atoms: C_4  and  C_5
REMARK    4  A    between atoms: N_8  and  C_9
REMARK    5  A    between atoms: C_9  and  C_10
REMARK    6  A    between atoms: C_10  and  C_11
REMARK                            x       y       z     vdW  Elec       q    Type
REMARK                         _______ _______ _______ _____ _____    ______ ____
ROOT
ATOM      1  O   UNL     1       1.674   5.344  20.634  0.00  0.00    +0.000 OA
ATOM      2  C   UNL     1       2.195   6.298  20.068  0.00  0.00    +0.000 C 
ATOM      3  N   UNL     1       1.976   7.586  20.487  0.00  0.00    +0.000 N 
ATOM      4  H   UNL     1       2.363   8.374  19.975  0.00  0.00    +0.000 HD
ENDROOT
BRANCH   2   5
ATOM      5  C   UNL     1       3.113   6.053  18.910  0.00  0.00    +0.000 A 
ATOM      6  C   UNL     1       3.701   7.215  18.393  0.00  0.00    +0.000 A 
ATOM      7  C   UNL     1       4.377   7.191  17.192  0.00  0.00    +0.000 A 
ATOM      8  C   UNL     1       4.595   5.987  16.557  0.00  0.00    +0.000 A 
ATOM      9  C   UNL     1       5.241   5.998  15.342  0.00  0.00    +0.000 A 
ATOM     10  C   UNL     1       6.142   4.992  15.098  0.00  0.00    +0.000 A 
ATOM     11  C   UNL     1       5.956   3.772  15.704  0.00  0.00    +0.000 A 
ATOM     12  C   UNL     1       4.912   3.615  16.656  0.00  0.00    +0.000 A 
ATOM     13  C   UNL     1       4.263   4.768  17.167  0.00  0.00    +0.000 A 
ATOM     14  C   UNL     1       3.408   4.811  18.306  0.00  0.00    +0.000 A 
ENDBRANCH   2   5
BRANCH   3  15
ATOM     15  C   UNL     1       1.085   7.849  21.602  0.00  0.00    +0.000 C 
BRANCH  15  16
ATOM     16  C   UNL     1      -0.032   8.854  21.279  0.00  0.00    +0.000 C 
ATOM     17  C   UNL     1       0.388   9.789  20.143  0.00  0.00    +0.000 C 
ATOM     18  C   UNL     1       0.872  11.028  20.875  0.00  0.00    +0.000 C 
ATOM     19  N   UNL     1      -0.068  11.183  22.000  0.00  0.00    +0.000 NA
ATOM     20  C   UNL     1      -0.321   9.800  22.454  0.00  0.00    +0.000 C 
BRANCH  19  21
ATOM     21  C   UNL     1      -1.302  11.887  21.578  0.00  0.00    +0.000 C 
BRANCH  21  22
ATOM     22  C   UNL     1      -1.148  12.599  20.219  0.00  0.00    +0.000 C 
BRANCH  22  23
ATOM     23  C   UNL     1      -2.157  12.185  19.171  0.00  0.00    +0.000 A 
ATOM     24  C   UNL     1      -1.717  11.702  17.928  0.00  0.00    +0.000 A 
ATOM     25  C   UNL     1      -2.628  11.226  16.983  0.00  0.00    +0.000 A 
ATOM     26  C   UNL     1      -3.991  11.233  17.266  0.00  0.00    +0.000 A 
ATOM     27  C   UNL     1      -4.443  11.728  18.489  0.00  0.00    +0.000 A 
ATOM     28  C   UNL     1      -3.532  12.202  19.437  0.00  0.00    +0.000 A 
ENDBRANCH  22  23
ENDBRANCH  21  22
ENDBRANCH  19  21
ENDBRANCH  15  16
ENDBRANCH   3  15
TORSDOF 6
ENDMDL
MODEL 9
REMARK VINA RESULT:      -8.0      6.916     10.405
REMARK  Name = 
REMARK  6 active torsions:
REMARK  status: ('A' for Active; 'I' for Inactive)
REMARK    1  A    between atoms: C_2  and  C_18
REMARK    2  A    between atoms: N_3  and  C_4
REMARK    3  A    between atoms: C_4  and  C_5
REMARK    4  A    between atoms: N_8  and  C_9
REMARK    5  A    between atoms: C_9  and  C_10
REMARK    6  A    between atoms: C_10  and  C_11
REMARK                            x       y       z     vdW  Elec       q    Type
REMARK                         _______ _______ _______ _____ _____    ______ ____
ROOT
ATOM      1  O   UNL     1       2.520   9.127  17.309  0.00  0.00    +0.000 OA
ATOM      2  C   UNL     1       2.147   8.359  18.189  0.00  0.00    +0.000 C 
ATOM      3  N   UNL     1       1.375   8.793  19.237  0.00  0.00    +0.000 N 
ATOM      4  H   UNL     1       1.121   8.164  19.994  0.00  0.00    +0.000 HD
ENDROOT
BRANCH   2   5
ATOM      5  C   UNL     1       2.518   6.911  18.106  0.00  0.00    +0.000 A 
ATOM      6  C   UNL     1       3.870   6.685  17.817  0.00  0.00    +0.000 A 
ATOM      7  C   UNL     1       4.319   5.427  17.476  0.00  0.00    +0.000 A 
ATOM      8  C   UNL     1       3.458   4.353  17.551  0.00  0.00    +0.000 A 
ATOM      9  C   UNL     1       3.924   3.116  17.169  0.00  0.00    +0.000 A 
ATOM     10  C   UNL     1       3.523   2.034  17.913  0.00  0.00    +0.000 A 
ATOM     11  C   UNL     1       2.306   2.082  18.552  0.00  0.00    +0.000 A 
ATOM     12  C   UNL     1       1.550   3.285  18.528  0.00  0.00    +0.000 A 
ATOM     13  C   UNL     1       2.171   4.484  18.093  0.00  0.00    +0.000 A 
ATOM     14  C   UNL     1       1.658   5.802  18.265  0.00  0.00    +0.000 A 
ENDBRANCH   2   5
BRANCH   3  15
ATOM     15  C   UNL     1       1.009  10.194  19.344  0.00  0.00    +0.000 C 
BRANCH  15  16
ATOM     16  C   UNL     1      -0.373  10.427  19.973  0.00  0.00    +0.000 C 
ATOM     17  C   UNL     1      -1.373  10.922  18.928  0.00  0.00    +0.000 C 
ATOM     18  C   UNL     1      -1.367  12.427  19.127  0.00  0.00    +0.000 C 
ATOM     19  N   UNL     1      -1.280  12.605  20.588  0.00  0.00    +0.000 NA
ATOM     20  C   UNL     1      -0.351  11.544  21.028  0.00  0.00    +0.000 C 
BRANCH  19  21
ATOM     21  C   UNL     1      -2.616  12.504  21.223  0.00  0.00    +0.000 C 
BRANCH  21  22
ATOM     22  C   UNL     1      -3.691  13.324  20.485  0.00  0.00    +0.000 C 
BRANCH  22  23
ATOM     23  C   UNL     1      -4.945  12.552  20.135  0.00  0.00    +0.000 A 
ATOM     24  C   UNL     1      -5.039  11.891  18.899  0.00  0.00    +0.000 A 
ATOM     25  C   UNL     1      -6.145  11.097  18.596  0.00  0.00    +0.000 A 
ATOM     26  C   UNL     1      -7.176  10.957  19.521  0.00  0.00    +0.000 A 
ATOM     27  C   UNL     1      -7.104  11.622  20.745  0.00  0.00    +0.000 A 
ATOM     28  C   UNL     1      -5.996  12.416  21.051  0.00  0.00    +0.000 A 
ENDBRANCH  22  23
ENDBRANCH  21  22
ENDBRANCH  19  21
ENDBRANCH  15  16
ENDBRANCH   3  15
TORSDOF 6
ENDMDL
