MODEL 1
REMARK VINA RESULT:      -8.3      0.000      0.000
REMARK  Name = 
REMARK  5 active torsions:
REMARK  status: ('A' for Active; 'I' for Inactive)
REMARK    1  A    between atoms: C_2  and  C_15
REMARK    2  A    between atoms: N_3  and  C_4
REMARK    3  A    between atoms: C_4  and  C_5
REMARK    4  A    between atoms: C_10  and  O_11
REMARK    5  A    between atoms: O_11  and  C_12
REMARK                            x       y       z     vdW  Elec       q    Type
REMARK                         _______ _______ _______ _____ _____    ______ ____
ROOT
ATOM      1  O   UNL     1       1.559   2.122  20.127  0.00  0.00    +0.000 OA
ATOM      2  C   UNL     1       2.464   2.933  19.907  0.00  0.00    +0.000 C 
ATOM      3  N   UNL     1       3.703   2.389  19.796  0.00  0.00    +0.000 N 
ATOM      4  H   UNL     1       3.670   1.378  19.879  0.00  0.00    +0.000 HD
ENDROOT
BRANCH   2   5
ATOM      5  C   UNL     1       2.093   4.375  19.732  0.00  0.00    +0.000 A 
ATOM      6  C   UNL     1       1.658   4.644  18.425  0.00  0.00    +0.000 A 
ATOM      7  C   UNL     1       1.760   5.916  17.900  0.00  0.00    +0.000 A 
ATOM      8  C   UNL     1       2.144   6.932  18.748  0.00  0.00    +0.000 A 
ATOM      9  C   UNL     1       2.362   8.280  18.224  0.00  0.00    +0.000 A 
ATOM     10  O   UNL     1       2.947   8.454  17.163  0.00  0.00    +0.000 OA
ATOM     11  N   UNL     1       1.774   9.213  18.991  0.00  0.00    +0.000 N 
ATOM     12  C   UNL     1       1.191   8.905  20.206  0.00  0.00    +0.000 A 
ATOM     13  N   UNL     1       1.420   7.818  20.884  0.00  0.00    +0.000 NA
ATOM     14  C   UNL     1       2.047   6.764  20.122  0.00  0.00    +0.000 A 
ATOM     15  C   UNL     1       2.211   5.468  20.614  0.00  0.00    +0.000 A 
ATOM     16  C   UNL     1       0.154   9.970  20.490  0.00  0.00    +0.000 C 
ATOM     17  C   UNL     1      -0.060  10.549  19.072  0.00  0.00    +0.000 C 
ATOM     18  C   UNL     1       1.326  10.478  18.471  0.00  0.00    +0.000 C 
ENDBRANCH   2   5
BRANCH   3  19
ATOM     19  C   UNL     1       4.989   2.972  19.552  0.00  0.00    +0.000 C 
BRANCH  19  20
ATOM     20  C   UNL     1       5.034   3.916  18.375  0.00  0.00    +0.000 A 
ATOM     21  C   UNL     1       4.508   3.509  17.124  0.00  0.00    +0.000 A 
ATOM     22  C   UNL     1       4.555   4.338  16.003  0.00  0.00    +0.000 A 
ATOM     23  C   UNL     1       5.146   5.588  16.100  0.00  0.00    +0.000 A 
ATOM     24  C   UNL     1       5.697   6.000  17.313  0.00  0.00    +0.000 A 
ATOM     25  C   UNL     1       5.640   5.182  18.453  0.00  0.00    +0.000 A 
BRANCH  25  26
ATOM     26  O   UNL     1       6.322   5.701  19.521  0.00  0.00    +0.000 OA
BRANCH  26  27
ATOM     27  C   UNL     1       7.736   5.698  19.463  0.00  0.00    +0.000 C 
ATOM     28  F   UNL     1       8.115   4.763  18.555  0.00  0.00    +0.000 F 
ATOM     29  F   UNL     1       8.132   6.893  18.960  0.00  0.00    +0.000 F 
ENDBRANCH  26  27
ENDBRANCH  25  26
ENDBRANCH  19  20
ENDBRANCH   3  19
TORSDOF 5
ENDMDL
MODEL 2
REMARK VINA RESULT:      -8.3      1.371      1.577
REMARK  Name = 
REMARK  5 active torsions:
REMARK  status: ('A' for Active; 'I' for Inactive)
REMARK    1  A    between atoms: C_2  and  C_15
REMARK    2  A    between atoms: N_3  and  C_4
REMARK    3  A    between atoms: C_4  and  C_5
REMARK    4  A    between atoms: C_10  and  O_11
REMARK    5  A    between atoms: O_11  and  C_12
REMARK                            x       y       z     vdW  Elec       q    Type
REMARK                         _______ _______ _______ _____ _____    ______ ____
ROOT
ATOM      1  O   UNL     1       2.985   2.601  19.769  0.00  0.00    +0.000 OA
ATOM      2  C   UNL     1       3.608   3.619  19.452  0.00  0.00    +0.000 C 
ATOM      3  N   UNL     1       4.906   3.412  19.113  0.00  0.00    +0.000 N 
ATOM      4  H   UNL     1       5.141   2.425  19.145  0.00  0.00    +0.000 HD
ENDROOT
BRANCH   2   5
ATOM      5  C   UNL     1       2.864   4.920  19.419  0.00  0.00    +0.000 A 
ATOM      6  C   UNL     1       2.306   5.167  18.154  0.00  0.00    +0.000 A 
ATOM      7  C   UNL     1       2.044   6.458  17.743  0.00  0.00    +0.000 A 
ATOM      8  C   UNL     1       2.192   7.469  18.668  0.00  0.00    +0.000 A 
ATOM      9  C   UNL     1       2.023   8.863  18.262  0.00  0.00    +0.000 A 
ATOM     10  O   UNL     1       2.486   9.270  17.204  0.00  0.00    +0.000 OA
ATOM     11  N   UNL     1       1.251   9.543  19.126  0.00  0.00    +0.000 N 
ATOM     12  C   UNL     1       0.833   8.996  20.325  0.00  0.00    +0.000 A 
ATOM     13  N   UNL     1       1.373   7.959  20.896  0.00  0.00    +0.000 NA
ATOM     14  C   UNL     1       2.214   7.173  20.023  0.00  0.00    +0.000 A 
ATOM     15  C   UNL     1       2.736   5.931  20.392  0.00  0.00    +0.000 A 
ATOM     16  C   UNL     1      -0.431   9.722  20.734  0.00  0.00    +0.000 C 
ATOM     17  C   UNL     1      -0.862  10.334  19.381  0.00  0.00    +0.000 C 
ATOM     18  C   UNL     1       0.461  10.681  18.736  0.00  0.00    +0.000 C 
ENDBRANCH   2   5
BRANCH   3  19
ATOM     19  C   UNL     1       5.945   4.307  18.699  0.00  0.00    +0.000 C 
BRANCH  19  20
ATOM     20  C   UNL     1       6.039   4.505  17.206  0.00  0.00    +0.000 A 
ATOM     21  C   UNL     1       5.241   3.720  16.338  0.00  0.00    +0.000 A 
ATOM     22  C   UNL     1       5.318   3.849  14.951  0.00  0.00    +0.000 A 
ATOM     23  C   UNL     1       6.209   4.754  14.396  0.00  0.00    +0.000 A 
ATOM     24  C   UNL     1       7.027   5.518  15.228  0.00  0.00    +0.000 A 
ATOM     25  C   UNL     1       6.946   5.410  16.626  0.00  0.00    +0.000 A 
BRANCH  25  26
ATOM     26  O   UNL     1       7.893   6.154  17.277  0.00  0.00    +0.000 OA
BRANCH  26  27
ATOM     27  C   UNL     1       7.666   7.544  17.404  0.00  0.00    +0.000 C 
ATOM     28  F   UNL     1       6.334   7.736  17.582  0.00  0.00    +0.000 F 
ATOM     29  F   UNL     1       8.262   7.958  18.549  0.00  0.00    +0.000 F 
ENDBRANCH  26  27
ENDBRANCH  25  26
ENDBRANCH  19  20
ENDBRANCH   3  19
TORSDOF 5
ENDMDL
MODEL 3
REMARK VINA RESULT:      -8.0      1.920      2.785
REMARK  Name = 
REMARK  5 active torsions:
REMARK  status: ('A' for Active; 'I' for Inactive)
REMARK    1  A    between atoms: C_2  and  C_15
REMARK    2  A    between atoms: N_3  and  C_4
REMARK    3  A    between atoms: C_4  and  C_5
REMARK    4  A    between atoms: C_10  and  O_11
REMARK    5  A    between atoms: O_11  and  C_12
REMARK                            x       y       z     vdW  Elec       q    Type
REMARK                         _______ _______ _______ _____ _____    ______ ____
ROOT
ATOM      1  O   UNL     1       1.672   4.354  19.481  0.00  0.00    +0.000 OA
ATOM      2  C   UNL     1       2.643   5.090  19.277  0.00  0.00    +0.000 C 
ATOM      3  N   UNL     1       3.813   4.440  19.049  0.00  0.00    +0.000 N 
ATOM      4  H   UNL     1       3.681   3.434  19.049  0.00  0.00    +0.000 HD
ENDROOT
BRANCH   2   5
ATOM      5  C   UNL     1       2.413   6.571  19.246  0.00  0.00    +0.000 A 
ATOM      6  C   UNL     1       2.093   7.073  20.518  0.00  0.00    +0.000 A 
ATOM      7  C   UNL     1       1.365   8.237  20.649  0.00  0.00    +0.000 A 
ATOM      8  C   UNL     1       1.108   8.967  19.508  0.00  0.00    +0.000 A 
ATOM      9  C   UNL     1       0.259  10.155  19.574  0.00  0.00    +0.000 A 
ATOM     10  O   UNL     1      -0.766  10.157  20.243  0.00  0.00    +0.000 OA
ATOM     11  N   UNL     1       0.800  11.190  18.912  0.00  0.00    +0.000 N 
ATOM     12  C   UNL     1       1.937  11.054  18.137  0.00  0.00    +0.000 A 
ATOM     13  N   UNL     1       2.402   9.922  17.695  0.00  0.00    +0.000 NA
ATOM     14  C   UNL     1       1.868   8.759  18.366  0.00  0.00    +0.000 A 
ATOM     15  C   UNL     1       2.370   7.472  18.164  0.00  0.00    +0.000 A 
ATOM     16  C   UNL     1       2.590  12.417  18.051  0.00  0.00    +0.000 C 
ATOM     17  C   UNL     1       1.937  13.126  19.261  0.00  0.00    +0.000 C 
ATOM     18  C   UNL     1       0.533  12.562  19.259  0.00  0.00    +0.000 C 
ENDBRANCH   2   5
BRANCH   3  19
ATOM     19  C   UNL     1       5.138   4.914  18.780  0.00  0.00    +0.000 C 
BRANCH  19  20
ATOM     20  C   UNL     1       5.552   4.824  17.332  0.00  0.00    +0.000 A 
ATOM     21  C   UNL     1       4.759   4.090  16.416  0.00  0.00    +0.000 A 
ATOM     22  C   UNL     1       5.119   3.957  15.075  0.00  0.00    +0.000 A 
ATOM     23  C   UNL     1       6.292   4.538  14.620  0.00  0.00    +0.000 A 
ATOM     24  C   UNL     1       7.104   5.241  15.508  0.00  0.00    +0.000 A 
ATOM     25  C   UNL     1       6.744   5.398  16.856  0.00  0.00    +0.000 A 
BRANCH  25  26
ATOM     26  O   UNL     1       7.709   6.023  17.601  0.00  0.00    +0.000 OA
BRANCH  26  27
ATOM     27  C   UNL     1       7.810   7.430  17.500  0.00  0.00    +0.000 C 
ATOM     28  F   UNL     1       6.556   7.945  17.555  0.00  0.00    +0.000 F 
ATOM     29  F   UNL     1       8.451   7.879  18.607  0.00  0.00    +0.000 F 
ENDBRANCH  26  27
ENDBRANCH  25  26
ENDBRANCH  19  20
ENDBRANCH   3  19
TORSDOF 5
ENDMDL
MODEL 4
REMARK VINA RESULT:      -7.9      1.101      1.152
REMARK  Name = 
REMARK  5 active torsions:
REMARK  status: ('A' for Active; 'I' for Inactive)
REMARK    1  A    between atoms: C_2  and  C_15
REMARK    2  A    between atoms: N_3  and  C_4
REMARK    3  A    between atoms: C_4  and  C_5
REMARK    4  A    between atoms: C_10  and  O_11
REMARK    5  A    between atoms: O_11  and  C_12
REMARK                            x       y       z     vdW  Elec       q    Type
REMARK                         _______ _______ _______ _____ _____    ______ ____
ROOT
ATOM      1  O   UNL     1       2.098   2.209  18.963  0.00  0.00    +0.000 OA
ATOM      2  C   UNL     1       2.896   3.152  18.965  0.00  0.00    +0.000 C 
ATOM      3  N   UNL     1       4.193   2.802  18.770  0.00  0.00    +0.000 N 
ATOM      4  H   UNL     1       4.285   1.803  18.615  0.00  0.00    +0.000 HD
ENDROOT
BRANCH   2   5
ATOM      5  C   UNL     1       2.350   4.539  19.119  0.00  0.00    +0.000 A 
ATOM      6  C   UNL     1       1.736   4.989  17.938  0.00  0.00    +0.000 A 
ATOM      7  C   UNL     1       1.634   6.338  17.671  0.00  0.00    +0.000 A 
ATOM      8  C   UNL     1       2.000   7.220  18.665  0.00  0.00    +0.000 A 
ATOM      9  C   UNL     1       2.005   8.658  18.404  0.00  0.00    +0.000 A 
ATOM     10  O   UNL     1       2.438   9.103  17.349  0.00  0.00    +0.000 OA
ATOM     11  N   UNL     1       1.411   9.345  19.393  0.00  0.00    +0.000 N 
ATOM     12  C   UNL     1       1.013   8.742  20.572  0.00  0.00    +0.000 A 
ATOM     13  N   UNL     1       1.439   7.587  20.994  0.00  0.00    +0.000 NA
ATOM     14  C   UNL     1       2.085   6.786  19.981  0.00  0.00    +0.000 A 
ATOM     15  C   UNL     1       2.448   5.453  20.186  0.00  0.00    +0.000 A 
ATOM     16  C   UNL     1      -0.096   9.589  21.159  0.00  0.00    +0.000 C 
ATOM     17  C   UNL     1      -0.538  10.390  19.912  0.00  0.00    +0.000 C 
ATOM     18  C   UNL     1       0.768  10.615  19.182  0.00  0.00    +0.000 C 
ENDBRANCH   2   5
BRANCH   3  19
ATOM     19  C   UNL     1       5.397   3.575  18.708  0.00  0.00    +0.000 C 
BRANCH  19  20
ATOM     20  C   UNL     1       5.729   4.105  17.335  0.00  0.00    +0.000 A 
ATOM     21  C   UNL     1       4.826   3.901  16.262  0.00  0.00    +0.000 A 
ATOM     22  C   UNL     1       5.106   4.348  14.971  0.00  0.00    +0.000 A 
ATOM     23  C   UNL     1       6.305   4.993  14.714  0.00  0.00    +0.000 A 
ATOM     24  C   UNL     1       7.224   5.180  15.747  0.00  0.00    +0.000 A 
ATOM     25  C   UNL     1       6.946   4.752  17.054  0.00  0.00    +0.000 A 
BRANCH  25  26
ATOM     26  O   UNL     1       8.001   4.921  17.911  0.00  0.00    +0.000 OA
BRANCH  26  27
ATOM     27  C   UNL     1       7.840   5.833  18.980  0.00  0.00    +0.000 C 
ATOM     28  F   UNL     1       8.604   5.403  20.017  0.00  0.00    +0.000 F 
ATOM     29  F   UNL     1       8.367   7.021  18.593  0.00  0.00    +0.000 F 
ENDBRANCH  26  27
ENDBRANCH  25  26
ENDBRANCH  19  20
ENDBRANCH   3  19
TORSDOF 5
ENDMDL
MODEL 5
REMARK VINA RESULT:      -7.9      1.886      2.486
REMARK  Name = 
REMARK  5 active torsions:
REMARK  status: ('A' for Active; 'I' for Inactive)
REMARK    1  A    between atoms: C_2  and  C_15
REMARK    2  A    between atoms: N_3  and  C_4
REMARK    3  A    between atoms: C_4  and  C_5
REMARK    4  A    between atoms: C_10  and  O_11
REMARK    5  A    between atoms: O_11  and  C_12
REMARK                            x       y       z     vdW  Elec       q    Type
REMARK                         _______ _______ _______ _____ _____    ______ ____
ROOT
ATOM      1  O   UNL     1       3.006   2.823  20.545  0.00  0.00    +0.000 OA
ATOM      2  C   UNL     1       3.302   3.556  19.595  0.00  0.00    +0.000 C 
ATOM      3  N   UNL     1       4.161   3.007  18.699  0.00  0.00    +0.000 N 
ATOM      4  H   UNL     1       4.392   2.051  18.947  0.00  0.00    +0.000 HD
ENDROOT
BRANCH   2   5
ATOM      5  C   UNL     1       2.652   4.903  19.514  0.00  0.00    +0.000 A 
ATOM      6  C   UNL     1       2.117   5.145  18.238  0.00  0.00    +0.000 A 
ATOM      7  C   UNL     1       1.948   6.436  17.782  0.00  0.00    +0.000 A 
ATOM      8  C   UNL     1       2.163   7.466  18.672  0.00  0.00    +0.000 A 
ATOM      9  C   UNL     1       2.094   8.853  18.217  0.00  0.00    +0.000 A 
ATOM     10  O   UNL     1       2.588   9.189  17.149  0.00  0.00    +0.000 OA
ATOM     11  N   UNL     1       1.369   9.615  19.052  0.00  0.00    +0.000 N 
ATOM     12  C   UNL     1       0.909   9.141  20.267  0.00  0.00    +0.000 A 
ATOM     13  N   UNL     1       1.374   8.089  20.876  0.00  0.00    +0.000 NA
ATOM     14  C   UNL     1       2.160   7.216  20.036  0.00  0.00    +0.000 A 
ATOM     15  C   UNL     1       2.593   5.954  20.450  0.00  0.00    +0.000 A 
ATOM     16  C   UNL     1      -0.302   9.967  20.644  0.00  0.00    +0.000 C 
ATOM     17  C   UNL     1      -0.684  10.561  19.268  0.00  0.00    +0.000 C 
ATOM     18  C   UNL     1       0.662  10.792  18.619  0.00  0.00    +0.000 C 
ENDBRANCH   2   5
BRANCH   3  19
ATOM     19  C   UNL     1       4.741   3.515  17.491  0.00  0.00    +0.000 C 
BRANCH  19  20
ATOM     20  C   UNL     1       5.789   4.580  17.700  0.00  0.00    +0.000 A 
ATOM     21  C   UNL     1       6.287   4.833  19.002  0.00  0.00    +0.000 A 
ATOM     22  C   UNL     1       7.234   5.828  19.246  0.00  0.00    +0.000 A 
ATOM     23  C   UNL     1       7.693   6.609  18.197  0.00  0.00    +0.000 A 
ATOM     24  C   UNL     1       7.195   6.399  16.911  0.00  0.00    +0.000 A 
ATOM     25  C   UNL     1       6.256   5.389  16.649  0.00  0.00    +0.000 A 
BRANCH  25  26
ATOM     26  O   UNL     1       5.803   5.398  15.357  0.00  0.00    +0.000 OA
BRANCH  26  27
ATOM     27  C   UNL     1       6.428   4.526  14.434  0.00  0.00    +0.000 C 
ATOM     28  F   UNL     1       5.474   4.052  13.593  0.00  0.00    +0.000 F 
ATOM     29  F   UNL     1       7.268   5.267  13.670  0.00  0.00    +0.000 F 
ENDBRANCH  26  27
ENDBRANCH  25  26
ENDBRANCH  19  20
ENDBRANCH   3  19
TORSDOF 5
ENDMDL
MODEL 6
REMARK VINA RESULT:      -7.8      2.274      4.200
REMARK  Name = 
REMARK  5 active torsions:
REMARK  status: ('A' for Active; 'I' for Inactive)
REMARK    1  A    between atoms: C_2  and  C_15
REMARK    2  A    between atoms: N_3  and  C_4
REMARK    3  A    between atoms: C_4  and  C_5
REMARK    4  A    between atoms: C_10  and  O_11
REMARK    5  A    between atoms: O_11  and  C_12
REMARK                            x       y       z     vdW  Elec       q    Type
REMARK                         _______ _______ _______ _____ _____    ______ ____
ROOT
ATOM      1  O   UNL     1       3.809   7.517  17.384  0.00  0.00    +0.000 OA
ATOM      2  C   UNL     1       2.798   7.082  17.946  0.00  0.00    +0.000 C 
ATOM      3  N   UNL     1       2.555   5.762  17.739  0.00  0.00    +0.000 N 
ATOM      4  H   UNL     1       3.284   5.338  17.174  0.00  0.00    +0.000 HD
ENDROOT
BRANCH   2   5
ATOM      5  C   UNL     1       2.013   8.018  18.813  0.00  0.00    +0.000 A 
ATOM      6  C   UNL     1       1.359   9.003  18.055  0.00  0.00    +0.000 A 
ATOM      7  C   UNL     1       1.028  10.217  18.620  0.00  0.00    +0.000 A 
ATOM      8  C   UNL     1       1.209  10.366  19.978  0.00  0.00    +0.000 A 
ATOM      9  C   UNL     1       0.967  11.661  20.612  0.00  0.00    +0.000 A 
ATOM     10  O   UNL     1       1.341  12.699  20.081  0.00  0.00    +0.000 OA
ATOM     11  N   UNL     1       0.238  11.537  21.733  0.00  0.00    +0.000 N 
ATOM     12  C   UNL     1      -0.076  10.304  22.273  0.00  0.00    +0.000 A 
ATOM     13  N   UNL     1       0.536   9.192  21.988  0.00  0.00    +0.000 NA
ATOM     14  C   UNL     1       1.337   9.246  20.787  0.00  0.00    +0.000 A 
ATOM     15  C   UNL     1       1.923   8.115  20.216  0.00  0.00    +0.000 A 
ATOM     16  C   UNL     1      -1.330  10.483  23.102  0.00  0.00    +0.000 C 
ATOM     17  C   UNL     1      -1.875  11.807  22.518  0.00  0.00    +0.000 C 
ATOM     18  C   UNL     1      -0.613  12.587  22.228  0.00  0.00    +0.000 C 
ENDBRANCH   2   5
BRANCH   3  19
ATOM     19  C   UNL     1       1.511   4.895  18.197  0.00  0.00    +0.000 C 
BRANCH  19  20
ATOM     20  C   UNL     1       1.903   3.998  19.345  0.00  0.00    +0.000 A 
ATOM     21  C   UNL     1       0.984   3.753  20.395  0.00  0.00    +0.000 A 
ATOM     22  C   UNL     1       1.314   2.954  21.489  0.00  0.00    +0.000 A 
ATOM     23  C   UNL     1       2.580   2.395  21.573  0.00  0.00    +0.000 A 
ATOM     24  C   UNL     1       3.512   2.645  20.566  0.00  0.00    +0.000 A 
ATOM     25  C   UNL     1       3.186   3.432  19.450  0.00  0.00    +0.000 A 
BRANCH  25  26
ATOM     26  O   UNL     1       4.253   3.657  18.621  0.00  0.00    +0.000 OA
BRANCH  26  27
ATOM     27  C   UNL     1       5.427   4.202  19.193  0.00  0.00    +0.000 C 
ATOM     28  F   UNL     1       6.362   4.301  18.214  0.00  0.00    +0.000 F 
ATOM     29  F   UNL     1       5.148   5.472  19.578  0.00  0.00    +0.000 F 
ENDBRANCH  26  27
ENDBRANCH  25  26
ENDBRANCH  19  20
ENDBRANCH   3  19
TORSDOF 5
ENDMDL
MODEL 7
REMARK VINA RESULT:      -7.8      2.923      5.156
REMARK  Name = 
REMARK  5 active torsions:
REMARK  status: ('A' for Active; 'I' for Inactive)
REMARK    1  A    between atoms: C_2  and  C_15
REMARK    2  A    between atoms: N_3  and  C_4
REMARK    3  A    between atoms: C_4  and  C_5
REMARK    4  A    between atoms: C_10  and  O_11
REMARK    5  A    between atoms: O_11  and  C_12
REMARK                            x       y       z     vdW  Elec       q    Type
REMARK                         _______ _______ _______ _____ _____    ______ ____
ROOT
ATOM      1  O   UNL     1       2.323   8.960  17.201  0.00  0.00    +0.000 OA
ATOM      2  C   UNL     1       2.040   8.547  18.331  0.00  0.00    +0.000 C 
ATOM      3  N   UNL     1       2.548   7.325  18.635  0.00  0.00    +0.000 N 
ATOM      4  H   UNL     1       3.119   6.965  17.877  0.00  0.00    +0.000 HD
ENDROOT
BRANCH   2   5
ATOM      5  C   UNL     1       1.243   9.442  19.230  0.00  0.00    +0.000 A 
ATOM      6  C   UNL     1       0.826  10.607  18.567  0.00  0.00    +0.000 A 
ATOM      7  C   UNL     1       0.552  11.758  19.276  0.00  0.00    +0.000 A 
ATOM      8  C   UNL     1       0.540  11.677  20.652  0.00  0.00    +0.000 A 
ATOM      9  C   UNL     1       0.352  12.885  21.455  0.00  0.00    +0.000 A 
ATOM     10  O   UNL     1       0.916  13.930  21.158  0.00  0.00    +0.000 OA
ATOM     11  N   UNL     1      -0.548  12.696  22.433  0.00  0.00    +0.000 N 
ATOM     12  C   UNL     1      -1.077  11.450  22.715  0.00  0.00    +0.000 A 
ATOM     13  N   UNL     1      -0.558  10.320  22.333  0.00  0.00    +0.000 NA
ATOM     14  C   UNL     1       0.417  10.443  21.274  0.00  0.00    +0.000 A 
ATOM     15  C   UNL     1       0.953   9.340  20.605  0.00  0.00    +0.000 A 
ATOM     16  C   UNL     1      -2.415  11.671  23.389  0.00  0.00    +0.000 C 
ATOM     17  C   UNL     1      -2.713  13.129  22.966  0.00  0.00    +0.000 C 
ATOM     18  C   UNL     1      -1.341  13.766  22.979  0.00  0.00    +0.000 C 
ENDBRANCH   2   5
BRANCH   3  19
ATOM     19  C   UNL     1       2.452   6.511  19.810  0.00  0.00    +0.000 C 
BRANCH  19  20
ATOM     20  C   UNL     1       1.969   5.104  19.557  0.00  0.00    +0.000 A 
ATOM     21  C   UNL     1       1.269   4.406  20.571  0.00  0.00    +0.000 A 
ATOM     22  C   UNL     1       0.830   3.094  20.391  0.00  0.00    +0.000 A 
ATOM     23  C   UNL     1       1.098   2.440  19.198  0.00  0.00    +0.000 A 
ATOM     24  C   UNL     1       1.811   3.096  18.195  0.00  0.00    +0.000 A 
ATOM     25  C   UNL     1       2.242   4.422  18.357  0.00  0.00    +0.000 A 
BRANCH  25  26
ATOM     26  O   UNL     1       3.016   4.867  17.319  0.00  0.00    +0.000 OA
BRANCH  26  27
ATOM     27  C   UNL     1       4.194   4.143  17.020  0.00  0.00    +0.000 C 
ATOM     28  F   UNL     1       4.847   4.798  16.026  0.00  0.00    +0.000 F 
ATOM     29  F   UNL     1       5.004   4.205  18.106  0.00  0.00    +0.000 F 
ENDBRANCH  26  27
ENDBRANCH  25  26
ENDBRANCH  19  20
ENDBRANCH   3  19
TORSDOF 5
ENDMDL
MODEL 8
REMARK VINA RESULT:      -7.8      2.739      3.854
REMARK  Name = 
REMARK  5 active torsions:
REMARK  status: ('A' for Active; 'I' for Inactive)
REMARK    1  A    between atoms: C_2  and  C_15
REMARK    2  A    between atoms: N_3  and  C_4
REMARK    3  A    between atoms: C_4  and  C_5
REMARK    4  A    between atoms: C_10  and  O_11
REMARK    5  A    between atoms: O_11  and  C_12
REMARK                            x       y       z     vdW  Elec       q    Type
REMARK                         _______ _______ _______ _____ _____    ______ ____
ROOT
ATOM      1  O   UNL     1       1.214   5.254  20.677  0.00  0.00    +0.000 OA
ATOM      2  C   UNL     1       2.167   5.916  20.254  0.00  0.00    +0.000 C 
ATOM      3  N   UNL     1       3.300   5.204  20.026  0.00  0.00    +0.000 N 
ATOM      4  H   UNL     1       3.158   4.216  20.213  0.00  0.00    +0.000 HD
ENDROOT
BRANCH   2   5
ATOM      5  C   UNL     1       1.951   7.376  19.990  0.00  0.00    +0.000 A 
ATOM      6  C   UNL     1       1.391   8.027  21.102  0.00  0.00    +0.000 A 
ATOM      7  C   UNL     1       0.654   9.181  20.940  0.00  0.00    +0.000 A 
ATOM      8  C   UNL     1       0.627   9.756  19.688  0.00  0.00    +0.000 A 
ATOM      9  C   UNL     1      -0.216  10.924  19.436  0.00  0.00    +0.000 A 
ATOM     10  O   UNL     1      -1.352  10.987  19.887  0.00  0.00    +0.000 OA
ATOM     11  N   UNL     1       0.446  11.880  18.765  0.00  0.00    +0.000 N 
ATOM     12  C   UNL     1       1.712  11.673  18.248  0.00  0.00    +0.000 A 
ATOM     13  N   UNL     1       2.251  10.505  18.052  0.00  0.00    +0.000 NA
ATOM     14  C   UNL     1       1.594   9.424  18.750  0.00  0.00    +0.000 A 
ATOM     15  C   UNL     1       2.122   8.133  18.815  0.00  0.00    +0.000 A 
ATOM     16  C   UNL     1       2.372  13.029  18.118  0.00  0.00    +0.000 C 
ATOM     17  C   UNL     1       1.498  13.869  19.078  0.00  0.00    +0.000 C 
ATOM     18  C   UNL     1       0.120  13.278  18.876  0.00  0.00    +0.000 C 
ENDBRANCH   2   5
BRANCH   3  19
ATOM     19  C   UNL     1       4.596   5.587  19.550  0.00  0.00    +0.000 C 
BRANCH  19  20
ATOM     20  C   UNL     1       4.828   5.313  18.084  0.00  0.00    +0.000 A 
ATOM     21  C   UNL     1       5.219   6.367  17.223  0.00  0.00    +0.000 A 
ATOM     22  C   UNL     1       5.417   6.165  15.857  0.00  0.00    +0.000 A 
ATOM     23  C   UNL     1       5.209   4.907  15.313  0.00  0.00    +0.000 A 
ATOM     24  C   UNL     1       4.796   3.859  16.136  0.00  0.00    +0.000 A 
ATOM     25  C   UNL     1       4.612   4.045  17.515  0.00  0.00    +0.000 A 
BRANCH  25  26
ATOM     26  O   UNL     1       4.104   2.940  18.143  0.00  0.00    +0.000 OA
BRANCH  26  27
ATOM     27  C   UNL     1       2.707   2.725  18.070  0.00  0.00    +0.000 C 
ATOM     28  F   UNL     1       2.482   1.731  17.174  0.00  0.00    +0.000 F 
ATOM     29  F   UNL     1       2.299   2.249  19.272  0.00  0.00    +0.000 F 
ENDBRANCH  26  27
ENDBRANCH  25  26
ENDBRANCH  19  20
ENDBRANCH   3  19
TORSDOF 5
ENDMDL
MODEL 9
REMARK VINA RESULT:      -7.7      2.292      3.508
REMARK  Name = 
REMARK  5 active torsions:
REMARK  status: ('A' for Active; 'I' for Inactive)
REMARK    1  A    between atoms: C_2  and  C_15
REMARK    2  A    between atoms: N_3  and  C_4
REMARK    3  A    between atoms: C_4  and  C_5
REMARK    4  A    between atoms: C_10  and  O_11
REMARK    5  A    between atoms: O_11  and  C_12
REMARK                            x       y       z     vdW  Elec       q    Type
REMARK                         _______ _______ _______ _____ _____    ______ ____
ROOT
ATOM      1  O   UNL     1       1.772   4.852  20.779  0.00  0.00    +0.000 OA
ATOM      2  C   UNL     1       2.289   5.383  19.791  0.00  0.00    +0.000 C 
ATOM      3  N   UNL     1       2.901   4.523  18.936  0.00  0.00    +0.000 N 
ATOM      4  H   UNL     1       2.796   3.562  19.243  0.00  0.00    +0.000 HD
ENDROOT
BRANCH   2   5
ATOM      5  C   UNL     1       2.134   6.864  19.623  0.00  0.00    +0.000 A 
ATOM      6  C   UNL     1       1.754   7.486  20.823  0.00  0.00    +0.000 A 
ATOM      7  C   UNL     1       1.076   8.687  20.807  0.00  0.00    +0.000 A 
ATOM      8  C   UNL     1       0.932   9.328  19.595  0.00  0.00    +0.000 A 
ATOM      9  C   UNL     1       0.139  10.553  19.504  0.00  0.00    +0.000 A 
ATOM     10  O   UNL     1      -0.927  10.656  20.096  0.00  0.00    +0.000 OA
ATOM     11  N   UNL     1       0.774  11.504  18.800  0.00  0.00    +0.000 N 
ATOM     12  C   UNL     1       1.952  11.254  18.120  0.00  0.00    +0.000 A 
ATOM     13  N   UNL     1       2.389  10.069  17.806  0.00  0.00    +0.000 NA
ATOM     14  C   UNL     1       1.756   8.992  18.530  0.00  0.00    +0.000 A 
ATOM     15  C   UNL     1       2.207   7.671  18.470  0.00  0.00    +0.000 A 
ATOM     16  C   UNL     1       2.674  12.576  17.970  0.00  0.00    +0.000 C 
ATOM     17  C   UNL     1       1.977  13.411  19.069  0.00  0.00    +0.000 C 
ATOM     18  C   UNL     1       0.551  12.910  19.013  0.00  0.00    +0.000 C 
ENDBRANCH   2   5
BRANCH   3  19
ATOM     19  C   UNL     1       3.605   4.731  17.706  0.00  0.00    +0.000 C 
BRANCH  19  20
ATOM     20  C   UNL     1       5.046   5.146  17.874  0.00  0.00    +0.000 A 
ATOM     21  C   UNL     1       5.621   5.193  19.168  0.00  0.00    +0.000 A 
ATOM     22  C   UNL     1       6.940   5.598  19.372  0.00  0.00    +0.000 A 
ATOM     23  C   UNL     1       7.713   5.985  18.289  0.00  0.00    +0.000 A 
ATOM     24  C   UNL     1       7.161   5.975  17.008  0.00  0.00    +0.000 A 
ATOM     25  C   UNL     1       5.841   5.552  16.787  0.00  0.00    +0.000 A 
BRANCH  25  26
ATOM     26  O   UNL     1       5.436   5.709  15.488  0.00  0.00    +0.000 OA
BRANCH  26  27
ATOM     27  C   UNL     1       5.716   4.662  14.580  0.00  0.00    +0.000 C 
ATOM     28  F   UNL     1       6.865   4.971  13.925  0.00  0.00    +0.000 F 
ATOM     29  F   UNL     1       5.984   3.547  15.304  0.00  0.00    +0.000 F 
ENDBRANCH  26  27
ENDBRANCH  25  26
ENDBRANCH  19  20
ENDBRANCH   3  19
TORSDOF 5
ENDMDL
