MODEL 1
REMARK VINA RESULT:      -8.8      0.000      0.000
REMARK  Name = 
REMARK  5 active torsions:
REMARK  status: ('A' for Active; 'I' for Inactive)
REMARK    1  A    between atoms: C_1  and  O_2
REMARK    2  A    between atoms: O_2  and  C_3
REMARK    3  A    between atoms: C_3  and  C_5
REMARK    4  A    between atoms: C_9  and  C_11
REMARK    5  A    between atoms: C_13  and  C_14
REMARK                            x       y       z     vdW  Elec       q    Type
REMARK                         _______ _______ _______ _____ _____    ______ ____
ROOT
ATOM      1  C   UNL     1       2.937   3.993  18.675  0.00  0.00    +0.000 C 
ATOM      2  C   UNL     1       1.947   4.775  19.525  0.00  0.00    +0.000 C 
ATOM      3  C   UNL     1       2.541   6.105  19.920  0.00  0.00    +0.000 C 
ATOM      4  N   UNL     1       2.811   6.930  18.731  0.00  0.00    +0.000 N 
ATOM      5  C   UNL     1       2.244   8.209  18.514  0.00  0.00    +0.000 C 
ATOM      6  O   UNL     1       2.312   8.804  17.439  0.00  0.00    +0.000 OA
ATOM      7  C   UNL     1       3.625   6.281  17.734  0.00  0.00    +0.000 A 
ATOM      8  C   UNL     1       4.366   7.011  16.792  0.00  0.00    +0.000 A 
ATOM      9  C   UNL     1       5.186   6.374  15.856  0.00  0.00    +0.000 A 
ATOM     10  C   UNL     1       5.297   4.991  15.858  0.00  0.00    +0.000 A 
ATOM     11  C   UNL     1       4.581   4.244  16.785  0.00  0.00    +0.000 A 
ATOM     12  C   UNL     1       3.723   4.871  17.713  0.00  0.00    +0.000 A 
ENDROOT
BRANCH   5  13
ATOM     13  C   UNL     1       1.438   8.830  19.578  0.00  0.00    +0.000 A 
ATOM     14  C   UNL     1       0.569   9.942  19.402  0.00  0.00    +0.000 A 
ATOM     15  C   UNL     1       0.017  10.165  20.640  0.00  0.00    +0.000 A 
ATOM     16  O   UNL     1       0.539   9.259  21.512  0.00  0.00    +0.000 OA
ATOM     17  N   UNL     1       1.468   8.470  20.869  0.00  0.00    +0.000 NA
BRANCH  15  18
ATOM     18  C   UNL     1      -0.905  11.146  21.195  0.00  0.00    +0.000 A 
ATOM     19  C   UNL     1      -1.086  11.236  22.584  0.00  0.00    +0.000 A 
ATOM     20  C   UNL     1      -2.049  12.094  23.122  0.00  0.00    +0.000 A 
ATOM     21  C   UNL     1      -2.822  12.873  22.271  0.00  0.00    +0.000 A 
ATOM     22  F   UNL     1      -3.767  13.669  22.784  0.00  0.00    +0.000 F 
ATOM     23  C   UNL     1      -2.635  12.830  20.896  0.00  0.00    +0.000 A 
ATOM     24  C   UNL     1      -1.673  11.973  20.359  0.00  0.00    +0.000 A 
ENDBRANCH  15  18
ENDBRANCH   5  13
BRANCH   1  25
ATOM     25  C   UNL     1       2.143   2.877  18.021  0.00  0.00    +0.000 C 
ATOM     26  O   UNL     1       0.947   2.972  17.763  0.00  0.00    +0.000 OA
BRANCH  25  28
ATOM     27  C   UNL     1       3.673   1.255  18.750  0.00  0.00    +0.000 C 
ATOM     28  O   UNL     1       2.925   1.821  17.673  0.00  0.00    +0.000 OA
ENDBRANCH  25  28
ENDBRANCH   1  25
TORSDOF 4
ENDMDL
MODEL 2
REMARK VINA RESULT:      -8.7      3.908      9.015
REMARK  Name = 
REMARK  5 active torsions:
REMARK  status: ('A' for Active; 'I' for Inactive)
REMARK    1  A    between atoms: C_1  and  O_2
REMARK    2  A    between atoms: O_2  and  C_3
REMARK    3  A    between atoms: C_3  and  C_5
REMARK    4  A    between atoms: C_9  and  C_11
REMARK    5  A    between atoms: C_13  and  C_14
REMARK                            x       y       z     vdW  Elec       q    Type
REMARK                         _______ _______ _______ _____ _____    ______ ____
ROOT
ATOM      1  C   UNL     1       0.138  10.573  18.797  0.00  0.00    +0.000 C 
ATOM      2  C   UNL     1       0.707   9.514  17.866  0.00  0.00    +0.000 C 
ATOM      3  C   UNL     1       1.938   8.893  18.480  0.00  0.00    +0.000 C 
ATOM      4  N   UNL     1       1.604   8.204  19.738  0.00  0.00    +0.000 N 
ATOM      5  C   UNL     1       1.834   6.826  19.967  0.00  0.00    +0.000 C 
ATOM      6  O   UNL     1       1.375   6.218  20.933  0.00  0.00    +0.000 OA
ATOM      7  C   UNL     1       0.914   9.031  20.697  0.00  0.00    +0.000 A 
ATOM      8  C   UNL     1       0.928   8.740  22.070  0.00  0.00    +0.000 A 
ATOM      9  C   UNL     1       0.291   9.570  22.997  0.00  0.00    +0.000 A 
ATOM     10  C   UNL     1      -0.356  10.721  22.571  0.00  0.00    +0.000 A 
ATOM     11  C   UNL     1      -0.377  11.036  21.218  0.00  0.00    +0.000 A 
ATOM     12  C   UNL     1       0.231  10.191  20.267  0.00  0.00    +0.000 A 
ENDROOT
BRANCH   5  13
ATOM     13  C   UNL     1       2.562   6.039  18.959  0.00  0.00    +0.000 A 
ATOM     14  C   UNL     1       3.730   6.470  18.273  0.00  0.00    +0.000 A 
ATOM     15  C   UNL     1       4.073   5.422  17.454  0.00  0.00    +0.000 A 
ATOM     16  O   UNL     1       3.154   4.431  17.620  0.00  0.00    +0.000 OA
ATOM     17  N   UNL     1       2.181   4.836  18.507  0.00  0.00    +0.000 NA
BRANCH  15  18
ATOM     18  C   UNL     1       5.112   5.187  16.462  0.00  0.00    +0.000 A 
ATOM     19  C   UNL     1       6.374   5.784  16.608  0.00  0.00    +0.000 A 
ATOM     20  C   UNL     1       7.342   5.657  15.607  0.00  0.00    +0.000 A 
ATOM     21  C   UNL     1       7.051   4.922  14.465  0.00  0.00    +0.000 A 
ATOM     22  F   UNL     1       7.964   4.830  13.492  0.00  0.00    +0.000 F 
ATOM     23  C   UNL     1       5.824   4.290  14.314  0.00  0.00    +0.000 A 
ATOM     24  C   UNL     1       4.858   4.417  15.314  0.00  0.00    +0.000 A 
ENDBRANCH  15  18
ENDBRANCH   5  13
BRANCH   1  25
ATOM     25  C   UNL     1      -1.267  10.863  18.299  0.00  0.00    +0.000 C 
ATOM     26  O   UNL     1      -1.639  11.986  17.971  0.00  0.00    +0.000 OA
BRANCH  25  28
ATOM     27  C   UNL     1      -3.286   9.933  17.551  0.00  0.00    +0.000 C 
ATOM     28  O   UNL     1      -2.014   9.735  18.168  0.00  0.00    +0.000 OA
ENDBRANCH  25  28
ENDBRANCH   1  25
TORSDOF 4
ENDMDL
MODEL 3
REMARK VINA RESULT:      -8.7      2.049      2.573
REMARK  Name = 
REMARK  5 active torsions:
REMARK  status: ('A' for Active; 'I' for Inactive)
REMARK    1  A    between atoms: C_1  and  O_2
REMARK    2  A    between atoms: O_2  and  C_3
REMARK    3  A    between atoms: C_3  and  C_5
REMARK    4  A    between atoms: C_9  and  C_11
REMARK    5  A    between atoms: C_13  and  C_14
REMARK                            x       y       z     vdW  Elec       q    Type
REMARK                         _______ _______ _______ _____ _____    ______ ____
ROOT
ATOM      1  C   UNL     1       2.248   5.180  20.684  0.00  0.00    +0.000 C 
ATOM      2  C   UNL     1       1.188   6.269  20.757  0.00  0.00    +0.000 C 
ATOM      3  C   UNL     1       1.811   7.616  20.488  0.00  0.00    +0.000 C 
ATOM      4  N   UNL     1       2.371   7.672  19.128  0.00  0.00    +0.000 N 
ATOM      5  C   UNL     1       1.969   8.611  18.148  0.00  0.00    +0.000 C 
ATOM      6  O   UNL     1       2.290   8.528  16.963  0.00  0.00    +0.000 OA
ATOM      7  C   UNL     1       3.299   6.609  18.828  0.00  0.00    +0.000 A 
ATOM      8  C   UNL     1       4.265   6.732  17.817  0.00  0.00    +0.000 A 
ATOM      9  C   UNL     1       5.187   5.713  17.562  0.00  0.00    +0.000 A 
ATOM     10  C   UNL     1       5.174   4.557  18.329  0.00  0.00    +0.000 A 
ATOM     11  C   UNL     1       4.234   4.413  19.341  0.00  0.00    +0.000 A 
ATOM     12  C   UNL     1       3.275   5.417  19.588  0.00  0.00    +0.000 A 
ENDROOT
BRANCH   5  13
ATOM     13  C   UNL     1       1.035   9.685  18.519  0.00  0.00    +0.000 A 
ATOM     14  C   UNL     1      -0.378   9.627  18.373  0.00  0.00    +0.000 A 
ATOM     15  C   UNL     1      -0.839  10.827  18.860  0.00  0.00    +0.000 A 
ATOM     16  O   UNL     1       0.233  11.570  19.251  0.00  0.00    +0.000 OA
ATOM     17  N   UNL     1       1.400  10.890  18.983  0.00  0.00    +0.000 NA
BRANCH  15  18
ATOM     18  C   UNL     1      -2.146  11.456  18.978  0.00  0.00    +0.000 A 
ATOM     19  C   UNL     1      -2.406  12.349  20.031  0.00  0.00    +0.000 A 
ATOM     20  C   UNL     1      -3.688  12.872  20.220  0.00  0.00    +0.000 A 
ATOM     21  C   UNL     1      -4.708  12.513  19.349  0.00  0.00    +0.000 A 
ATOM     22  F   UNL     1      -5.943  12.987  19.551  0.00  0.00    +0.000 F 
ATOM     23  C   UNL     1      -4.467  11.663  18.278  0.00  0.00    +0.000 A 
ATOM     24  C   UNL     1      -3.187  11.140  18.089  0.00  0.00    +0.000 A 
ENDBRANCH  15  18
ENDBRANCH   5  13
BRANCH   1  25
ATOM     25  C   UNL     1       1.497   3.864  20.585  0.00  0.00    +0.000 C 
ATOM     26  O   UNL     1       1.497   3.027  21.483  0.00  0.00    +0.000 OA
BRANCH  25  28
ATOM     27  C   UNL     1       0.766   2.483  18.836  0.00  0.00    +0.000 C 
ATOM     28  O   UNL     1       0.759   3.774  19.447  0.00  0.00    +0.000 OA
ENDBRANCH  25  28
ENDBRANCH   1  25
TORSDOF 4
ENDMDL
MODEL 4
REMARK VINA RESULT:      -8.6      1.595      1.912
REMARK  Name = 
REMARK  5 active torsions:
REMARK  status: ('A' for Active; 'I' for Inactive)
REMARK    1  A    between atoms: C_1  and  O_2
REMARK    2  A    between atoms: O_2  and  C_3
REMARK    3  A    between atoms: C_3  and  C_5
REMARK    4  A    between atoms: C_9  and  C_11
REMARK    5  A    between atoms: C_13  and  C_14
REMARK                            x       y       z     vdW  Elec       q    Type
REMARK                         _______ _______ _______ _____ _____    ______ ____
ROOT
ATOM      1  C   UNL     1       2.161   5.251  20.374  0.00  0.00    +0.000 C 
ATOM      2  C   UNL     1       1.259   6.402  20.793  0.00  0.00    +0.000 C 
ATOM      3  C   UNL     1       1.973   7.717  20.598  0.00  0.00    +0.000 C 
ATOM      4  N   UNL     1       2.290   7.934  19.177  0.00  0.00    +0.000 N 
ATOM      5  C   UNL     1       1.831   9.044  18.428  0.00  0.00    +0.000 C 
ATOM      6  O   UNL     1       1.930   9.118  17.204  0.00  0.00    +0.000 OA
ATOM      7  C   UNL     1       3.026   6.855  18.566  0.00  0.00    +0.000 A 
ATOM      8  C   UNL     1       3.809   7.050  17.417  0.00  0.00    +0.000 A 
ATOM      9  C   UNL     1       4.553   6.008  16.856  0.00  0.00    +0.000 A 
ATOM     10  C   UNL     1       4.544   4.752  17.446  0.00  0.00    +0.000 A 
ATOM     11  C   UNL     1       3.784   4.535  18.589  0.00  0.00    +0.000 A 
ATOM     12  C   UNL     1       3.001   5.566  19.146  0.00  0.00    +0.000 A 
ENDROOT
BRANCH   5  13
ATOM     13  C   UNL     1       1.103  10.124  19.112  0.00  0.00    +0.000 A 
ATOM     14  C   UNL     1      -0.117   9.964  19.825  0.00  0.00    +0.000 A 
ATOM     15  C   UNL     1      -0.417  11.215  20.308  0.00  0.00    +0.000 A 
ATOM     16  O   UNL     1       0.549  12.078  19.890  0.00  0.00    +0.000 OA
ATOM     17  N   UNL     1       1.460  11.417  19.096  0.00  0.00    +0.000 NA
BRANCH  15  18
ATOM     18  C   UNL     1      -1.516  11.787  21.071  0.00  0.00    +0.000 A 
ATOM     19  C   UNL     1      -1.557  11.641  22.467  0.00  0.00    +0.000 A 
ATOM     20  C   UNL     1      -2.662  12.088  23.198  0.00  0.00    +0.000 A 
ATOM     21  C   UNL     1      -3.721  12.693  22.534  0.00  0.00    +0.000 A 
ATOM     22  F   UNL     1      -4.792  13.090  23.229  0.00  0.00    +0.000 F 
ATOM     23  C   UNL     1      -3.687  12.885  21.160  0.00  0.00    +0.000 A 
ATOM     24  C   UNL     1      -2.583  12.439  20.429  0.00  0.00    +0.000 A 
ENDBRANCH  15  18
ENDBRANCH   5  13
BRANCH   1  25
ATOM     25  C   UNL     1       1.261   4.036  20.240  0.00  0.00    +0.000 C 
ATOM     26  O   UNL     1       0.682   3.747  19.197  0.00  0.00    +0.000 OA
BRANCH  25  28
ATOM     27  C   UNL     1       2.503   2.639  21.657  0.00  0.00    +0.000 C 
ATOM     28  O   UNL     1       1.255   3.269  21.362  0.00  0.00    +0.000 OA
ENDBRANCH  25  28
ENDBRANCH   1  25
TORSDOF 4
ENDMDL
MODEL 5
REMARK VINA RESULT:      -8.6      3.923      9.100
REMARK  Name = 
REMARK  5 active torsions:
REMARK  status: ('A' for Active; 'I' for Inactive)
REMARK    1  A    between atoms: C_1  and  O_2
REMARK    2  A    between atoms: O_2  and  C_3
REMARK    3  A    between atoms: C_3  and  C_5
REMARK    4  A    between atoms: C_9  and  C_11
REMARK    5  A    between atoms: C_13  and  C_14
REMARK                            x       y       z     vdW  Elec       q    Type
REMARK                         _______ _______ _______ _____ _____    ______ ____
ROOT
ATOM      1  C   UNL     1       0.138  10.502  18.783  0.00  0.00    +0.000 C 
ATOM      2  C   UNL     1       0.712   9.454  17.843  0.00  0.00    +0.000 C 
ATOM      3  C   UNL     1       1.955   8.845  18.443  0.00  0.00    +0.000 C 
ATOM      4  N   UNL     1       1.641   8.148  19.701  0.00  0.00    +0.000 N 
ATOM      5  C   UNL     1       1.889   6.772  19.923  0.00  0.00    +0.000 C 
ATOM      6  O   UNL     1       1.447   6.155  20.891  0.00  0.00    +0.000 OA
ATOM      7  C   UNL     1       0.950   8.963  20.670  0.00  0.00    +0.000 A 
ATOM      8  C   UNL     1       0.979   8.667  22.042  0.00  0.00    +0.000 A 
ATOM      9  C   UNL     1       0.341   9.486  22.978  0.00  0.00    +0.000 A 
ATOM     10  C   UNL     1      -0.323  10.631  22.561  0.00  0.00    +0.000 A 
ATOM     11  C   UNL     1      -0.360  10.951  21.209  0.00  0.00    +0.000 A 
ATOM     12  C   UNL     1       0.249  10.116  20.250  0.00  0.00    +0.000 A 
ENDROOT
BRANCH   5  13
ATOM     13  C   UNL     1       2.618   5.998  18.906  0.00  0.00    +0.000 A 
ATOM     14  C   UNL     1       3.778   6.443  18.215  0.00  0.00    +0.000 A 
ATOM     15  C   UNL     1       4.124   5.402  17.388  0.00  0.00    +0.000 A 
ATOM     16  O   UNL     1       3.215   4.403  17.553  0.00  0.00    +0.000 OA
ATOM     17  N   UNL     1       2.244   4.794  18.448  0.00  0.00    +0.000 NA
BRANCH  15  18
ATOM     18  C   UNL     1       5.159   5.182  16.388  0.00  0.00    +0.000 A 
ATOM     19  C   UNL     1       6.407   5.812  16.514  0.00  0.00    +0.000 A 
ATOM     20  C   UNL     1       7.367   5.698  15.505  0.00  0.00    +0.000 A 
ATOM     21  C   UNL     1       7.084   4.944  14.374  0.00  0.00    +0.000 A 
ATOM     22  F   UNL     1       7.990   4.863  13.393  0.00  0.00    +0.000 F 
ATOM     23  C   UNL     1       5.873   4.279  14.243  0.00  0.00    +0.000 A 
ATOM     24  C   UNL     1       4.913   4.393  15.252  0.00  0.00    +0.000 A 
ENDBRANCH  15  18
ENDBRANCH   5  13
BRANCH   1  25
ATOM     25  C   UNL     1      -1.274  10.778  18.298  0.00  0.00    +0.000 C 
ATOM     26  O   UNL     1      -2.205   9.998  18.479  0.00  0.00    +0.000 OA
BRANCH  25  28
ATOM     27  C   UNL     1      -0.541  13.006  18.300  0.00  0.00    +0.000 C 
ATOM     28  O   UNL     1      -1.399  12.011  17.740  0.00  0.00    +0.000 OA
ENDBRANCH  25  28
ENDBRANCH   1  25
TORSDOF 4
ENDMDL
MODEL 6
REMARK VINA RESULT:      -8.6      0.727      1.399
REMARK  Name = 
REMARK  5 active torsions:
REMARK  status: ('A' for Active; 'I' for Inactive)
REMARK    1  A    between atoms: C_1  and  O_2
REMARK    2  A    between atoms: O_2  and  C_3
REMARK    3  A    between atoms: C_3  and  C_5
REMARK    4  A    between atoms: C_9  and  C_11
REMARK    5  A    between atoms: C_13  and  C_14
REMARK                            x       y       z     vdW  Elec       q    Type
REMARK                         _______ _______ _______ _____ _____    ______ ____
ROOT
ATOM      1  C   UNL     1       3.701   3.728  18.689  0.00  0.00    +0.000 C 
ATOM      2  C   UNL     1       2.705   4.456  19.577  0.00  0.00    +0.000 C 
ATOM      3  C   UNL     1       3.171   5.869  19.828  0.00  0.00    +0.000 C 
ATOM      4  N   UNL     1       3.238   6.628  18.569  0.00  0.00    +0.000 N 
ATOM      5  C   UNL     1       2.508   7.817  18.326  0.00  0.00    +0.000 C 
ATOM      6  O   UNL     1       2.413   8.334  17.213  0.00  0.00    +0.000 OA
ATOM      7  C   UNL     1       4.033   6.001  17.543  0.00  0.00    +0.000 A 
ATOM      8  C   UNL     1       4.599   6.737  16.490  0.00  0.00    +0.000 A 
ATOM      9  C   UNL     1       5.404   6.127  15.524  0.00  0.00    +0.000 A 
ATOM     10  C   UNL     1       5.676   4.768  15.603  0.00  0.00    +0.000 A 
ATOM     11  C   UNL     1       5.135   4.018  16.640  0.00  0.00    +0.000 A 
ATOM     12  C   UNL     1       4.293   4.613  17.602  0.00  0.00    +0.000 A 
ENDROOT
BRANCH   5  13
ATOM     13  C   UNL     1       1.731   8.422  19.418  0.00  0.00    +0.000 A 
ATOM     14  C   UNL     1       0.897   9.568  19.293  0.00  0.00    +0.000 A 
ATOM     15  C   UNL     1       0.361   9.760  20.543  0.00  0.00    +0.000 A 
ATOM     16  O   UNL     1       0.860   8.805  21.375  0.00  0.00    +0.000 OA
ATOM     17  N   UNL     1       1.757   8.011  20.695  0.00  0.00    +0.000 NA
BRANCH  15  18
ATOM     18  C   UNL     1      -0.524  10.748  21.143  0.00  0.00    +0.000 A 
ATOM     19  C   UNL     1      -1.112  11.743  20.347  0.00  0.00    +0.000 A 
ATOM     20  C   UNL     1      -1.873  12.762  20.927  0.00  0.00    +0.000 A 
ATOM     21  C   UNL     1      -2.056  12.779  22.303  0.00  0.00    +0.000 A 
ATOM     22  F   UNL     1      -2.755  13.773  22.862  0.00  0.00    +0.000 F 
ATOM     23  C   UNL     1      -1.517  11.785  23.108  0.00  0.00    +0.000 A 
ATOM     24  C   UNL     1      -0.757  10.767  22.528  0.00  0.00    +0.000 A 
ENDBRANCH  15  18
ENDBRANCH   5  13
BRANCH   1  25
ATOM     25  C   UNL     1       2.990   2.484  18.185  0.00  0.00    +0.000 C 
ATOM     26  O   UNL     1       3.495   1.366  18.223  0.00  0.00    +0.000 OA
BRANCH  25  28
ATOM     27  C   UNL     1       0.707   2.172  18.623  0.00  0.00    +0.000 C 
ATOM     28  O   UNL     1       1.716   2.742  17.788  0.00  0.00    +0.000 OA
ENDBRANCH  25  28
ENDBRANCH   1  25
TORSDOF 4
ENDMDL
MODEL 7
REMARK VINA RESULT:      -8.6      1.710      2.134
REMARK  Name = 
REMARK  5 active torsions:
REMARK  status: ('A' for Active; 'I' for Inactive)
REMARK    1  A    between atoms: C_1  and  O_2
REMARK    2  A    between atoms: O_2  and  C_3
REMARK    3  A    between atoms: C_3  and  C_5
REMARK    4  A    between atoms: C_9  and  C_11
REMARK    5  A    between atoms: C_13  and  C_14
REMARK                            x       y       z     vdW  Elec       q    Type
REMARK                         _______ _______ _______ _____ _____    ______ ____
ROOT
ATOM      1  C   UNL     1       2.139   5.145  20.224  0.00  0.00    +0.000 C 
ATOM      2  C   UNL     1       1.126   6.224  20.577  0.00  0.00    +0.000 C 
ATOM      3  C   UNL     1       1.768   7.586  20.489  0.00  0.00    +0.000 C 
ATOM      4  N   UNL     1       2.212   7.867  19.115  0.00  0.00    +0.000 N 
ATOM      5  C   UNL     1       1.761   8.970  18.350  0.00  0.00    +0.000 C 
ATOM      6  O   UNL     1       1.977   9.090  17.145  0.00  0.00    +0.000 OA
ATOM      7  C   UNL     1       3.076   6.857  18.555  0.00  0.00    +0.000 A 
ATOM      8  C   UNL     1       3.956   7.137  17.498  0.00  0.00    +0.000 A 
ATOM      9  C   UNL     1       4.819   6.162  16.991  0.00  0.00    +0.000 A 
ATOM     10  C   UNL     1       4.833   4.890  17.544  0.00  0.00    +0.000 A 
ATOM     11  C   UNL     1       3.977   4.589  18.597  0.00  0.00    +0.000 A 
ATOM     12  C   UNL     1       3.076   5.551  19.097  0.00  0.00    +0.000 A 
ENDROOT
BRANCH   5  13
ATOM     13  C   UNL     1       0.898   9.980  18.983  0.00  0.00    +0.000 A 
ATOM     14  C   UNL     1      -0.498  10.126  18.750  0.00  0.00    +0.000 A 
ATOM     15  C   UNL     1      -0.889  11.168  19.555  0.00  0.00    +0.000 A 
ATOM     16  O   UNL     1       0.206  11.635  20.215  0.00  0.00    +0.000 OA
ATOM     17  N   UNL     1       1.327  10.941  19.815  0.00  0.00    +0.000 NA
BRANCH  15  18
ATOM     18  C   UNL     1      -2.141  11.873  19.791  0.00  0.00    +0.000 A 
ATOM     19  C   UNL     1      -2.290  12.684  20.927  0.00  0.00    +0.000 A 
ATOM     20  C   UNL     1      -3.521  13.276  21.222  0.00  0.00    +0.000 A 
ATOM     21  C   UNL     1      -4.601  13.068  20.373  0.00  0.00    +0.000 A 
ATOM     22  F   UNL     1      -5.788  13.607  20.674  0.00  0.00    +0.000 F 
ATOM     23  C   UNL     1      -4.468  12.303  19.223  0.00  0.00    +0.000 A 
ATOM     24  C   UNL     1      -3.238  11.712  18.928  0.00  0.00    +0.000 A 
ENDBRANCH  15  18
ENDBRANCH   5  13
BRANCH   1  25
ATOM     25  C   UNL     1       1.338   3.881  19.966  0.00  0.00    +0.000 C 
ATOM     26  O   UNL     1       0.933   3.564  18.852  0.00  0.00    +0.000 OA
BRANCH  25  28
ATOM     27  C   UNL     1       2.454   2.739  21.685  0.00  0.00    +0.000 C 
ATOM     28  O   UNL     1       1.215   3.111  21.080  0.00  0.00    +0.000 OA
ENDBRANCH  25  28
ENDBRANCH   1  25
TORSDOF 4
ENDMDL
MODEL 8
REMARK VINA RESULT:      -8.5      2.206      3.382
REMARK  Name = 
REMARK  5 active torsions:
REMARK  status: ('A' for Active; 'I' for Inactive)
REMARK    1  A    between atoms: C_1  and  O_2
REMARK    2  A    between atoms: O_2  and  C_3
REMARK    3  A    between atoms: C_3  and  C_5
REMARK    4  A    between atoms: C_9  and  C_11
REMARK    5  A    between atoms: C_13  and  C_14
REMARK                            x       y       z     vdW  Elec       q    Type
REMARK                         _______ _______ _______ _____ _____    ______ ____
ROOT
ATOM      1  C   UNL     1       5.034   5.002  17.235  0.00  0.00    +0.000 C 
ATOM      2  C   UNL     1       4.712   6.424  17.667  0.00  0.00    +0.000 C 
ATOM      3  C   UNL     1       3.219   6.599  17.802  0.00  0.00    +0.000 C 
ATOM      4  N   UNL     1       2.682   5.714  18.849  0.00  0.00    +0.000 N 
ATOM      5  C   UNL     1       1.983   6.177  19.990  0.00  0.00    +0.000 C 
ATOM      6  O   UNL     1       1.714   5.460  20.953  0.00  0.00    +0.000 OA
ATOM      7  C   UNL     1       3.022   4.323  18.678  0.00  0.00    +0.000 A 
ATOM      8  C   UNL     1       2.258   3.297  19.256  0.00  0.00    +0.000 A 
ATOM      9  C   UNL     1       2.571   1.951  19.049  0.00  0.00    +0.000 A 
ATOM     10  C   UNL     1       3.645   1.602  18.242  0.00  0.00    +0.000 A 
ATOM     11  C   UNL     1       4.413   2.599  17.652  0.00  0.00    +0.000 A 
ATOM     12  C   UNL     1       4.131   3.962  17.879  0.00  0.00    +0.000 A 
ENDROOT
BRANCH   5  13
ATOM     13  C   UNL     1       1.646   7.605  20.099  0.00  0.00    +0.000 A 
ATOM     14  C   UNL     1       0.963   8.204  21.193  0.00  0.00    +0.000 A 
ATOM     15  C   UNL     1       0.885   9.539  20.880  0.00  0.00    +0.000 A 
ATOM     16  O   UNL     1       1.464   9.729  19.663  0.00  0.00    +0.000 OA
ATOM     17  N   UNL     1       1.881   8.521  19.147  0.00  0.00    +0.000 NA
BRANCH  15  18
ATOM     18  C   UNL     1       0.295  10.711  21.510  0.00  0.00    +0.000 A 
ATOM     19  C   UNL     1      -0.645  10.559  22.542  0.00  0.00    +0.000 A 
ATOM     20  C   UNL     1      -1.301  11.671  23.077  0.00  0.00    +0.000 A 
ATOM     21  C   UNL     1      -1.009  12.938  22.588  0.00  0.00    +0.000 A 
ATOM     22  F   UNL     1      -1.661  13.998  23.076  0.00  0.00    +0.000 F 
ATOM     23  C   UNL     1      -0.055  13.118  21.596  0.00  0.00    +0.000 A 
ATOM     24  C   UNL     1       0.600  12.007  21.061  0.00  0.00    +0.000 A 
ENDBRANCH  15  18
ENDBRANCH   5  13
BRANCH   1  25
ATOM     25  C   UNL     1       6.518   4.808  17.490  0.00  0.00    +0.000 C 
ATOM     26  O   UNL     1       7.355   4.813  16.592  0.00  0.00    +0.000 OA
BRANCH  25  28
ATOM     27  C   UNL     1       7.832   5.625  19.253  0.00  0.00    +0.000 C 
ATOM     28  O   UNL     1       6.810   4.729  18.816  0.00  0.00    +0.000 OA
ENDBRANCH  25  28
ENDBRANCH   1  25
TORSDOF 4
ENDMDL
MODEL 9
REMARK VINA RESULT:      -8.4      1.551      2.110
REMARK  Name = 
REMARK  5 active torsions:
REMARK  status: ('A' for Active; 'I' for Inactive)
REMARK    1  A    between atoms: C_1  and  O_2
REMARK    2  A    between atoms: O_2  and  C_3
REMARK    3  A    between atoms: C_3  and  C_5
REMARK    4  A    between atoms: C_9  and  C_11
REMARK    5  A    between atoms: C_13  and  C_14
REMARK                            x       y       z     vdW  Elec       q    Type
REMARK                         _______ _______ _______ _____ _____    ______ ____
ROOT
ATOM      1  C   UNL     1       2.120   5.201  20.161  0.00  0.00    +0.000 C 
ATOM      2  C   UNL     1       1.179   6.300  20.629  0.00  0.00    +0.000 C 
ATOM      3  C   UNL     1       1.866   7.641  20.540  0.00  0.00    +0.000 C 
ATOM      4  N   UNL     1       2.214   7.958  19.146  0.00  0.00    +0.000 N 
ATOM      5  C   UNL     1       1.749   9.105  18.458  0.00  0.00    +0.000 C 
ATOM      6  O   UNL     1       1.877   9.262  17.244  0.00  0.00    +0.000 OA
ATOM      7  C   UNL     1       2.993   6.939  18.485  0.00  0.00    +0.000 A 
ATOM      8  C   UNL     1       3.800   7.227  17.374  0.00  0.00    +0.000 A 
ATOM      9  C   UNL     1       4.583   6.241  16.767  0.00  0.00    +0.000 A 
ATOM     10  C   UNL     1       4.590   4.949  17.273  0.00  0.00    +0.000 A 
ATOM     11  C   UNL     1       3.806   4.640  18.378  0.00  0.00    +0.000 A 
ATOM     12  C   UNL     1       2.984   5.615  18.979  0.00  0.00    +0.000 A 
ENDROOT
BRANCH   5  13
ATOM     13  C   UNL     1       0.977  10.121  19.190  0.00  0.00    +0.000 A 
ATOM     14  C   UNL     1      -0.439  10.138  19.317  0.00  0.00    +0.000 A 
ATOM     15  C   UNL     1      -0.718  11.239  20.090  0.00  0.00    +0.000 A 
ATOM     16  O   UNL     1       0.456  11.860  20.389  0.00  0.00    +0.000 OA
ATOM     17  N   UNL     1       1.504  11.203  19.781  0.00  0.00    +0.000 NA
BRANCH  15  18
ATOM     18  C   UNL     1      -1.933  11.878  20.572  0.00  0.00    +0.000 A 
ATOM     19  C   UNL     1      -2.977  12.172  19.681  0.00  0.00    +0.000 A 
ATOM     20  C   UNL     1      -4.100  12.884  20.110  0.00  0.00    +0.000 A 
ATOM     21  C   UNL     1      -4.186  13.292  21.435  0.00  0.00    +0.000 A 
ATOM     22  F   UNL     1      -5.245  14.004  21.837  0.00  0.00    +0.000 F 
ATOM     23  C   UNL     1      -3.185  12.980  22.345  0.00  0.00    +0.000 A 
ATOM     24  C   UNL     1      -2.063  12.268  21.916  0.00  0.00    +0.000 A 
ENDBRANCH  15  18
ENDBRANCH   5  13
BRANCH   1  25
ATOM     25  C   UNL     1       1.253   3.976  19.922  0.00  0.00    +0.000 C 
ATOM     26  O   UNL     1       0.801   3.684  18.819  0.00  0.00    +0.000 OA
BRANCH  25  28
ATOM     27  C   UNL     1       2.362   2.867  21.667  0.00  0.00    +0.000 C 
ATOM     28  O   UNL     1       1.127   3.207  21.036  0.00  0.00    +0.000 OA
ENDBRANCH  25  28
ENDBRANCH   1  25
TORSDOF 4
ENDMDL
