MODEL 1
REMARK VINA RESULT:      -8.7      0.000      0.000
REMARK  Name = 
REMARK  4 active torsions:
REMARK  status: ('A' for Active; 'I' for Inactive)
REMARK    1  A    between atoms: C_1  and  C_2
REMARK    2  A    between atoms: C_2  and  C_3
REMARK    3  A    between atoms: C_7  and  N_8
REMARK    4  A    between atoms: C_9  and  C_11
REMARK                            x       y       z     vdW  Elec       q    Type
REMARK                         _______ _______ _______ _____ _____    ______ ____
ROOT
ATOM      1  N   UNL     1       2.732   7.036  18.609  0.00  0.00    +0.000 N 
ATOM      2  C   UNL     1       2.278   8.273  18.192  0.00  0.00    +0.000 C 
ATOM      3  O   UNL     1       2.524   8.782  17.099  0.00  0.00    +0.000 OA
ATOM      4  H   UNL     1       2.442   6.725  19.538  0.00  0.00    +0.000 HD
ENDROOT
BRANCH   2   5
ATOM      5  C   UNL     1       1.431   9.037  19.147  0.00  0.00    +0.000 A 
ATOM      6  C   UNL     1       1.000  10.240  18.725  0.00  0.00    +0.000 A 
ATOM      7  N   UNL     1       0.230  11.113  19.440  0.00  0.00    +0.000 N 
ATOM      8  C   UNL     1      -0.071  10.851  20.778  0.00  0.00    +0.000 A 
ATOM      9  C   UNL     1      -0.783  11.786  21.535  0.00  0.00    +0.000 A 
ATOM     10  C   UNL     1      -1.118  11.505  22.858  0.00  0.00    +0.000 A 
ATOM     11  C   UNL     1      -0.762  10.281  23.427  0.00  0.00    +0.000 A 
ATOM     12  C   UNL     1      -0.068   9.329  22.674  0.00  0.00    +0.000 A 
ATOM     13  C   UNL     1       0.275   9.612  21.348  0.00  0.00    +0.000 A 
ATOM     14  C   UNL     1       1.031   8.620  20.519  0.00  0.00    +0.000 A 
ATOM     15  O   UNL     1       1.327   7.510  20.955  0.00  0.00    +0.000 OA
ATOM     16  H   UNL     1       0.144  12.063  19.093  0.00  0.00    +0.000 HD
ENDBRANCH   2   5
BRANCH   1  21
ATOM     17  C   UNL     1       6.358   4.652  14.702  0.00  0.00    +0.000 A 
ATOM     18  N   UNL     1       5.972   5.874  15.002  0.00  0.00    +0.000 NA
ATOM     19  C   UNL     1       5.124   5.687  16.063  0.00  0.00    +0.000 A 
ATOM     20  C   UNL     1       4.377   6.608  16.803  0.00  0.00    +0.000 A 
ATOM     21  C   UNL     1       3.544   6.156  17.842  0.00  0.00    +0.000 A 
ATOM     22  C   UNL     1       3.502   4.780  18.133  0.00  0.00    +0.000 A 
ATOM     23  C   UNL     1       4.257   3.835  17.407  0.00  0.00    +0.000 A 
ATOM     24  C   UNL     1       5.041   4.346  16.379  0.00  0.00    +0.000 A 
ATOM     25  O   UNL     1       5.844   3.664  15.507  0.00  0.00    +0.000 OA
BRANCH  17  27
ATOM     26  C   UNL     1       6.405   3.634  12.449  0.00  0.00    +0.000 C 
ATOM     27  C   UNL     1       7.230   4.223  13.581  0.00  0.00    +0.000 C 
ENDBRANCH  17  27
ENDBRANCH   1  21
TORSDOF 3
ENDMDL
MODEL 2
REMARK VINA RESULT:      -8.5      1.134      1.656
REMARK  Name = 
REMARK  4 active torsions:
REMARK  status: ('A' for Active; 'I' for Inactive)
REMARK    1  A    between atoms: C_1  and  C_2
REMARK    2  A    between atoms: C_2  and  C_3
REMARK    3  A    between atoms: C_7  and  N_8
REMARK    4  A    between atoms: C_9  and  C_11
REMARK                            x       y       z     vdW  Elec       q    Type
REMARK                         _______ _______ _______ _____ _____    ______ ____
ROOT
ATOM      1  N   UNL     1       2.870   6.926  18.883  0.00  0.00    +0.000 N 
ATOM      2  C   UNL     1       2.213   8.095  18.546  0.00  0.00    +0.000 C 
ATOM      3  O   UNL     1       2.178   8.583  17.417  0.00  0.00    +0.000 OA
ATOM      4  H   UNL     1       2.807   6.624  19.857  0.00  0.00    +0.000 HD
ENDROOT
BRANCH   2   5
ATOM      5  C   UNL     1       1.501   8.808  19.641  0.00  0.00    +0.000 A 
ATOM      6  C   UNL     1       1.484   8.190  20.836  0.00  0.00    +0.000 A 
ATOM      7  N   UNL     1       0.877   8.652  21.969  0.00  0.00    +0.000 N 
ATOM      8  C   UNL     1       0.083   9.800  21.923  0.00  0.00    +0.000 A 
ATOM      9  C   UNL     1      -0.610  10.222  23.061  0.00  0.00    +0.000 A 
ATOM     10  C   UNL     1      -1.369  11.391  23.024  0.00  0.00    +0.000 A 
ATOM     11  C   UNL     1      -1.423  12.155  21.857  0.00  0.00    +0.000 A 
ATOM     12  C   UNL     1      -0.718  11.755  20.719  0.00  0.00    +0.000 A 
ATOM     13  C   UNL     1       0.038  10.578  20.751  0.00  0.00    +0.000 A 
ATOM     14  C   UNL     1       0.794  10.114  19.545  0.00  0.00    +0.000 A 
ATOM     15  O   UNL     1       0.819  10.773  18.508  0.00  0.00    +0.000 OA
ATOM     16  H   UNL     1       0.762   8.005  22.743  0.00  0.00    +0.000 HD
ENDBRANCH   2   5
BRANCH   1  21
ATOM     17  C   UNL     1       6.330   4.839  14.668  0.00  0.00    +0.000 A 
ATOM     18  N   UNL     1       6.087   6.026  15.181  0.00  0.00    +0.000 NA
ATOM     19  C   UNL     1       5.180   5.762  16.175  0.00  0.00    +0.000 A 
ATOM     20  C   UNL     1       4.522   6.623  17.058  0.00  0.00    +0.000 A 
ATOM     21  C   UNL     1       3.598   6.102  17.981  0.00  0.00    +0.000 A 
ATOM     22  C   UNL     1       3.373   4.713  18.013  0.00  0.00    +0.000 A 
ATOM     23  C   UNL     1       4.035   3.825  17.138  0.00  0.00    +0.000 A 
ATOM     24  C   UNL     1       4.918   4.408  16.236  0.00  0.00    +0.000 A 
ATOM     25  O   UNL     1       5.666   3.797  15.268  0.00  0.00    +0.000 OA
BRANCH  17  27
ATOM     26  C   UNL     1       6.430   3.664  12.495  0.00  0.00    +0.000 C 
ATOM     27  C   UNL     1       7.188   4.511  13.503  0.00  0.00    +0.000 C 
ENDBRANCH  17  27
ENDBRANCH   1  21
TORSDOF 3
ENDMDL
MODEL 3
REMARK VINA RESULT:      -8.5      0.937      1.050
REMARK  Name = 
REMARK  4 active torsions:
REMARK  status: ('A' for Active; 'I' for Inactive)
REMARK    1  A    between atoms: C_1  and  C_2
REMARK    2  A    between atoms: C_2  and  C_3
REMARK    3  A    between atoms: C_7  and  N_8
REMARK    4  A    between atoms: C_9  and  C_11
REMARK                            x       y       z     vdW  Elec       q    Type
REMARK                         _______ _______ _______ _____ _____    ______ ____
ROOT
ATOM      1  N   UNL     1       2.185   7.635  18.976  0.00  0.00    +0.000 N 
ATOM      2  C   UNL     1       1.769   8.844  18.451  0.00  0.00    +0.000 C 
ATOM      3  O   UNL     1       2.148   9.314  17.379  0.00  0.00    +0.000 OA
ATOM      4  H   UNL     1       1.780   7.354  19.871  0.00  0.00    +0.000 HD
ENDROOT
BRANCH   2   5
ATOM      5  C   UNL     1       0.791   9.627  19.253  0.00  0.00    +0.000 A 
ATOM      6  C   UNL     1       0.104  10.575  18.590  0.00  0.00    +0.000 A 
ATOM      7  N   UNL     1      -0.826  11.418  19.129  0.00  0.00    +0.000 N 
ATOM      8  C   UNL     1      -1.044  11.434  20.508  0.00  0.00    +0.000 A 
ATOM      9  C   UNL     1      -1.929  12.358  21.069  0.00  0.00    +0.000 A 
ATOM     10  C   UNL     1      -2.177  12.346  22.441  0.00  0.00    +0.000 A 
ATOM     11  C   UNL     1      -1.556  11.398  23.256  0.00  0.00    +0.000 A 
ATOM     12  C   UNL     1      -0.685  10.455  22.704  0.00  0.00    +0.000 A 
ATOM     13  C   UNL     1      -0.429  10.471  21.329  0.00  0.00    +0.000 A 
ATOM     14  C   UNL     1       0.510   9.484  20.708  0.00  0.00    +0.000 A 
ATOM     15  O   UNL     1       1.045   8.599  21.372  0.00  0.00    +0.000 OA
ATOM     16  H   UNL     1      -1.120  12.216  18.574  0.00  0.00    +0.000 HD
ENDBRANCH   2   5
BRANCH   1  21
ATOM     17  C   UNL     1       6.098   5.076  15.479  0.00  0.00    +0.000 A 
ATOM     18  N   UNL     1       5.558   6.273  15.566  0.00  0.00    +0.000 NA
ATOM     19  C   UNL     1       4.738   6.171  16.661  0.00  0.00    +0.000 A 
ATOM     20  C   UNL     1       3.876   7.106  17.241  0.00  0.00    +0.000 A 
ATOM     21  C   UNL     1       3.106   6.743  18.360  0.00  0.00    +0.000 A 
ATOM     22  C   UNL     1       3.239   5.446  18.890  0.00  0.00    +0.000 A 
ATOM     23  C   UNL     1       4.112   4.491  18.326  0.00  0.00    +0.000 A 
ATOM     24  C   UNL     1       4.827   4.907  17.209  0.00  0.00    +0.000 A 
ATOM     25  O   UNL     1       5.714   4.190  16.455  0.00  0.00    +0.000 OA
BRANCH  17  27
ATOM     26  C   UNL     1       6.257   3.831  13.348  0.00  0.00    +0.000 C 
ATOM     27  C   UNL     1       7.022   4.570  14.433  0.00  0.00    +0.000 C 
ENDBRANCH  17  27
ENDBRANCH   1  21
TORSDOF 3
ENDMDL
MODEL 4
REMARK VINA RESULT:      -8.4      1.384      2.168
REMARK  Name = 
REMARK  4 active torsions:
REMARK  status: ('A' for Active; 'I' for Inactive)
REMARK    1  A    between atoms: C_1  and  C_2
REMARK    2  A    between atoms: C_2  and  C_3
REMARK    3  A    between atoms: C_7  and  N_8
REMARK    4  A    between atoms: C_9  and  C_11
REMARK                            x       y       z     vdW  Elec       q    Type
REMARK                         _______ _______ _______ _____ _____    ______ ____
ROOT
ATOM      1  N   UNL     1       2.180   7.789  18.922  0.00  0.00    +0.000 N 
ATOM      2  C   UNL     1       1.693   7.636  20.207  0.00  0.00    +0.000 C 
ATOM      3  O   UNL     1       1.842   6.631  20.901  0.00  0.00    +0.000 OA
ATOM      4  H   UNL     1       1.997   8.683  18.461  0.00  0.00    +0.000 HD
ENDROOT
BRANCH   2   5
ATOM      5  C   UNL     1       0.932   8.778  20.780  0.00  0.00    +0.000 A 
ATOM      6  C   UNL     1       0.869   8.833  22.123  0.00  0.00    +0.000 A 
ATOM      7  N   UNL     1       0.212   9.780  22.858  0.00  0.00    +0.000 N 
ATOM      8  C   UNL     1      -0.586  10.733  22.223  0.00  0.00    +0.000 A 
ATOM      9  C   UNL     1      -1.328  11.644  22.979  0.00  0.00    +0.000 A 
ATOM     10  C   UNL     1      -2.092  12.622  22.343  0.00  0.00    +0.000 A 
ATOM     11  C   UNL     1      -2.103  12.706  20.949  0.00  0.00    +0.000 A 
ATOM     12  C   UNL     1      -1.349  11.814  20.183  0.00  0.00    +0.000 A 
ATOM     13  C   UNL     1      -0.587  10.828  20.819  0.00  0.00    +0.000 A 
ATOM     14  C   UNL     1       0.221   9.847  20.027  0.00  0.00    +0.000 A 
ATOM     15  O   UNL     1       0.284   9.907  18.801  0.00  0.00    +0.000 OA
ATOM     16  H   UNL     1       0.070   9.597  23.846  0.00  0.00    +0.000 HD
ENDBRANCH   2   5
BRANCH   1  21
ATOM     17  C   UNL     1       5.953   4.997  15.450  0.00  0.00    +0.000 A 
ATOM     18  N   UNL     1       5.771   6.244  15.828  0.00  0.00    +0.000 NA
ATOM     19  C   UNL     1       4.708   6.161  16.691  0.00  0.00    +0.000 A 
ATOM     20  C   UNL     1       4.031   7.160  17.397  0.00  0.00    +0.000 A 
ATOM     21  C   UNL     1       2.933   6.819  18.206  0.00  0.00    +0.000 A 
ATOM     22  C   UNL     1       2.554   5.467  18.308  0.00  0.00    +0.000 A 
ATOM     23  C   UNL     1       3.232   4.443  17.614  0.00  0.00    +0.000 A 
ATOM     24  C   UNL     1       4.293   4.851  16.814  0.00  0.00    +0.000 A 
ATOM     25  O   UNL     1       5.099   4.084  16.020  0.00  0.00    +0.000 OA
BRANCH  17  27
ATOM     26  C   UNL     1       6.210   3.822  13.289  0.00  0.00    +0.000 C 
ATOM     27  C   UNL     1       6.927   4.481  14.456  0.00  0.00    +0.000 C 
ENDBRANCH  17  27
ENDBRANCH   1  21
TORSDOF 3
ENDMDL
MODEL 5
REMARK VINA RESULT:      -8.3      1.396      1.980
REMARK  Name = 
REMARK  4 active torsions:
REMARK  status: ('A' for Active; 'I' for Inactive)
REMARK    1  A    between atoms: C_1  and  C_2
REMARK    2  A    between atoms: C_2  and  C_3
REMARK    3  A    between atoms: C_7  and  N_8
REMARK    4  A    between atoms: C_9  and  C_11
REMARK                            x       y       z     vdW  Elec       q    Type
REMARK                         _______ _______ _______ _____ _____    ______ ____
ROOT
ATOM      1  N   UNL     1       2.161   7.609  19.107  0.00  0.00    +0.000 N 
ATOM      2  C   UNL     1       1.664   8.829  18.691  0.00  0.00    +0.000 C 
ATOM      3  O   UNL     1       1.821   9.308  17.568  0.00  0.00    +0.000 OA
ATOM      4  H   UNL     1       1.945   7.323  20.064  0.00  0.00    +0.000 HD
ENDROOT
BRANCH   2   5
ATOM      5  C   UNL     1       0.884   9.615  19.685  0.00  0.00    +0.000 A 
ATOM      6  C   UNL     1       1.129   9.341  20.980  0.00  0.00    +0.000 A 
ATOM      7  N   UNL     1       0.519   9.925  22.053  0.00  0.00    +0.000 N 
ATOM      8  C   UNL     1      -0.548  10.804  21.862  0.00  0.00    +0.000 A 
ATOM      9  C   UNL     1      -1.230  11.332  22.962  0.00  0.00    +0.000 A 
ATOM     10  C   UNL     1      -2.269  12.241  22.770  0.00  0.00    +0.000 A 
ATOM     11  C   UNL     1      -2.619  12.644  21.480  0.00  0.00    +0.000 A 
ATOM     12  C   UNL     1      -1.931  12.139  20.373  0.00  0.00    +0.000 A 
ATOM     13  C   UNL     1      -0.894  11.221  20.563  0.00  0.00    +0.000 A 
ATOM     14  C   UNL     1      -0.146  10.650  19.398  0.00  0.00    +0.000 A 
ATOM     15  O   UNL     1      -0.381  11.006  18.245  0.00  0.00    +0.000 OA
ATOM     16  H   UNL     1       0.643   9.491  22.963  0.00  0.00    +0.000 HD
ENDBRANCH   2   5
BRANCH   1  21
ATOM     17  C   UNL     1       5.933   5.175  15.374  0.00  0.00    +0.000 A 
ATOM     18  N   UNL     1       5.735   6.384  15.853  0.00  0.00    +0.000 NA
ATOM     19  C   UNL     1       4.686   6.213  16.720  0.00  0.00    +0.000 A 
ATOM     20  C   UNL     1       4.001   7.139  17.512  0.00  0.00    +0.000 A 
ATOM     21  C   UNL     1       2.921   6.713  18.306  0.00  0.00    +0.000 A 
ATOM     22  C   UNL     1       2.568   5.351  18.305  0.00  0.00    +0.000 A 
ATOM     23  C   UNL     1       3.254   4.398  17.522  0.00  0.00    +0.000 A 
ATOM     24  C   UNL     1       4.296   4.889  16.744  0.00  0.00    +0.000 A 
ATOM     25  O   UNL     1       5.104   4.204  15.880  0.00  0.00    +0.000 OA
BRANCH  17  27
ATOM     26  C   UNL     1       6.249   3.816  13.332  0.00  0.00    +0.000 C 
ATOM     27  C   UNL     1       6.901   4.759  14.329  0.00  0.00    +0.000 C 
ENDBRANCH  17  27
ENDBRANCH   1  21
TORSDOF 3
ENDMDL
MODEL 6
REMARK VINA RESULT:      -8.3      1.220      1.563
REMARK  Name = 
REMARK  4 active torsions:
REMARK  status: ('A' for Active; 'I' for Inactive)
REMARK    1  A    between atoms: C_1  and  C_2
REMARK    2  A    between atoms: C_2  and  C_3
REMARK    3  A    between atoms: C_7  and  N_8
REMARK    4  A    between atoms: C_9  and  C_11
REMARK                            x       y       z     vdW  Elec       q    Type
REMARK                         _______ _______ _______ _____ _____    ______ ____
ROOT
ATOM      1  N   UNL     1       2.083   7.984  19.165  0.00  0.00    +0.000 N 
ATOM      2  C   UNL     1       1.702   9.143  18.516  0.00  0.00    +0.000 C 
ATOM      3  O   UNL     1       1.873   9.369  17.318  0.00  0.00    +0.000 OA
ATOM      4  H   UNL     1       1.868   7.919  20.162  0.00  0.00    +0.000 HD
ENDROOT
BRANCH   2   5
ATOM      5  C   UNL     1       1.038  10.190  19.339  0.00  0.00    +0.000 A 
ATOM      6  C   UNL     1       1.219  11.462  18.939  0.00  0.00    +0.000 A 
ATOM      7  N   UNL     1       0.720  12.575  19.552  0.00  0.00    +0.000 N 
ATOM      8  C   UNL     1       0.055  12.466  20.775  0.00  0.00    +0.000 A 
ATOM      9  C   UNL     1      -0.377  13.612  21.446  0.00  0.00    +0.000 A 
ATOM     10  C   UNL     1      -1.076  13.499  22.647  0.00  0.00    +0.000 A 
ATOM     11  C   UNL     1      -1.365  12.238  23.173  0.00  0.00    +0.000 A 
ATOM     12  C   UNL     1      -0.956  11.083  22.501  0.00  0.00    +0.000 A 
ATOM     13  C   UNL     1      -0.248  11.195  21.300  0.00  0.00    +0.000 A 
ATOM     14  C   UNL     1       0.217   9.978  20.562  0.00  0.00    +0.000 A 
ATOM     15  O   UNL     1      -0.052   8.845  20.956  0.00  0.00    +0.000 OA
ATOM     16  H   UNL     1       1.093  13.477  19.273  0.00  0.00    +0.000 HD
ENDBRANCH   2   5
BRANCH   1  21
ATOM     17  C   UNL     1       5.441   4.466  15.934  0.00  0.00    +0.000 A 
ATOM     18  N   UNL     1       5.372   5.762  16.147  0.00  0.00    +0.000 NA
ATOM     19  C   UNL     1       4.357   5.880  17.061  0.00  0.00    +0.000 A 
ATOM     20  C   UNL     1       3.795   7.014  17.655  0.00  0.00    +0.000 A 
ATOM     21  C   UNL     1       2.722   6.871  18.554  0.00  0.00    +0.000 A 
ATOM     22  C   UNL     1       2.253   5.579  18.857  0.00  0.00    +0.000 A 
ATOM     23  C   UNL     1       2.814   4.421  18.278  0.00  0.00    +0.000 A 
ATOM     24  C   UNL     1       3.855   4.634  17.382  0.00  0.00    +0.000 A 
ATOM     25  O   UNL     1       4.557   3.707  16.662  0.00  0.00    +0.000 OA
BRANCH  17  27
ATOM     26  C   UNL     1       5.879   4.007  13.544  0.00  0.00    +0.000 C 
ATOM     27  C   UNL     1       6.317   3.747  14.975  0.00  0.00    +0.000 C 
ENDBRANCH  17  27
ENDBRANCH   1  21
TORSDOF 3
ENDMDL
MODEL 7
REMARK VINA RESULT:      -8.2      1.947      9.405
REMARK  Name = 
REMARK  4 active torsions:
REMARK  status: ('A' for Active; 'I' for Inactive)
REMARK    1  A    between atoms: C_1  and  C_2
REMARK    2  A    between atoms: C_2  and  C_3
REMARK    3  A    between atoms: C_7  and  N_8
REMARK    4  A    between atoms: C_9  and  C_11
REMARK                            x       y       z     vdW  Elec       q    Type
REMARK                         _______ _______ _______ _____ _____    ______ ____
ROOT
ATOM      1  N   UNL     1       1.845   8.064  19.864  0.00  0.00    +0.000 N 
ATOM      2  C   UNL     1       2.007   6.696  19.976  0.00  0.00    +0.000 C 
ATOM      3  O   UNL     1       1.513   5.998  20.861  0.00  0.00    +0.000 OA
ATOM      4  H   UNL     1       2.299   8.521  19.071  0.00  0.00    +0.000 HD
ENDROOT
BRANCH   2   5
ATOM      5  C   UNL     1       2.846   6.029  18.943  0.00  0.00    +0.000 A 
ATOM      6  C   UNL     1       3.015   4.702  19.084  0.00  0.00    +0.000 A 
ATOM      7  N   UNL     1       3.756   3.896  18.267  0.00  0.00    +0.000 N 
ATOM      8  C   UNL     1       4.532   4.452  17.248  0.00  0.00    +0.000 A 
ATOM      9  C   UNL     1       5.359   3.637  16.470  0.00  0.00    +0.000 A 
ATOM     10  C   UNL     1       6.102   4.188  15.427  0.00  0.00    +0.000 A 
ATOM     11  C   UNL     1       6.007   5.551  15.142  0.00  0.00    +0.000 A 
ATOM     12  C   UNL     1       5.167   6.373  15.899  0.00  0.00    +0.000 A 
ATOM     13  C   UNL     1       4.427   5.823  16.951  0.00  0.00    +0.000 A 
ATOM     14  C   UNL     1       3.529   6.679  17.791  0.00  0.00    +0.000 A 
ATOM     15  O   UNL     1       3.372   7.874  17.553  0.00  0.00    +0.000 OA
ATOM     16  H   UNL     1       3.970   2.959  18.593  0.00  0.00    +0.000 HD
ENDBRANCH   2   5
BRANCH   1  21
ATOM     17  C   UNL     1      -1.710  12.051  22.221  0.00  0.00    +0.000 A 
ATOM     18  N   UNL     1      -1.410  11.666  20.999  0.00  0.00    +0.000 NA
ATOM     19  C   UNL     1      -0.517  10.645  21.199  0.00  0.00    +0.000 A 
ATOM     20  C   UNL     1       0.181   9.855  20.281  0.00  0.00    +0.000 A 
ATOM     21  C   UNL     1       1.079   8.877  20.744  0.00  0.00    +0.000 A 
ATOM     22  C   UNL     1       1.236   8.696  22.131  0.00  0.00    +0.000 A 
ATOM     23  C   UNL     1       0.533   9.474  23.074  0.00  0.00    +0.000 A 
ATOM     24  C   UNL     1      -0.321  10.438  22.549  0.00  0.00    +0.000 A 
ATOM     25  O   UNL     1      -1.097  11.340  23.223  0.00  0.00    +0.000 OA
BRANCH  17  27
ATOM     26  C   UNL     1      -3.398  12.815  23.859  0.00  0.00    +0.000 C 
ATOM     27  C   UNL     1      -2.582  13.180  22.630  0.00  0.00    +0.000 C 
ENDBRANCH  17  27
ENDBRANCH   1  21
TORSDOF 3
ENDMDL
MODEL 8
REMARK VINA RESULT:      -8.1      3.417      8.520
REMARK  Name = 
REMARK  4 active torsions:
REMARK  status: ('A' for Active; 'I' for Inactive)
REMARK    1  A    between atoms: C_1  and  C_2
REMARK    2  A    between atoms: C_2  and  C_3
REMARK    3  A    between atoms: C_7  and  N_8
REMARK    4  A    between atoms: C_9  and  C_11
REMARK                            x       y       z     vdW  Elec       q    Type
REMARK                         _______ _______ _______ _____ _____    ______ ____
ROOT
ATOM      1  N   UNL     1       1.241   9.386  19.238  0.00  0.00    +0.000 N 
ATOM      2  C   UNL     1       2.025   8.669  18.354  0.00  0.00    +0.000 C 
ATOM      3  O   UNL     1       2.400   9.076  17.255  0.00  0.00    +0.000 OA
ATOM      4  H   UNL     1       1.012   8.934  20.125  0.00  0.00    +0.000 HD
ENDROOT
BRANCH   2   5
ATOM      5  C   UNL     1       2.438   7.303  18.774  0.00  0.00    +0.000 A 
ATOM      6  C   UNL     1       3.245   6.640  17.924  0.00  0.00    +0.000 A 
ATOM      7  N   UNL     1       3.729   5.375  18.099  0.00  0.00    +0.000 N 
ATOM      8  C   UNL     1       3.290   4.597  19.172  0.00  0.00    +0.000 A 
ATOM      9  C   UNL     1       3.716   3.272  19.300  0.00  0.00    +0.000 A 
ATOM     10  C   UNL     1       3.310   2.509  20.394  0.00  0.00    +0.000 A 
ATOM     11  C   UNL     1       2.491   3.072  21.375  0.00  0.00    +0.000 A 
ATOM     12  C   UNL     1       2.076   4.402  21.269  0.00  0.00    +0.000 A 
ATOM     13  C   UNL     1       2.476   5.167  20.169  0.00  0.00    +0.000 A 
ATOM     14  C   UNL     1       2.036   6.590  20.018  0.00  0.00    +0.000 A 
ATOM     15  O   UNL     1       1.357   7.148  20.875  0.00  0.00    +0.000 OA
ATOM     16  H   UNL     1       4.156   4.917  17.300  0.00  0.00    +0.000 HD
ENDBRANCH   2   5
BRANCH   1  21
ATOM     17  C   UNL     1       0.554  15.174  18.894  0.00  0.00    +0.000 A 
ATOM     18  N   UNL     1       1.546  14.362  19.190  0.00  0.00    +0.000 NA
ATOM     19  C   UNL     1       0.995  13.117  19.031  0.00  0.00    +0.000 A 
ATOM     20  C   UNL     1       1.546  11.847  19.227  0.00  0.00    +0.000 A 
ATOM     21  C   UNL     1       0.753  10.704  19.023  0.00  0.00    +0.000 A 
ATOM     22  C   UNL     1      -0.580  10.864  18.598  0.00  0.00    +0.000 A 
ATOM     23  C   UNL     1      -1.151  12.136  18.383  0.00  0.00    +0.000 A 
ATOM     24  C   UNL     1      -0.320  13.224  18.624  0.00  0.00    +0.000 A 
ATOM     25  O   UNL     1      -0.615  14.555  18.524  0.00  0.00    +0.000 OA
BRANCH  17  27
ATOM     26  C   UNL     1      -0.486  17.232  18.001  0.00  0.00    +0.000 C 
ATOM     27  C   UNL     1       0.541  16.656  18.962  0.00  0.00    +0.000 C 
ENDBRANCH  17  27
ENDBRANCH   1  21
TORSDOF 3
ENDMDL
MODEL 9
REMARK VINA RESULT:      -7.9      6.869      8.641
REMARK  Name = 
REMARK  4 active torsions:
REMARK  status: ('A' for Active; 'I' for Inactive)
REMARK    1  A    between atoms: C_1  and  C_2
REMARK    2  A    between atoms: C_2  and  C_3
REMARK    3  A    between atoms: C_7  and  N_8
REMARK    4  A    between atoms: C_9  and  C_11
REMARK                            x       y       z     vdW  Elec       q    Type
REMARK                         _______ _______ _______ _____ _____    ______ ____
ROOT
ATOM      1  N   UNL     1       8.443   9.295  17.598  0.00  0.00    +0.000 N 
ATOM      2  C   UNL     1       9.006  10.073  18.591  0.00  0.00    +0.000 C 
ATOM      3  O   UNL     1       8.959   9.821  19.795  0.00  0.00    +0.000 OA
ATOM      4  H   UNL     1       8.569   9.611  16.634  0.00  0.00    +0.000 HD
ENDROOT
BRANCH   2   5
ATOM      5  C   UNL     1       9.719  11.305  18.160  0.00  0.00    +0.000 A 
ATOM      6  C   UNL     1      11.026  11.164  17.871  0.00  0.00    +0.000 A 
ATOM      7  N   UNL     1      11.873  12.159  17.475  0.00  0.00    +0.000 N 
ATOM      8  C   UNL     1      11.442  13.487  17.466  0.00  0.00    +0.000 A 
ATOM      9  C   UNL     1      12.333  14.514  17.147  0.00  0.00    +0.000 A 
ATOM     10  C   UNL     1      11.891  15.835  17.098  0.00  0.00    +0.000 A 
ATOM     11  C   UNL     1      10.550  16.134  17.348  0.00  0.00    +0.000 A 
ATOM     12  C   UNL     1       9.644  15.114  17.647  0.00  0.00    +0.000 A 
ATOM     13  C   UNL     1      10.088  13.789  17.704  0.00  0.00    +0.000 A 
ATOM     14  C   UNL     1       9.145  12.673  18.036  0.00  0.00    +0.000 A 
ATOM     15  O   UNL     1       7.947  12.876  18.217  0.00  0.00    +0.000 OA
ATOM     16  H   UNL     1      12.870  11.965  17.486  0.00  0.00    +0.000 HD
ENDBRANCH   2   5
BRANCH   1  21
ATOM     17  C   UNL     1       4.488   5.000  17.651  0.00  0.00    +0.000 A 
ATOM     18  N   UNL     1       4.604   6.162  17.045  0.00  0.00    +0.000 NA
ATOM     19  C   UNL     1       5.819   6.625  17.478  0.00  0.00    +0.000 A 
ATOM     20  C   UNL     1       6.486   7.823  17.204  0.00  0.00    +0.000 A 
ATOM     21  C   UNL     1       7.730   8.082  17.806  0.00  0.00    +0.000 A 
ATOM     22  C   UNL     1       8.292   7.112  18.657  0.00  0.00    +0.000 A 
ATOM     23  C   UNL     1       7.642   5.892  18.937  0.00  0.00    +0.000 A 
ATOM     24  C   UNL     1       6.406   5.709  18.327  0.00  0.00    +0.000 A 
ATOM     25  O   UNL     1       5.554   4.645  18.441  0.00  0.00    +0.000 OA
BRANCH  17  27
ATOM     26  C   UNL     1       2.027   4.820  17.814  0.00  0.00    +0.000 C 
ATOM     27  C   UNL     1       3.333   4.069  17.619  0.00  0.00    +0.000 C 
ENDBRANCH  17  27
ENDBRANCH   1  21
TORSDOF 3
ENDMDL
