MODEL 1
REMARK VINA RESULT:      -9.2      0.000      0.000
REMARK  Name = 
REMARK  5 active torsions:
REMARK  status: ('A' for Active; 'I' for Inactive)
REMARK    1  A    between atoms: C_2  and  C_3
REMARK    2  A    between atoms: C_3  and  C_4
REMARK    3  A    between atoms: C_4  and  N_5
REMARK    4  A    between atoms: N_16  and  C_17
REMARK    5  A    between atoms: C_21  and  N_22
REMARK                            x       y       z     vdW  Elec       q    Type
REMARK                         _______ _______ _______ _____ _____    ______ ____
ROOT
ATOM      1  O   UNL     1       0.573   4.927  20.461  0.00  0.00    +0.000 OA
ATOM      2  C   UNL     1       1.761   5.103  20.709  0.00  0.00    +0.000 C 
ATOM      3  N   UNL     1       2.493   6.260  20.459  0.00  0.00    +0.000 N 
ATOM      4  H   UNL     1       3.499   6.189  20.543  0.00  0.00    +0.000 HD
ENDROOT
BRANCH   3   5
ATOM      5  C   UNL     1       2.004   7.463  19.888  0.00  0.00    +0.000 A 
ATOM      6  C   UNL     1       2.343   7.881  18.603  0.00  0.00    +0.000 A 
ATOM      7  C   UNL     1       1.894   9.110  18.122  0.00  0.00    +0.000 A 
ATOM      8  C   UNL     1       1.117   9.940  18.931  0.00  0.00    +0.000 A 
ATOM      9  C   UNL     1       0.735   9.543  20.215  0.00  0.00    +0.000 A 
ATOM     10  C   UNL     1       1.153   8.275  20.667  0.00  0.00    +0.000 A 
BRANCH   9  11
ATOM     11  N   UNL     1      -0.036  10.409  21.038  0.00  0.00    +0.000 N 
ATOM     12  C   UNL     1      -1.060  11.289  20.530  0.00  0.00    +0.000 C 
ATOM     13  C   UNL     1      -1.350  12.226  21.687  0.00  0.00    +0.000 C 
ATOM     14  C   UNL     1      -1.102  11.366  22.910  0.00  0.00    +0.000 C 
ATOM     15  C   UNL     1      -0.034  10.406  22.445  0.00  0.00    +0.000 C 
ATOM     16  O   UNL     1       0.619   9.719  23.216  0.00  0.00    +0.000 OA
ENDBRANCH   9  11
ENDBRANCH   3   5
BRANCH   2  17
ATOM     17  C   UNL     1       2.585   4.026  21.395  0.00  0.00    +0.000 C 
BRANCH  17  18
ATOM     18  C   UNL     1       2.621   2.731  20.584  0.00  0.00    +0.000 C 
BRANCH  18  19
ATOM     19  N   UNL     1       2.846   2.977  19.175  0.00  0.00    +0.000 N 
ATOM     20  C   UNL     1       1.924   2.752  18.171  0.00  0.00    +0.000 A 
ATOM     21  O   UNL     1       0.791   2.309  18.327  0.00  0.00    +0.000 OA
ATOM     22  O   UNL     1       2.432   3.123  16.921  0.00  0.00    +0.000 OA
ATOM     23  C   UNL     1       3.690   3.609  17.243  0.00  0.00    +0.000 A 
ATOM     24  C   UNL     1       4.592   4.126  16.334  0.00  0.00    +0.000 A 
ATOM     25  C   UNL     1       5.805   4.587  16.841  0.00  0.00    +0.000 A 
ATOM     26 CL   UNL     1       6.978   5.249  15.767  0.00  0.00    +0.000 Cl
ATOM     27  C   UNL     1       6.089   4.523  18.220  0.00  0.00    +0.000 A 
ATOM     28  C   UNL     1       5.156   3.991  19.121  0.00  0.00    +0.000 A 
ATOM     29  C   UNL     1       3.962   3.540  18.596  0.00  0.00    +0.000 A 
ENDBRANCH  18  19
ENDBRANCH  17  18
ENDBRANCH   2  17
TORSDOF 5
ENDMDL
MODEL 2
REMARK VINA RESULT:      -9.0      6.615      9.418
REMARK  Name = 
REMARK  5 active torsions:
REMARK  status: ('A' for Active; 'I' for Inactive)
REMARK    1  A    between atoms: C_2  and  C_3
REMARK    2  A    between atoms: C_3  and  C_4
REMARK    3  A    between atoms: C_4  and  N_5
REMARK    4  A    between atoms: N_16  and  C_17
REMARK    5  A    between atoms: C_21  and  N_22
REMARK                            x       y       z     vdW  Elec       q    Type
REMARK                         _______ _______ _______ _____ _____    ______ ____
ROOT
ATOM      1  O   UNL     1       8.559   7.271  18.912  0.00  0.00    +0.000 OA
ATOM      2  C   UNL     1       8.035   8.043  18.114  0.00  0.00    +0.000 C 
ATOM      3  N   UNL     1       7.104   7.709  17.135  0.00  0.00    +0.000 N 
ATOM      4  H   UNL     1       6.908   8.413  16.435  0.00  0.00    +0.000 HD
ENDROOT
BRANCH   3   5
ATOM      5  C   UNL     1       6.568   6.421  16.883  0.00  0.00    +0.000 A 
ATOM      6  C   UNL     1       6.984   5.625  15.818  0.00  0.00    +0.000 A 
ATOM      7  C   UNL     1       6.367   4.399  15.572  0.00  0.00    +0.000 A 
ATOM      8  C   UNL     1       5.315   3.967  16.381  0.00  0.00    +0.000 A 
ATOM      9  C   UNL     1       4.888   4.726  17.474  0.00  0.00    +0.000 A 
ATOM     10  C   UNL     1       5.557   5.938  17.740  0.00  0.00    +0.000 A 
BRANCH   9  11
ATOM     11  N   UNL     1       3.798   4.286  18.275  0.00  0.00    +0.000 N 
ATOM     12  C   UNL     1       2.418   4.568  17.967  0.00  0.00    +0.000 C 
ATOM     13  C   UNL     1       1.674   4.208  19.240  0.00  0.00    +0.000 C 
ATOM     14  C   UNL     1       2.495   3.074  19.822  0.00  0.00    +0.000 C 
ATOM     15  C   UNL     1       3.896   3.390  19.356  0.00  0.00    +0.000 C 
ATOM     16  O   UNL     1       4.886   2.854  19.829  0.00  0.00    +0.000 OA
ENDBRANCH   9  11
ENDBRANCH   3   5
BRANCH   2  17
ATOM     17  C   UNL     1       8.337   9.531  18.151  0.00  0.00    +0.000 C 
BRANCH  17  18
ATOM     18  C   UNL     1       9.429   9.867  19.168  0.00  0.00    +0.000 C 
BRANCH  18  19
ATOM     19  N   UNL     1       9.500  11.287  19.441  0.00  0.00    +0.000 N 
ATOM     20  C   UNL     1       9.101  11.892  20.618  0.00  0.00    +0.000 A 
ATOM     21  O   UNL     1       8.628  11.318  21.593  0.00  0.00    +0.000 OA
ATOM     22  O   UNL     1       9.329  13.272  20.583  0.00  0.00    +0.000 OA
ATOM     23  C   UNL     1       9.913  13.446  19.338  0.00  0.00    +0.000 A 
ATOM     24  C   UNL     1      10.350  14.656  18.834  0.00  0.00    +0.000 A 
ATOM     25  C   UNL     1      10.931  14.639  17.568  0.00  0.00    +0.000 A 
ATOM     26 CL   UNL     1      11.502  16.110  16.877  0.00  0.00    +0.000 Cl
ATOM     27  C   UNL     1      11.062  13.438  16.843  0.00  0.00    +0.000 A 
ATOM     28  C   UNL     1      10.608  12.225  17.377  0.00  0.00    +0.000 A 
ATOM     29  C   UNL     1      10.035  12.266  18.632  0.00  0.00    +0.000 A 
ENDBRANCH  18  19
ENDBRANCH  17  18
ENDBRANCH   2  17
TORSDOF 5
ENDMDL
MODEL 3
REMARK VINA RESULT:      -8.8      0.863      1.138
REMARK  Name = 
REMARK  5 active torsions:
REMARK  status: ('A' for Active; 'I' for Inactive)
REMARK    1  A    between atoms: C_2  and  C_3
REMARK    2  A    between atoms: C_3  and  C_4
REMARK    3  A    between atoms: C_4  and  N_5
REMARK    4  A    between atoms: N_16  and  C_17
REMARK    5  A    between atoms: C_21  and  N_22
REMARK                            x       y       z     vdW  Elec       q    Type
REMARK                         _______ _______ _______ _____ _____    ______ ____
ROOT
ATOM      1  O   UNL     1       0.560   4.856  20.503  0.00  0.00    +0.000 OA
ATOM      2  C   UNL     1       1.750   5.036  20.740  0.00  0.00    +0.000 C 
ATOM      3  N   UNL     1       2.472   6.200  20.496  0.00  0.00    +0.000 N 
ATOM      4  H   UNL     1       3.480   6.134  20.568  0.00  0.00    +0.000 HD
ENDROOT
BRANCH   3   5
ATOM      5  C   UNL     1       1.970   7.407  19.947  0.00  0.00    +0.000 A 
ATOM      6  C   UNL     1       2.301   7.850  18.668  0.00  0.00    +0.000 A 
ATOM      7  C   UNL     1       1.840   9.082  18.209  0.00  0.00    +0.000 A 
ATOM      8  C   UNL     1       1.057   9.891  19.033  0.00  0.00    +0.000 A 
ATOM      9  C   UNL     1       0.683   9.470  20.312  0.00  0.00    +0.000 A 
ATOM     10  C   UNL     1       1.114   8.198  20.741  0.00  0.00    +0.000 A 
BRANCH   9  11
ATOM     11  N   UNL     1      -0.094  10.315  21.151  0.00  0.00    +0.000 N 
ATOM     12  C   UNL     1      -0.066  10.251  22.592  0.00  0.00    +0.000 C 
ATOM     13  C   UNL     1      -1.267  11.071  23.022  0.00  0.00    +0.000 C 
ATOM     14  C   UNL     1      -1.384  12.124  21.938  0.00  0.00    +0.000 C 
ATOM     15  C   UNL     1      -0.848  11.420  20.715  0.00  0.00    +0.000 C 
ATOM     16  O   UNL     1      -1.012  11.846  19.582  0.00  0.00    +0.000 OA
ENDBRANCH   9  11
ENDBRANCH   3   5
BRANCH   2  17
ATOM     17  C   UNL     1       2.588   3.955  21.402  0.00  0.00    +0.000 C 
BRANCH  17  18
ATOM     18  C   UNL     1       2.626   2.672  20.571  0.00  0.00    +0.000 C 
BRANCH  18  19
ATOM     19  N   UNL     1       2.852   2.940  19.167  0.00  0.00    +0.000 N 
ATOM     20  C   UNL     1       1.935   2.717  18.157  0.00  0.00    +0.000 A 
ATOM     21  O   UNL     1       0.808   2.257  18.303  0.00  0.00    +0.000 OA
ATOM     22  O   UNL     1       2.443   3.110  16.913  0.00  0.00    +0.000 OA
ATOM     23  C   UNL     1       3.694   3.608  17.246  0.00  0.00    +0.000 A 
ATOM     24  C   UNL     1       4.592   4.148  16.347  0.00  0.00    +0.000 A 
ATOM     25  C   UNL     1       5.797   4.618  16.864  0.00  0.00    +0.000 A 
ATOM     26 CL   UNL     1       6.965   5.308  15.803  0.00  0.00    +0.000 Cl
ATOM     27  C   UNL     1       6.078   4.539  18.243  0.00  0.00    +0.000 A 
ATOM     28  C   UNL     1       5.150   3.983  19.133  0.00  0.00    +0.000 A 
ATOM     29  C   UNL     1       3.963   3.524  18.598  0.00  0.00    +0.000 A 
ENDBRANCH  18  19
ENDBRANCH  17  18
ENDBRANCH   2  17
TORSDOF 5
ENDMDL
MODEL 4
REMARK VINA RESULT:      -8.8      6.589      9.364
REMARK  Name = 
REMARK  5 active torsions:
REMARK  status: ('A' for Active; 'I' for Inactive)
REMARK    1  A    between atoms: C_2  and  C_3
REMARK    2  A    between atoms: C_3  and  C_4
REMARK    3  A    between atoms: C_4  and  N_5
REMARK    4  A    between atoms: N_16  and  C_17
REMARK    5  A    between atoms: C_21  and  N_22
REMARK                            x       y       z     vdW  Elec       q    Type
REMARK                         _______ _______ _______ _____ _____    ______ ____
ROOT
ATOM      1  O   UNL     1       8.542   7.248  18.898  0.00  0.00    +0.000 OA
ATOM      2  C   UNL     1       8.019   8.012  18.093  0.00  0.00    +0.000 C 
ATOM      3  N   UNL     1       7.074   7.674  17.130  0.00  0.00    +0.000 N 
ATOM      4  H   UNL     1       6.879   8.370  16.420  0.00  0.00    +0.000 HD
ENDROOT
BRANCH   3   5
ATOM      5  C   UNL     1       6.520   6.389  16.903  0.00  0.00    +0.000 A 
ATOM      6  C   UNL     1       6.859   5.603  15.804  0.00  0.00    +0.000 A 
ATOM      7  C   UNL     1       6.225   4.380  15.591  0.00  0.00    +0.000 A 
ATOM      8  C   UNL     1       5.232   3.942  16.467  0.00  0.00    +0.000 A 
ATOM      9  C   UNL     1       4.883   4.690  17.595  0.00  0.00    +0.000 A 
ATOM     10  C   UNL     1       5.571   5.898  17.824  0.00  0.00    +0.000 A 
BRANCH   9  11
ATOM     11  N   UNL     1       3.852   4.243  18.466  0.00  0.00    +0.000 N 
ATOM     12  C   UNL     1       4.042   3.223  19.468  0.00  0.00    +0.000 C 
ATOM     13  C   UNL     1       2.632   2.856  19.893  0.00  0.00    +0.000 C 
ATOM     14  C   UNL     1       1.864   4.152  19.729  0.00  0.00    +0.000 C 
ATOM     15  C   UNL     1       2.583   4.837  18.592  0.00  0.00    +0.000 C 
ATOM     16  O   UNL     1       2.111   5.790  17.990  0.00  0.00    +0.000 OA
ENDBRANCH   9  11
ENDBRANCH   3   5
BRANCH   2  17
ATOM     17  C   UNL     1       8.340   9.498  18.104  0.00  0.00    +0.000 C 
BRANCH  17  18
ATOM     18  C   UNL     1       9.446   9.837  19.104  0.00  0.00    +0.000 C 
BRANCH  18  19
ATOM     19  N   UNL     1       9.511  11.256  19.383  0.00  0.00    +0.000 N 
ATOM     20  C   UNL     1       9.092  11.856  20.555  0.00  0.00    +0.000 A 
ATOM     21  O   UNL     1       8.602  11.277  21.520  0.00  0.00    +0.000 OA
ATOM     22  O   UNL     1       9.319  13.236  20.530  0.00  0.00    +0.000 OA
ATOM     23  C   UNL     1       9.924  13.415  19.295  0.00  0.00    +0.000 A 
ATOM     24  C   UNL     1      10.368  14.627  18.803  0.00  0.00    +0.000 A 
ATOM     25  C   UNL     1      10.972  14.615  17.547  0.00  0.00    +0.000 A 
ATOM     26 CL   UNL     1      11.553  16.089  16.871  0.00  0.00    +0.000 Cl
ATOM     27  C   UNL     1      11.116  13.417  16.820  0.00  0.00    +0.000 A 
ATOM     28  C   UNL     1      10.654  12.201  17.342  0.00  0.00    +0.000 A 
ATOM     29  C   UNL     1      10.059  12.237  18.587  0.00  0.00    +0.000 A 
ENDBRANCH  18  19
ENDBRANCH  17  18
ENDBRANCH   2  17
TORSDOF 5
ENDMDL
MODEL 5
REMARK VINA RESULT:      -8.5      3.944      9.014
REMARK  Name = 
REMARK  5 active torsions:
REMARK  status: ('A' for Active; 'I' for Inactive)
REMARK    1  A    between atoms: C_2  and  C_3
REMARK    2  A    between atoms: C_3  and  C_4
REMARK    3  A    between atoms: C_4  and  N_5
REMARK    4  A    between atoms: N_16  and  C_17
REMARK    5  A    between atoms: C_21  and  N_22
REMARK                            x       y       z     vdW  Elec       q    Type
REMARK                         _______ _______ _______ _____ _____    ______ ____
ROOT
ATOM      1  O   UNL     1       2.781   4.228  18.585  0.00  0.00    +0.000 OA
ATOM      2  C   UNL     1       2.949   5.442  18.536  0.00  0.00    +0.000 C 
ATOM      3  N   UNL     1       4.096   6.098  18.100  0.00  0.00    +0.000 N 
ATOM      4  H   UNL     1       4.155   7.090  18.296  0.00  0.00    +0.000 HD
ENDROOT
BRANCH   3   5
ATOM      5  C   UNL     1       5.282   5.494  17.611  0.00  0.00    +0.000 A 
ATOM      6  C   UNL     1       6.389   5.240  18.418  0.00  0.00    +0.000 A 
ATOM      7  C   UNL     1       7.556   4.715  17.867  0.00  0.00    +0.000 A 
ATOM      8  C   UNL     1       7.631   4.454  16.499  0.00  0.00    +0.000 A 
ATOM      9  C   UNL     1       6.533   4.670  15.662  0.00  0.00    +0.000 A 
ATOM     10  C   UNL     1       5.344   5.153  16.244  0.00  0.00    +0.000 A 
BRANCH   9  11
ATOM     11  N   UNL     1       6.632   4.423  14.264  0.00  0.00    +0.000 N 
ATOM     12  C   UNL     1       5.662   3.658  13.520  0.00  0.00    +0.000 C 
ATOM     13  C   UNL     1       6.346   3.385  12.194  0.00  0.00    +0.000 C 
ATOM     14  C   UNL     1       7.223   4.604  11.990  0.00  0.00    +0.000 C 
ATOM     15  C   UNL     1       7.568   5.020  13.400  0.00  0.00    +0.000 C 
ATOM     16  O   UNL     1       8.465   5.808  13.656  0.00  0.00    +0.000 OA
ENDBRANCH   9  11
ENDBRANCH   3   5
BRANCH   2  17
ATOM     17  C   UNL     1       1.839   6.403  18.928  0.00  0.00    +0.000 C 
BRANCH  17  18
ATOM     18  C   UNL     1       2.346   7.521  19.840  0.00  0.00    +0.000 C 
BRANCH  18  19
ATOM     19  N   UNL     1       1.522   8.709  19.753  0.00  0.00    +0.000 N 
ATOM     20  C   UNL     1       1.298   9.438  18.601  0.00  0.00    +0.000 A 
ATOM     21  O   UNL     1       1.765   9.191  17.495  0.00  0.00    +0.000 OA
ATOM     22  O   UNL     1       0.430  10.510  18.839  0.00  0.00    +0.000 OA
ATOM     23  C   UNL     1       0.127  10.355  20.184  0.00  0.00    +0.000 A 
ATOM     24  C   UNL     1      -0.728  11.171  20.898  0.00  0.00    +0.000 A 
ATOM     25  C   UNL     1      -0.929  10.853  22.240  0.00  0.00    +0.000 A 
ATOM     26 CL   UNL     1      -1.985  11.824  23.193  0.00  0.00    +0.000 Cl
ATOM     27  C   UNL     1      -0.283   9.749  22.831  0.00  0.00    +0.000 A 
ATOM     28  C   UNL     1       0.582   8.939  22.083  0.00  0.00    +0.000 A 
ATOM     29  C   UNL     1       0.766   9.273  20.757  0.00  0.00    +0.000 A 
ENDBRANCH  18  19
ENDBRANCH  17  18
ENDBRANCH   2  17
TORSDOF 5
ENDMDL
MODEL 6
REMARK VINA RESULT:      -8.5      3.362      8.759
REMARK  Name = 
REMARK  5 active torsions:
REMARK  status: ('A' for Active; 'I' for Inactive)
REMARK    1  A    between atoms: C_2  and  C_3
REMARK    2  A    between atoms: C_3  and  C_4
REMARK    3  A    between atoms: C_4  and  N_5
REMARK    4  A    between atoms: N_16  and  C_17
REMARK    5  A    between atoms: C_21  and  N_22
REMARK                            x       y       z     vdW  Elec       q    Type
REMARK                         _______ _______ _______ _____ _____    ______ ____
ROOT
ATOM      1  O   UNL     1       2.146   7.883  18.877  0.00  0.00    +0.000 OA
ATOM      2  C   UNL     1       1.747   7.720  20.025  0.00  0.00    +0.000 C 
ATOM      3  N   UNL     1       1.851   6.553  20.776  0.00  0.00    +0.000 N 
ATOM      4  H   UNL     1       1.311   6.513  21.632  0.00  0.00    +0.000 HD
ENDROOT
BRANCH   3   5
ATOM      5  C   UNL     1       2.454   5.336  20.369  0.00  0.00    +0.000 A 
ATOM      6  C   UNL     1       2.213   4.123  21.010  0.00  0.00    +0.000 A 
ATOM      7  C   UNL     1       2.893   2.971  20.614  0.00  0.00    +0.000 A 
ATOM      8  C   UNL     1       3.831   3.028  19.585  0.00  0.00    +0.000 A 
ATOM      9  C   UNL     1       4.080   4.221  18.900  0.00  0.00    +0.000 A 
ATOM     10  C   UNL     1       3.347   5.364  19.277  0.00  0.00    +0.000 A 
BRANCH   9  11
ATOM     11  N   UNL     1       5.057   4.271  17.868  0.00  0.00    +0.000 N 
ATOM     12  C   UNL     1       4.738   4.197  16.464  0.00  0.00    +0.000 C 
ATOM     13  C   UNL     1       6.077   3.950  15.794  0.00  0.00    +0.000 C 
ATOM     14  C   UNL     1       7.062   4.668  16.694  0.00  0.00    +0.000 C 
ATOM     15  C   UNL     1       6.420   4.567  18.057  0.00  0.00    +0.000 C 
ATOM     16  O   UNL     1       7.026   4.799  19.092  0.00  0.00    +0.000 OA
ENDBRANCH   9  11
ENDBRANCH   3   5
BRANCH   2  17
ATOM     17  C   UNL     1       1.103   8.859  20.799  0.00  0.00    +0.000 C 
BRANCH  17  18
ATOM     18  C   UNL     1       1.139  10.173  20.017  0.00  0.00    +0.000 C 
BRANCH  18  19
ATOM     19  N   UNL     1      -0.134  10.860  20.051  0.00  0.00    +0.000 N 
ATOM     20  C   UNL     1      -0.543  11.728  21.046  0.00  0.00    +0.000 A 
ATOM     21  O   UNL     1       0.107  12.034  22.040  0.00  0.00    +0.000 OA
ATOM     22  O   UNL     1      -1.810  12.256  20.772  0.00  0.00    +0.000 OA
ATOM     23  C   UNL     1      -2.114  11.680  19.547  0.00  0.00    +0.000 A 
ATOM     24  C   UNL     1      -3.273  11.912  18.833  0.00  0.00    +0.000 A 
ATOM     25  C   UNL     1      -3.400  11.260  17.608  0.00  0.00    +0.000 A 
ATOM     26 CL   UNL     1      -4.818  11.504  16.661  0.00  0.00    +0.000 Cl
ATOM     27  C   UNL     1      -2.388  10.405  17.130  0.00  0.00    +0.000 A 
ATOM     28  C   UNL     1      -1.222  10.186  17.876  0.00  0.00    +0.000 A 
ATOM     29  C   UNL     1      -1.118  10.841  19.087  0.00  0.00    +0.000 A 
ENDBRANCH  18  19
ENDBRANCH  17  18
ENDBRANCH   2  17
TORSDOF 5
ENDMDL
MODEL 7
REMARK VINA RESULT:      -8.5      2.225      2.968
REMARK  Name = 
REMARK  5 active torsions:
REMARK  status: ('A' for Active; 'I' for Inactive)
REMARK    1  A    between atoms: C_2  and  C_3
REMARK    2  A    between atoms: C_3  and  C_4
REMARK    3  A    between atoms: C_4  and  N_5
REMARK    4  A    between atoms: N_16  and  C_17
REMARK    5  A    between atoms: C_21  and  N_22
REMARK                            x       y       z     vdW  Elec       q    Type
REMARK                         _______ _______ _______ _____ _____    ______ ____
ROOT
ATOM      1  O   UNL     1       1.890   4.785  18.669  0.00  0.00    +0.000 OA
ATOM      2  C   UNL     1       2.839   5.215  19.316  0.00  0.00    +0.000 C 
ATOM      3  N   UNL     1       3.071   6.544  19.655  0.00  0.00    +0.000 N 
ATOM      4  H   UNL     1       3.987   6.766  20.025  0.00  0.00    +0.000 HD
ENDROOT
BRANCH   3   5
ATOM      5  C   UNL     1       2.248   7.654  19.337  0.00  0.00    +0.000 A 
ATOM      6  C   UNL     1       2.151   8.177  18.049  0.00  0.00    +0.000 A 
ATOM      7  C   UNL     1       1.386   9.318  17.809  0.00  0.00    +0.000 A 
ATOM      8  C   UNL     1       0.725   9.954  18.859  0.00  0.00    +0.000 A 
ATOM      9  C   UNL     1       0.777   9.444  20.159  0.00  0.00    +0.000 A 
ATOM     10  C   UNL     1       1.512   8.261  20.376  0.00  0.00    +0.000 A 
BRANCH   9  11
ATOM     11  N   UNL     1       0.119  10.118  21.225  0.00  0.00    +0.000 N 
ATOM     12  C   UNL     1      -0.097   9.531  22.525  0.00  0.00    +0.000 C 
ATOM     13  C   UNL     1      -1.101  10.457  23.185  0.00  0.00    +0.000 C 
ATOM     14  C   UNL     1      -0.773  11.814  22.597  0.00  0.00    +0.000 C 
ATOM     15  C   UNL     1      -0.249  11.476  21.222  0.00  0.00    +0.000 C 
ATOM     16  O   UNL     1      -0.117  12.311  20.340  0.00  0.00    +0.000 OA
ENDBRANCH   9  11
ENDBRANCH   3   5
BRANCH   2  17
ATOM     17  C   UNL     1       3.891   4.274  19.880  0.00  0.00    +0.000 C 
BRANCH  17  18
ATOM     18  C   UNL     1       4.596   3.480  18.781  0.00  0.00    +0.000 C 
BRANCH  18  19
ATOM     19  N   UNL     1       5.614   4.262  18.111  0.00  0.00    +0.000 N 
ATOM     20  C   UNL     1       6.555   5.051  18.745  0.00  0.00    +0.000 A 
ATOM     21  O   UNL     1       6.660   5.206  19.957  0.00  0.00    +0.000 OA
ATOM     22  O   UNL     1       7.418   5.653  17.822  0.00  0.00    +0.000 OA
ATOM     23  C   UNL     1       6.959   5.152  16.613  0.00  0.00    +0.000 A 
ATOM     24  C   UNL     1       7.511   5.438  15.380  0.00  0.00    +0.000 A 
ATOM     25  C   UNL     1       6.928   4.828  14.271  0.00  0.00    +0.000 A 
ATOM     26 CL   UNL     1       7.565   5.135  12.701  0.00  0.00    +0.000 Cl
ATOM     27  C   UNL     1       5.826   3.961  14.413  0.00  0.00    +0.000 A 
ATOM     28  C   UNL     1       5.284   3.689  15.676  0.00  0.00    +0.000 A 
ATOM     29  C   UNL     1       5.877   4.306  16.760  0.00  0.00    +0.000 A 
ENDBRANCH  18  19
ENDBRANCH  17  18
ENDBRANCH   2  17
TORSDOF 5
ENDMDL
MODEL 8
REMARK VINA RESULT:      -8.4      3.267      8.772
REMARK  Name = 
REMARK  5 active torsions:
REMARK  status: ('A' for Active; 'I' for Inactive)
REMARK    1  A    between atoms: C_2  and  C_3
REMARK    2  A    between atoms: C_3  and  C_4
REMARK    3  A    between atoms: C_4  and  N_5
REMARK    4  A    between atoms: N_16  and  C_17
REMARK    5  A    between atoms: C_21  and  N_22
REMARK                            x       y       z     vdW  Elec       q    Type
REMARK                         _______ _______ _______ _____ _____    ______ ____
ROOT
ATOM      1  O   UNL     1       1.703   8.491  19.204  0.00  0.00    +0.000 OA
ATOM      2  C   UNL     1       1.439   8.186  20.362  0.00  0.00    +0.000 C 
ATOM      3  N   UNL     1       1.630   6.939  20.949  0.00  0.00    +0.000 N 
ATOM      4  H   UNL     1       1.192   6.787  21.849  0.00  0.00    +0.000 HD
ENDROOT
BRANCH   3   5
ATOM      5  C   UNL     1       2.181   5.788  20.330  0.00  0.00    +0.000 A 
ATOM      6  C   UNL     1       1.557   4.543  20.358  0.00  0.00    +0.000 A 
ATOM      7  C   UNL     1       2.182   3.429  19.799  0.00  0.00    +0.000 A 
ATOM      8  C   UNL     1       3.446   3.549  19.222  0.00  0.00    +0.000 A 
ATOM      9  C   UNL     1       4.092   4.787  19.151  0.00  0.00    +0.000 A 
ATOM     10  C   UNL     1       3.424   5.912  19.674  0.00  0.00    +0.000 A 
BRANCH   9  11
ATOM     11  N   UNL     1       5.391   4.890  18.581  0.00  0.00    +0.000 N 
ATOM     12  C   UNL     1       6.557   5.301  19.326  0.00  0.00    +0.000 C 
ATOM     13  C   UNL     1       7.596   5.584  18.257  0.00  0.00    +0.000 C 
ATOM     14  C   UNL     1       7.245   4.606  17.153  0.00  0.00    +0.000 C 
ATOM     15  C   UNL     1       5.750   4.452  17.294  0.00  0.00    +0.000 C 
ATOM     16  O   UNL     1       5.053   3.946  16.427  0.00  0.00    +0.000 OA
ENDBRANCH   9  11
ENDBRANCH   3   5
BRANCH   2  17
ATOM     17  C   UNL     1       0.889   9.213  21.337  0.00  0.00    +0.000 C 
BRANCH  17  18
ATOM     18  C   UNL     1       0.975  10.634  20.778  0.00  0.00    +0.000 C 
BRANCH  18  19
ATOM     19  N   UNL     1      -0.332  11.231  20.606  0.00  0.00    +0.000 N 
ATOM     20  C   UNL     1      -0.927  12.111  21.490  0.00  0.00    +0.000 A 
ATOM     21  O   UNL     1      -0.440  12.506  22.544  0.00  0.00    +0.000 OA
ATOM     22  O   UNL     1      -2.176  12.535  21.023  0.00  0.00    +0.000 OA
ATOM     23  C   UNL     1      -2.273  11.886  19.800  0.00  0.00    +0.000 A 
ATOM     24  C   UNL     1      -3.337  12.003  18.928  0.00  0.00    +0.000 A 
ATOM     25  C   UNL     1      -3.253  11.291  17.733  0.00  0.00    +0.000 A 
ATOM     26 CL   UNL     1      -4.541  11.392  16.594  0.00  0.00    +0.000 Cl
ATOM     27  C   UNL     1      -2.132  10.490  17.440  0.00  0.00    +0.000 A 
ATOM     28  C   UNL     1      -1.067  10.386  18.345  0.00  0.00    +0.000 A 
ATOM     29  C   UNL     1      -1.172  11.100  19.522  0.00  0.00    +0.000 A 
ENDBRANCH  18  19
ENDBRANCH  17  18
ENDBRANCH   2  17
TORSDOF 5
ENDMDL
MODEL 9
REMARK VINA RESULT:      -8.3      6.995      8.200
REMARK  Name = 
REMARK  5 active torsions:
REMARK  status: ('A' for Active; 'I' for Inactive)
REMARK    1  A    between atoms: C_2  and  C_3
REMARK    2  A    between atoms: C_3  and  C_4
REMARK    3  A    between atoms: C_4  and  N_5
REMARK    4  A    between atoms: N_16  and  C_17
REMARK    5  A    between atoms: C_21  and  N_22
REMARK                            x       y       z     vdW  Elec       q    Type
REMARK                         _______ _______ _______ _____ _____    ______ ____
ROOT
ATOM      1  O   UNL     1       8.726   7.676  19.069  0.00  0.00    +0.000 OA
ATOM      2  C   UNL     1       8.149   8.279  18.169  0.00  0.00    +0.000 C 
ATOM      3  N   UNL     1       8.235   9.641  17.903  0.00  0.00    +0.000 N 
ATOM      4  H   UNL     1       7.559  10.022  17.252  0.00  0.00    +0.000 HD
ENDROOT
BRANCH   3   5
ATOM      5  C   UNL     1       9.018  10.593  18.605  0.00  0.00    +0.000 A 
ATOM      6  C   UNL     1       9.439  10.401  19.920  0.00  0.00    +0.000 A 
ATOM      7  C   UNL     1      10.142  11.404  20.586  0.00  0.00    +0.000 A 
ATOM      8  C   UNL     1      10.414  12.615  19.948  0.00  0.00    +0.000 A 
ATOM      9  C   UNL     1      10.031  12.833  18.622  0.00  0.00    +0.000 A 
ATOM     10  C   UNL     1       9.367  11.790  17.945  0.00  0.00    +0.000 A 
BRANCH   9  11
ATOM     11  N   UNL     1      10.292  14.081  17.992  0.00  0.00    +0.000 N 
ATOM     12  C   UNL     1      11.299  14.265  16.976  0.00  0.00    +0.000 C 
ATOM     13  C   UNL     1      11.438  15.772  16.862  0.00  0.00    +0.000 C 
ATOM     14  C   UNL     1      10.047  16.281  17.181  0.00  0.00    +0.000 C 
ATOM     15  C   UNL     1       9.511  15.242  18.137  0.00  0.00    +0.000 C 
ATOM     16  O   UNL     1       8.516  15.425  18.822  0.00  0.00    +0.000 OA
ENDBRANCH   9  11
ENDBRANCH   3   5
BRANCH   2  17
ATOM     17  C   UNL     1       7.270   7.542  17.173  0.00  0.00    +0.000 C 
BRANCH  17  18
ATOM     18  C   UNL     1       7.374   6.024  17.332  0.00  0.00    +0.000 C 
BRANCH  18  19
ATOM     19  N   UNL     1       6.133   5.356  17.000  0.00  0.00    +0.000 N 
ATOM     20  C   UNL     1       5.851   4.762  15.784  0.00  0.00    +0.000 A 
ATOM     21  O   UNL     1       6.602   4.721  14.816  0.00  0.00    +0.000 OA
ATOM     22  O   UNL     1       4.582   4.172  15.789  0.00  0.00    +0.000 OA
ATOM     23  C   UNL     1       4.144   4.419  17.082  0.00  0.00    +0.000 A 
ATOM     24  C   UNL     1       2.930   4.006  17.595  0.00  0.00    +0.000 A 
ATOM     25  C   UNL     1       2.665   4.328  18.925  0.00  0.00    +0.000 A 
ATOM     26 CL   UNL     1       1.173   3.843  19.634  0.00  0.00    +0.000 Cl
ATOM     27  C   UNL     1       3.598   5.044  19.700  0.00  0.00    +0.000 A 
ATOM     28  C   UNL     1       4.822   5.454  19.153  0.00  0.00    +0.000 A 
ATOM     29  C   UNL     1       5.062   5.124  17.835  0.00  0.00    +0.000 A 
ENDBRANCH  18  19
ENDBRANCH  17  18
ENDBRANCH   2  17
TORSDOF 5
ENDMDL
