MODEL 1
REMARK VINA RESULT:      -8.3      0.000      0.000
REMARK  Name = 
REMARK  2 active torsions:
REMARK  status: ('A' for Active; 'I' for Inactive)
REMARK    1  A    between atoms: C_2  and  C_15
REMARK    2  A    between atoms: C_6  and  C_7
REMARK                            x       y       z     vdW  Elec       q    Type
REMARK                         _______ _______ _______ _____ _____    ______ ____
ROOT
ATOM      1  C   UNL     1       8.842  11.571  21.469  0.00  0.00    +0.000 A 
ATOM      2  C   UNL     1       8.807  12.736  20.844  0.00  0.00    +0.000 A 
ATOM      3  C   UNL     1       8.705  14.031  21.912  0.00  0.00    +0.000 A 
ATOM      4  C   UNL     1       8.406  14.557  23.616  0.00  0.00    +0.000 A 
ATOM      5  C   UNL     1       7.032  15.072  24.254  0.00  0.00    +0.000 A 
ATOM      6  O   UNL     1       6.046  14.786  23.538  0.00  0.00    +0.000 OA
ATOM      7  N   UNL     1       6.854  15.048  26.017  0.00  0.00    +0.000 N 
ATOM      8  C   UNL     1       7.246  15.523  27.929  0.00  0.00    +0.000 A 
ATOM      9  N   UNL     1       8.303  14.751  26.553  0.00  0.00    +0.000 NA
ATOM     10  C   UNL     1       8.588  13.752  24.701  0.00  0.00    +0.000 A 
ATOM     11  C   UNL     1       8.642  12.295  23.355  0.00  0.00    +0.000 A 
ATOM     12  C   UNL     1       6.378  14.614  27.074  0.00  0.00    +0.000 C 
ATOM     13  C   UNL     1       7.215  13.453  28.293  0.00  0.00    +0.000 C 
ATOM     14  C   UNL     1       6.667  12.235  27.595  0.00  0.00    +0.000 C 
ATOM     15  C   UNL     1       7.437  12.226  26.327  0.00  0.00    +0.000 C 
ATOM     16  C   UNL     1       6.552  13.240  25.563  0.00  0.00    +0.000 C 
ENDROOT
BRANCH   1  18
ATOM     17  O   UNL     1      10.127  10.642  19.153  0.00  0.00    +0.000 OA
ATOM     18  C   UNL     1       9.051  10.293  19.826  0.00  0.00    +0.000 C 
ATOM     19  N   UNL     1       8.568   8.897  18.581  0.00  0.00    +0.000 N 
ATOM     20  C   UNL     1       7.855   7.422  17.672  0.00  0.00    +0.000 A 
ATOM     21  N   UNL     1       7.696   6.854  16.164  0.00  0.00    +0.000 NA
ATOM     22  C   UNL     1       6.947   5.296  15.609  0.00  0.00    +0.000 A 
ATOM     23  C   UNL     1       6.759   4.651  16.821  0.00  0.00    +0.000 A 
ATOM     24  S   UNL     1       7.368   5.654  18.404  0.00  0.00    +0.000 S 
ATOM     25  H   UNL     1       9.217   9.041  17.782  0.00  0.00    +0.000 HD
BRANCH  22  26
ATOM     26  C   UNL     1       6.382   4.361  14.092  0.00  0.00    +0.000 A 
ATOM     27  C   UNL     1       5.050   4.120  13.616  0.00  0.00    +0.000 A 
ATOM     28  C   UNL     1       4.571   3.260  12.324  0.00  0.00    +0.000 A 
ATOM     29  C   UNL     1       5.392   2.581  11.468  0.00  0.00    +0.000 A 
ATOM     30  C   UNL     1       6.681   2.857  11.546  0.00  0.00    +0.000 A 
ATOM     31  C   UNL     1       7.171   3.725  12.903  0.00  0.00    +0.000 A 
ENDBRANCH  22  26
ENDBRANCH   1  18
TORSDOF 2
ENDMDL
MODEL 2
REMARK VINA RESULT:      -8.1      8.733      9.535
REMARK  Name = 
REMARK  2 active torsions:
REMARK  status: ('A' for Active; 'I' for Inactive)
REMARK    1  A    between atoms: C_2  and  C_15
REMARK    2  A    between atoms: C_6  and  C_7
REMARK                            x       y       z     vdW  Elec       q    Type
REMARK                         _______ _______ _______ _____ _____    ______ ____
ROOT
ATOM      1  C   UNL     1      -0.836  11.529  20.688  0.00  0.00    +0.000 A 
ATOM      2  C   UNL     1      -0.501  11.157  21.912  0.00  0.00    +0.000 A 
ATOM      3  C   UNL     1      -1.710  11.491  23.033  0.00  0.00    +0.000 A 
ATOM      4  C   UNL     1      -3.263  12.357  23.359  0.00  0.00    +0.000 A 
ATOM      5  C   UNL     1      -3.459  13.787  24.050  0.00  0.00    +0.000 A 
ATOM      6  O   UNL     1      -2.393  14.443  24.081  0.00  0.00    +0.000 OA
ATOM      7  N   UNL     1      -4.992  14.642  23.811  0.00  0.00    +0.000 N 
ATOM      8  C   UNL     1      -6.972  14.968  23.914  0.00  0.00    +0.000 A 
ATOM      9  N   UNL     1      -5.937  13.574  23.146  0.00  0.00    +0.000 NA
ATOM     10  C   UNL     1      -4.144  12.727  22.386  0.00  0.00    +0.000 A 
ATOM     11  C   UNL     1      -2.632  12.350  21.159  0.00  0.00    +0.000 A 
ATOM     12  C   UNL     1      -5.691  15.548  23.337  0.00  0.00    +0.000 C 
ATOM     13  C   UNL     1      -6.853  15.422  21.865  0.00  0.00    +0.000 C 
ATOM     14  C   UNL     1      -5.764  15.815  20.900  0.00  0.00    +0.000 C 
ATOM     15  C   UNL     1      -4.885  14.619  20.915  0.00  0.00    +0.000 C 
ATOM     16  C   UNL     1      -4.088  14.987  22.189  0.00  0.00    +0.000 C 
ENDROOT
BRANCH   1  18
ATOM     17  O   UNL     1       1.651  11.896  19.439  0.00  0.00    +0.000 OA
ATOM     18  C   UNL     1       0.853  10.871  19.644  0.00  0.00    +0.000 C 
ATOM     19  N   UNL     1       1.982   9.635  18.678  0.00  0.00    +0.000 N 
ATOM     20  C   UNL     1       2.850   8.157  17.922  0.00  0.00    +0.000 A 
ATOM     21  N   UNL     1       3.812   7.789  16.672  0.00  0.00    +0.000 NA
ATOM     22  C   UNL     1       4.538   6.185  16.231  0.00  0.00    +0.000 A 
ATOM     23  C   UNL     1       4.230   5.440  17.358  0.00  0.00    +0.000 A 
ATOM     24  S   UNL     1       3.257   6.418  18.765  0.00  0.00    +0.000 S 
ATOM     25  H   UNL     1       2.691  10.247  18.226  0.00  0.00    +0.000 HD
BRANCH  22  26
ATOM     26  C   UNL     1       5.466   5.280  14.883  0.00  0.00    +0.000 A 
ATOM     27  C   UNL     1       6.862   5.318  14.557  0.00  0.00    +0.000 A 
ATOM     28  C   UNL     1       7.646   4.567  13.348  0.00  0.00    +0.000 A 
ATOM     29  C   UNL     1       7.072   3.770  12.398  0.00  0.00    +0.000 A 
ATOM     30  C   UNL     1       5.834   3.375  12.632  0.00  0.00    +0.000 A 
ATOM     31  C   UNL     1       5.022   4.179  13.868  0.00  0.00    +0.000 A 
ENDBRANCH  22  26
ENDBRANCH   1  18
TORSDOF 2
ENDMDL
MODEL 3
REMARK VINA RESULT:      -7.6      9.593     10.579
REMARK  Name = 
REMARK  2 active torsions:
REMARK  status: ('A' for Active; 'I' for Inactive)
REMARK    1  A    between atoms: C_2  and  C_15
REMARK    2  A    between atoms: C_6  and  C_7
REMARK                            x       y       z     vdW  Elec       q    Type
REMARK                         _______ _______ _______ _____ _____    ______ ____
ROOT
ATOM      1  C   UNL     1      -1.867  12.969  21.175  0.00  0.00    +0.000 A 
ATOM      2  C   UNL     1      -1.867  12.494  22.409  0.00  0.00    +0.000 A 
ATOM      3  C   UNL     1      -3.216  12.991  23.283  0.00  0.00    +0.000 A 
ATOM      4  C   UNL     1      -4.639  14.104  23.352  0.00  0.00    +0.000 A 
ATOM      5  C   UNL     1      -4.741  15.517  24.096  0.00  0.00    +0.000 A 
ATOM      6  O   UNL     1      -3.613  15.973  24.394  0.00  0.00    +0.000 OA
ATOM      7  N   UNL     1      -6.026  16.638  23.616  0.00  0.00    +0.000 N 
ATOM      8  C   UNL     1      -7.900  17.305  23.340  0.00  0.00    +0.000 A 
ATOM      9  N   UNL     1      -6.969  15.782  22.693  0.00  0.00    +0.000 NA
ATOM     10  C   UNL     1      -5.219  14.662  22.252  0.00  0.00    +0.000 A 
ATOM     11  C   UNL     1      -3.562  14.074  21.332  0.00  0.00    +0.000 A 
ATOM     12  C   UNL     1      -6.448  17.672  23.082  0.00  0.00    +0.000 C 
ATOM     13  C   UNL     1      -7.274  17.814  21.399  0.00  0.00    +0.000 C 
ATOM     14  C   UNL     1      -5.954  18.046  20.708  0.00  0.00    +0.000 C 
ATOM     15  C   UNL     1      -5.308  16.714  20.810  0.00  0.00    +0.000 C 
ATOM     16  C   UNL     1      -4.751  16.883  22.244  0.00  0.00    +0.000 C 
ENDROOT
BRANCH   1  18
ATOM     17  O   UNL     1       0.808  12.983  20.325  0.00  0.00    +0.000 OA
ATOM     18  C   UNL     1      -0.126  12.065  20.449  0.00  0.00    +0.000 C 
ATOM     19  N   UNL     1       0.987  10.654  19.737  0.00  0.00    +0.000 N 
ATOM     20  C   UNL     1       1.783   9.044  19.203  0.00  0.00    +0.000 A 
ATOM     21  N   UNL     1       2.876   8.493  18.143  0.00  0.00    +0.000 NA
ATOM     22  C   UNL     1       3.470   6.795  17.902  0.00  0.00    +0.000 A 
ATOM     23  C   UNL     1       2.906   6.163  18.999  0.00  0.00    +0.000 A 
ATOM     24  S   UNL     1       1.849   7.332  20.183  0.00  0.00    +0.000 S 
ATOM     25  H   UNL     1       1.823  11.155  19.376  0.00  0.00    +0.000 HD
BRANCH  22  26
ATOM     26  C   UNL     1       4.482   5.708  16.766  0.00  0.00    +0.000 A 
ATOM     27  C   UNL     1       4.692   4.290  16.814  0.00  0.00    +0.000 A 
ATOM     28  C   UNL     1       5.618   3.365  15.851  0.00  0.00    +0.000 A 
ATOM     29  C   UNL     1       6.395   3.813  14.820  0.00  0.00    +0.000 A 
ATOM     30  C   UNL     1       6.176   5.051  14.414  0.00  0.00    +0.000 A 
ATOM     31  C   UNL     1       5.238   6.009  15.433  0.00  0.00    +0.000 A 
ENDBRANCH  22  26
ENDBRANCH   1  18
TORSDOF 2
ENDMDL
MODEL 4
REMARK VINA RESULT:      -7.6      9.191     14.649
REMARK  Name = 
REMARK  2 active torsions:
REMARK  status: ('A' for Active; 'I' for Inactive)
REMARK    1  A    between atoms: C_2  and  C_15
REMARK    2  A    between atoms: C_6  and  C_7
REMARK                            x       y       z     vdW  Elec       q    Type
REMARK                         _______ _______ _______ _____ _____    ______ ____
ROOT
ATOM      1  C   UNL     1       1.332   8.552  18.498  0.00  0.00    +0.000 A 
ATOM      2  C   UNL     1       2.500   8.918  17.998  0.00  0.00    +0.000 A 
ATOM      3  C   UNL     1       3.447   7.600  17.558  0.00  0.00    +0.000 A 
ATOM      4  C   UNL     1       3.671   5.808  17.652  0.00  0.00    +0.000 A 
ATOM      5  C   UNL     1       4.580   4.988  18.682  0.00  0.00    +0.000 A 
ATOM      6  O   UNL     1       4.914   5.683  19.669  0.00  0.00    +0.000 OA
ATOM      7  N   UNL     1       4.258   3.261  18.911  0.00  0.00    +0.000 N 
ATOM      8  C   UNL     1       4.091   1.322  18.415  0.00  0.00    +0.000 A 
ATOM      9  N   UNL     1       3.253   2.894  17.758  0.00  0.00    +0.000 NA
ATOM     10  C   UNL     1       2.654   4.928  17.878  0.00  0.00    +0.000 A 
ATOM     11  C   UNL     1       1.646   6.548  18.423  0.00  0.00    +0.000 A 
ATOM     12  C   UNL     1       3.857   2.289  19.564  0.00  0.00    +0.000 C 
ATOM     13  C   UNL     1       2.216   1.394  19.362  0.00  0.00    +0.000 C 
ATOM     14  C   UNL     1       1.539   2.293  20.365  0.00  0.00    +0.000 C 
ATOM     15  C   UNL     1       1.470   3.583  19.635  0.00  0.00    +0.000 C 
ATOM     16  C   UNL     1       2.906   4.061  19.960  0.00  0.00    +0.000 C 
ENDROOT
BRANCH   1  18
ATOM     17  O   UNL     1       1.364  11.358  18.510  0.00  0.00    +0.000 OA
ATOM     18  C   UNL     1       0.478  10.435  18.815  0.00  0.00    +0.000 C 
ATOM     19  N   UNL     1      -0.852  11.716  19.385  0.00  0.00    +0.000 N 
ATOM     20  C   UNL     1      -2.393  12.643  19.911  0.00  0.00    +0.000 A 
ATOM     21  N   UNL     1      -2.820  14.004  20.677  0.00  0.00    +0.000 NA
ATOM     22  C   UNL     1      -4.484  14.651  21.002  0.00  0.00    +0.000 A 
ATOM     23  C   UNL     1      -5.253  13.791  20.234  0.00  0.00    +0.000 A 
ATOM     24  S   UNL     1      -4.238  12.424  19.242  0.00  0.00    +0.000 S 
ATOM     25  H   UNL     1      -0.338  12.619  19.399  0.00  0.00    +0.000 HD
BRANCH  22  26
ATOM     26  C   UNL     1      -5.425  15.961  21.949  0.00  0.00    +0.000 A 
ATOM     27  C   UNL     1      -6.673  15.856  22.649  0.00  0.00    +0.000 A 
ATOM     28  C   UNL     1      -7.506  17.016  23.422  0.00  0.00    +0.000 A 
ATOM     29  C   UNL     1      -7.150  18.333  23.509  0.00  0.00    +0.000 A 
ATOM     30  C   UNL     1      -5.911  18.631  23.161  0.00  0.00    +0.000 A 
ATOM     31  C   UNL     1      -5.066  17.431  22.335  0.00  0.00    +0.000 A 
ENDBRANCH  22  26
ENDBRANCH   1  18
TORSDOF 2
ENDMDL
MODEL 5
REMARK VINA RESULT:      -7.5      9.282     10.107
REMARK  Name = 
REMARK  2 active torsions:
REMARK  status: ('A' for Active; 'I' for Inactive)
REMARK    1  A    between atoms: C_2  and  C_15
REMARK    2  A    between atoms: C_6  and  C_7
REMARK                            x       y       z     vdW  Elec       q    Type
REMARK                         _______ _______ _______ _____ _____    ______ ____
ROOT
ATOM      1  C   UNL     1      -1.385  11.747  20.900  0.00  0.00    +0.000 A 
ATOM      2  C   UNL     1      -1.087  11.500  22.165  0.00  0.00    +0.000 A 
ATOM      3  C   UNL     1      -2.354  11.877  23.204  0.00  0.00    +0.000 A 
ATOM      4  C   UNL     1      -3.953  12.699  23.393  0.00  0.00    +0.000 A 
ATOM      5  C   UNL     1      -4.237  14.174  23.944  0.00  0.00    +0.000 A 
ATOM      6  O   UNL     1      -3.200  14.877  23.957  0.00  0.00    +0.000 OA
ATOM      7  N   UNL     1      -5.792  14.936  23.572  0.00  0.00    +0.000 N 
ATOM      8  C   UNL     1      -7.786  15.182  23.571  0.00  0.00    +0.000 A 
ATOM      9  N   UNL     1      -6.664  13.772  22.970  0.00  0.00    +0.000 NA
ATOM     10  C   UNL     1      -4.808  12.942  22.358  0.00  0.00    +0.000 A 
ATOM     11  C   UNL     1      -3.231  12.526  21.228  0.00  0.00    +0.000 A 
ATOM     12  C   UNL     1      -6.506  15.765  22.993  0.00  0.00    +0.000 C 
ATOM     13  C   UNL     1      -7.601  15.458  21.495  0.00  0.00    +0.000 C 
ATOM     14  C   UNL     1      -6.489  15.812  20.540  0.00  0.00    +0.000 C 
ATOM     15  C   UNL     1      -5.564  14.662  20.696  0.00  0.00    +0.000 C 
ATOM     16  C   UNL     1      -4.836  15.176  21.961  0.00  0.00    +0.000 C 
ENDROOT
BRANCH   1  18
ATOM     17  O   UNL     1       1.211  12.082  19.889  0.00  0.00    +0.000 OA
ATOM     18  C   UNL     1       0.371  11.075  19.985  0.00  0.00    +0.000 C 
ATOM     19  N   UNL     1       1.547   9.841  19.074  0.00  0.00    +0.000 N 
ATOM     20  C   UNL     1       2.438   8.364  18.342  0.00  0.00    +0.000 A 
ATOM     21  N   UNL     1       3.497   8.012  17.169  0.00  0.00    +0.000 NA
ATOM     22  C   UNL     1       4.215   6.403  16.732  0.00  0.00    +0.000 A 
ATOM     23  C   UNL     1       3.788   5.628  17.798  0.00  0.00    +0.000 A 
ATOM     24  S   UNL     1       2.721   6.585  19.151  0.00  0.00    +0.000 S 
ATOM     25  H   UNL     1       2.309  10.446  18.711  0.00  0.00    +0.000 HD
BRANCH  22  26
ATOM     26  C   UNL     1       5.234   5.518  15.437  0.00  0.00    +0.000 A 
ATOM     27  C   UNL     1       4.839   4.494  14.513  0.00  0.00    +0.000 A 
ATOM     28  C   UNL     1       5.748   3.696  13.430  0.00  0.00    +0.000 A 
ATOM     29  C   UNL     1       7.091   3.860  13.237  0.00  0.00    +0.000 A 
ATOM     30  C   UNL     1       7.637   4.928  13.792  0.00  0.00    +0.000 A 
ATOM     31  C   UNL     1       6.697   5.731  14.934  0.00  0.00    +0.000 A 
ENDBRANCH  22  26
ENDBRANCH   1  18
TORSDOF 2
ENDMDL
MODEL 6
REMARK VINA RESULT:      -7.3      9.807     14.933
REMARK  Name = 
REMARK  2 active torsions:
REMARK  status: ('A' for Active; 'I' for Inactive)
REMARK    1  A    between atoms: C_2  and  C_15
REMARK    2  A    between atoms: C_6  and  C_7
REMARK                            x       y       z     vdW  Elec       q    Type
REMARK                         _______ _______ _______ _____ _____    ______ ____
ROOT
ATOM      1  C   UNL     1       1.171   8.554  19.919  0.00  0.00    +0.000 A 
ATOM      2  C   UNL     1       0.581   8.043  20.986  0.00  0.00    +0.000 A 
ATOM      3  C   UNL     1       1.158   6.508  21.360  0.00  0.00    +0.000 A 
ATOM      4  C   UNL     1       2.135   5.091  20.808  0.00  0.00    +0.000 A 
ATOM      5  C   UNL     1       1.609   3.753  20.108  0.00  0.00    +0.000 A 
ATOM      6  O   UNL     1       0.444   3.881  19.666  0.00  0.00    +0.000 OA
ATOM      7  N   UNL     1       2.766   2.751  19.214  0.00  0.00    +0.000 N 
ATOM      8  C   UNL     1       4.371   1.578  18.926  0.00  0.00    +0.000 A 
ATOM      9  N   UNL     1       4.173   3.345  19.592  0.00  0.00    +0.000 NA
ATOM     10  C   UNL     1       3.124   5.171  19.872  0.00  0.00    +0.000 A 
ATOM     11  C   UNL     1       2.329   6.946  19.480  0.00  0.00    +0.000 A 
ATOM     12  C   UNL     1       3.248   2.278  18.177  0.00  0.00    +0.000 C 
ATOM     13  C   UNL     1       4.816   2.841  17.305  0.00  0.00    +0.000 C 
ATOM     14  C   UNL     1       4.055   3.825  16.453  0.00  0.00    +0.000 C 
ATOM     15  C   UNL     1       3.663   4.860  17.441  0.00  0.00    +0.000 C 
ATOM     16  C   UNL     1       2.407   4.137  17.983  0.00  0.00    +0.000 C 
ENDROOT
BRANCH   1  18
ATOM     17  O   UNL     1       1.152  11.338  19.561  0.00  0.00    +0.000 OA
ATOM     18  C   UNL     1       0.250  10.431  19.871  0.00  0.00    +0.000 C 
ATOM     19  N   UNL     1      -1.166  11.729  20.091  0.00  0.00    +0.000 N 
ATOM     20  C   UNL     1      -2.778  12.663  20.288  0.00  0.00    +0.000 A 
ATOM     21  N   UNL     1      -3.325  14.096  20.805  0.00  0.00    +0.000 NA
ATOM     22  C   UNL     1      -5.029  14.722  20.826  0.00  0.00    +0.000 A 
ATOM     23  C   UNL     1      -5.676  13.744  20.088  0.00  0.00    +0.000 A 
ATOM     24  S   UNL     1      -4.515  12.295  19.424  0.00  0.00    +0.000 S 
ATOM     25  H   UNL     1      -0.673  12.643  20.050  0.00  0.00    +0.000 HD
BRANCH  22  26
ATOM     26  C   UNL     1      -6.108  16.110  21.462  0.00  0.00    +0.000 A 
ATOM     27  C   UNL     1      -6.534  17.309  20.798  0.00  0.00    +0.000 A 
ATOM     28  C   UNL     1      -7.428  18.532  21.382  0.00  0.00    +0.000 A 
ATOM     29  C   UNL     1      -7.913  18.631  22.656  0.00  0.00    +0.000 A 
ATOM     30  C   UNL     1      -7.870  17.531  23.387  0.00  0.00    +0.000 A 
ATOM     31  C   UNL     1      -6.918  16.280  22.787  0.00  0.00    +0.000 A 
ENDBRANCH  22  26
ENDBRANCH   1  18
TORSDOF 2
ENDMDL
MODEL 7
REMARK VINA RESULT:      -7.3      8.280      9.018
REMARK  Name = 
REMARK  2 active torsions:
REMARK  status: ('A' for Active; 'I' for Inactive)
REMARK    1  A    between atoms: C_2  and  C_15
REMARK    2  A    between atoms: C_6  and  C_7
REMARK                            x       y       z     vdW  Elec       q    Type
REMARK                         _______ _______ _______ _____ _____    ______ ____
ROOT
ATOM      1  C   UNL     1      -0.327  11.421  20.353  0.00  0.00    +0.000 A 
ATOM      2  C   UNL     1       0.085  11.050  21.553  0.00  0.00    +0.000 A 
ATOM      3  C   UNL     1      -1.042  11.399  22.751  0.00  0.00    +0.000 A 
ATOM      4  C   UNL     1      -2.562  12.280  23.178  0.00  0.00    +0.000 A 
ATOM      5  C   UNL     1      -2.699  13.714  23.875  0.00  0.00    +0.000 A 
ATOM      6  O   UNL     1      -1.627  14.361  23.832  0.00  0.00    +0.000 OA
ATOM      7  N   UNL     1      -4.237  14.581  23.736  0.00  0.00    +0.000 N 
ATOM      8  C   UNL     1      -6.202  14.926  23.972  0.00  0.00    +0.000 A 
ATOM      9  N   UNL     1      -5.234  13.520  23.141  0.00  0.00    +0.000 NA
ATOM     10  C   UNL     1      -3.503  12.654  22.265  0.00  0.00    +0.000 A 
ATOM     11  C   UNL     1      -2.080  12.260  20.940  0.00  0.00    +0.000 A 
ATOM     12  C   UNL     1      -4.958  15.492  23.307  0.00  0.00    +0.000 C 
ATOM     13  C   UNL     1      -6.218  15.372  21.917  0.00  0.00    +0.000 C 
ATOM     14  C   UNL     1      -5.193  15.751  20.879  0.00  0.00    +0.000 C 
ATOM     15  C   UNL     1      -4.326  14.548  20.840  0.00  0.00    +0.000 C 
ATOM     16  C   UNL     1      -3.441  14.913  22.056  0.00  0.00    +0.000 C 
ENDROOT
BRANCH   1  18
ATOM     17  O   UNL     1       2.027  11.776  18.866  0.00  0.00    +0.000 OA
ATOM     18  C   UNL     1       1.282  10.744  19.200  0.00  0.00    +0.000 C 
ATOM     19  N   UNL     1       2.357   9.482  18.207  0.00  0.00    +0.000 N 
ATOM     20  C   UNL     1       3.199   7.984  17.461  0.00  0.00    +0.000 A 
ATOM     21  N   UNL     1       4.057   7.567  16.153  0.00  0.00    +0.000 NA
ATOM     22  C   UNL     1       4.789   5.958  15.739  0.00  0.00    +0.000 A 
ATOM     23  C   UNL     1       4.604   5.273  16.930  0.00  0.00    +0.000 A 
ATOM     24  S   UNL     1       3.730   6.309  18.361  0.00  0.00    +0.000 S 
ATOM     25  H   UNL     1       3.004  10.084  17.660  0.00  0.00    +0.000 HD
BRANCH  22  26
ATOM     26  C   UNL     1       5.620   4.998  14.367  0.00  0.00    +0.000 A 
ATOM     27  C   UNL     1       5.083   3.971  13.522  0.00  0.00    +0.000 A 
ATOM     28  C   UNL     1       5.833   3.107  12.368  0.00  0.00    +0.000 A 
ATOM     29  C   UNL     1       7.152   3.207  12.026  0.00  0.00    +0.000 A 
ATOM     30  C   UNL     1       7.800   4.262  12.486  0.00  0.00    +0.000 A 
ATOM     31  C   UNL     1       7.027   5.133  13.701  0.00  0.00    +0.000 A 
ENDBRANCH  22  26
ENDBRANCH   1  18
TORSDOF 2
ENDMDL
MODEL 8
REMARK VINA RESULT:      -7.2      8.970      9.707
REMARK  Name = 
REMARK  2 active torsions:
REMARK  status: ('A' for Active; 'I' for Inactive)
REMARK    1  A    between atoms: C_2  and  C_15
REMARK    2  A    between atoms: C_6  and  C_7
REMARK                            x       y       z     vdW  Elec       q    Type
REMARK                         _______ _______ _______ _____ _____    ______ ____
ROOT
ATOM      1  C   UNL     1      -0.679  11.594  20.762  0.00  0.00    +0.000 A 
ATOM      2  C   UNL     1      -0.069  12.354  21.656  0.00  0.00    +0.000 A 
ATOM      3  C   UNL     1      -1.142  13.017  22.768  0.00  0.00    +0.000 A 
ATOM      4  C   UNL     1      -2.872  13.329  23.189  0.00  0.00    +0.000 A 
ATOM      5  C   UNL     1      -3.721  14.658  22.917  0.00  0.00    +0.000 A 
ATOM      6  O   UNL     1      -3.169  15.403  22.076  0.00  0.00    +0.000 OA
ATOM      7  N   UNL     1      -5.489  14.558  22.952  0.00  0.00    +0.000 N 
ATOM      8  C   UNL     1      -7.316  14.248  23.728  0.00  0.00    +0.000 A 
ATOM      9  N   UNL     1      -5.789  13.133  23.548  0.00  0.00    +0.000 NA
ATOM     10  C   UNL     1      -3.914  12.588  22.714  0.00  0.00    +0.000 A 
ATOM     11  C   UNL     1      -2.574  11.911  21.417  0.00  0.00    +0.000 A 
ATOM     12  C   UNL     1      -6.608  14.567  22.422  0.00  0.00    +0.000 C 
ATOM     13  C   UNL     1      -7.677  13.073  22.023  0.00  0.00    +0.000 C 
ATOM     14  C   UNL     1      -7.073  12.937  20.648  0.00  0.00    +0.000 C 
ATOM     15  C   UNL     1      -5.699  12.469  20.955  0.00  0.00    +0.000 C 
ATOM     16  C   UNL     1      -5.086  13.860  21.245  0.00  0.00    +0.000 C 
ENDROOT
BRANCH   1  18
ATOM     17  O   UNL     1       1.763  11.956  19.427  0.00  0.00    +0.000 OA
ATOM     18  C   UNL     1       0.978  10.929  19.673  0.00  0.00    +0.000 C 
ATOM     19  N   UNL     1       2.082   9.686  18.687  0.00  0.00    +0.000 N 
ATOM     20  C   UNL     1       2.933   8.201  17.924  0.00  0.00    +0.000 A 
ATOM     21  N   UNL     1       3.855   7.820  16.649  0.00  0.00    +0.000 NA
ATOM     22  C   UNL     1       4.575   6.214  16.206  0.00  0.00    +0.000 A 
ATOM     23  C   UNL     1       4.308   5.483  17.353  0.00  0.00    +0.000 A 
ATOM     24  S   UNL     1       3.376   6.476  18.778  0.00  0.00    +0.000 S 
ATOM     25  H   UNL     1       2.772  10.294  18.204  0.00  0.00    +0.000 HD
BRANCH  22  26
ATOM     26  C   UNL     1       5.463   5.294  14.842  0.00  0.00    +0.000 A 
ATOM     27  C   UNL     1       6.820   5.420  14.394  0.00  0.00    +0.000 A 
ATOM     28  C   UNL     1       7.563   4.651  13.171  0.00  0.00    +0.000 A 
ATOM     29  C   UNL     1       6.983   3.748  12.325  0.00  0.00    +0.000 A 
ATOM     30  C   UNL     1       5.806   3.273  12.690  0.00  0.00    +0.000 A 
ATOM     31  C   UNL     1       5.032   4.094  13.939  0.00  0.00    +0.000 A 
ENDBRANCH  22  26
ENDBRANCH   1  18
TORSDOF 2
ENDMDL
MODEL 9
REMARK VINA RESULT:      -6.9      9.503     14.969
REMARK  Name = 
REMARK  2 active torsions:
REMARK  status: ('A' for Active; 'I' for Inactive)
REMARK    1  A    between atoms: C_2  and  C_15
REMARK    2  A    between atoms: C_6  and  C_7
REMARK                            x       y       z     vdW  Elec       q    Type
REMARK                         _______ _______ _______ _____ _____    ______ ____
ROOT
ATOM      1  C   UNL     1       1.337   8.698  20.310  0.00  0.00    +0.000 A 
ATOM      2  C   UNL     1       0.663   8.090  21.271  0.00  0.00    +0.000 A 
ATOM      3  C   UNL     1       1.160   6.498  21.490  0.00  0.00    +0.000 A 
ATOM      4  C   UNL     1       2.118   5.115  20.828  0.00  0.00    +0.000 A 
ATOM      5  C   UNL     1       1.588   3.893  19.942  0.00  0.00    +0.000 A 
ATOM      6  O   UNL     1       0.459   4.123  19.453  0.00  0.00    +0.000 OA
ATOM      7  N   UNL     1       2.761   2.955  19.002  0.00  0.00    +0.000 N 
ATOM      8  C   UNL     1       4.337   1.756  18.667  0.00  0.00    +0.000 A 
ATOM      9  N   UNL     1       4.162   3.439  19.528  0.00  0.00    +0.000 NA
ATOM     10  C   UNL     1       3.165   5.262  19.967  0.00  0.00    +0.000 A 
ATOM     11  C   UNL     1       2.461   7.104  19.747  0.00  0.00    +0.000 A 
ATOM     12  C   UNL     1       3.290   2.588  17.944  0.00  0.00    +0.000 C 
ATOM     13  C   UNL     1       4.928   3.181  17.238  0.00  0.00    +0.000 C 
ATOM     14  C   UNL     1       4.258   4.291  16.469  0.00  0.00    +0.000 C 
ATOM     15  C   UNL     1       3.843   5.218  17.551  0.00  0.00    +0.000 C 
ATOM     16  C   UNL     1       2.529   4.491  17.929  0.00  0.00    +0.000 C 
ENDROOT
BRANCH   1  18
ATOM     17  O   UNL     1       1.439  11.502  20.281  0.00  0.00    +0.000 OA
ATOM     18  C   UNL     1       0.489  10.606  20.436  0.00  0.00    +0.000 C 
ATOM     19  N   UNL     1      -0.888  11.928  20.734  0.00  0.00    +0.000 N 
ATOM     20  C   UNL     1      -2.474  12.901  20.959  0.00  0.00    +0.000 A 
ATOM     21  N   UNL     1      -2.996  14.288  21.612  0.00  0.00    +0.000 NA
ATOM     22  C   UNL     1      -4.674  14.979  21.619  0.00  0.00    +0.000 A 
ATOM     23  C   UNL     1      -5.314  14.121  20.740  0.00  0.00    +0.000 A 
ATOM     24  S   UNL     1      -4.173  12.711  19.971  0.00  0.00    +0.000 S 
ATOM     25  H   UNL     1      -0.361  12.819  20.826  0.00  0.00    +0.000 HD
BRANCH  22  26
ATOM     26  C   UNL     1      -5.736  16.330  22.359  0.00  0.00    +0.000 A 
ATOM     27  C   UNL     1      -5.610  16.995  23.623  0.00  0.00    +0.000 A 
ATOM     28  C   UNL     1      -6.571  18.130  24.276  0.00  0.00    +0.000 A 
ATOM     29  C   UNL     1      -7.713  18.630  23.715  0.00  0.00    +0.000 A 
ATOM     30  C   UNL     1      -7.905  18.359  22.436  0.00  0.00    +0.000 A 
ATOM     31  C   UNL     1      -6.922  17.162  21.777  0.00  0.00    +0.000 A 
ENDBRANCH  22  26
ENDBRANCH   1  18
TORSDOF 2
ENDMDL
