MODEL 1
REMARK VINA RESULT:      -9.0      0.000      0.000
REMARK  Name = 
REMARK  5 active torsions:
REMARK  status: ('A' for Active; 'I' for Inactive)
REMARK    1  A    between atoms: C_1  and  C_2
REMARK    2  A    between atoms: C_5  and  C_6
REMARK    3  A    between atoms: C_13  and  C_14
REMARK    4  A    between atoms: N_16  and  C_17
REMARK    5  A    between atoms: C_17  and  C_18
REMARK                            x       y       z     vdW  Elec       q    Type
REMARK                         _______ _______ _______ _____ _____    ______ ____
ROOT
ATOM      1  C   UNL     1       4.052   6.758  17.645  0.00  0.00    +0.000 C 
ATOM      2  O   UNL     1       4.210   7.131  16.487  0.00  0.00    +0.000 OA
ATOM      3  N   UNL     1       3.065   7.285  18.436  0.00  0.00    +0.000 N 
ATOM      4  H   UNL     1       2.995   7.081  19.424  0.00  0.00    +0.000 HD
ENDROOT
BRANCH   1  10
ATOM      5  C   UNL     1       7.395   6.573  17.670  0.00  0.00    +0.000 C 
ATOM      6  C   UNL     1       6.316   5.755  18.257  0.00  0.00    +0.000 A 
ATOM      7  O   UNL     1       6.746   4.710  19.005  0.00  0.00    +0.000 OA
ATOM      8  N   UNL     1       5.674   4.004  19.477  0.00  0.00    +0.000 NA
ATOM      9  C   UNL     1       4.567   4.639  19.062  0.00  0.00    +0.000 A 
ATOM     10  C   UNL     1       4.934   5.784  18.263  0.00  0.00    +0.000 A 
BRANCH   9  11
ATOM     11  C   UNL     1       3.235   4.078  19.349  0.00  0.00    +0.000 A 
ATOM     12  C   UNL     1       2.700   4.217  20.646  0.00  0.00    +0.000 A 
ATOM     13  C   UNL     1       1.425   3.747  20.970  0.00  0.00    +0.000 A 
ATOM     14  C   UNL     1       0.633   3.171  19.990  0.00  0.00    +0.000 A 
ATOM     15  C   UNL     1       1.129   3.029  18.697  0.00  0.00    +0.000 A 
ATOM     16  C   UNL     1       2.426   3.458  18.376  0.00  0.00    +0.000 A 
ATOM     17 CL   UNL     1       2.942   3.131  16.753  0.00  0.00    +0.000 Cl
ENDBRANCH   9  11
ENDBRANCH   1  10
BRANCH   3  18
ATOM     18  C   UNL     1       2.206   8.341  17.947  0.00  0.00    +0.000 C 
BRANCH  18  19
ATOM     19  C   UNL     1       1.485   8.951  19.098  0.00  0.00    +0.000 A 
ATOM     20  C   UNL     1       0.762  10.126  19.125  0.00  0.00    +0.000 A 
ATOM     21  N   UNL     1       0.289  10.245  20.405  0.00  0.00    +0.000 N 
ATOM     22  C   UNL     1      -0.501  11.245  20.969  0.00  0.00    +0.000 A 
ATOM     23  C   UNL     1      -0.842  11.149  22.267  0.00  0.00    +0.000 A 
ATOM     24  C   UNL     1      -0.383  10.008  23.036  0.00  0.00    +0.000 A 
ATOM     25  C   UNL     1       0.385   9.043  22.480  0.00  0.00    +0.000 A 
ATOM     26  C   UNL     1       0.751   9.137  21.111  0.00  0.00    +0.000 A 
ATOM     27  N   UNL     1       1.474   8.345  20.342  0.00  0.00    +0.000 NA
ENDBRANCH  18  19
ENDBRANCH   3  18
TORSDOF 4
ENDMDL
MODEL 2
REMARK VINA RESULT:      -8.9      1.937      3.724
REMARK  Name = 
REMARK  5 active torsions:
REMARK  status: ('A' for Active; 'I' for Inactive)
REMARK    1  A    between atoms: C_1  and  C_2
REMARK    2  A    between atoms: C_5  and  C_6
REMARK    3  A    between atoms: C_13  and  C_14
REMARK    4  A    between atoms: N_16  and  C_17
REMARK    5  A    between atoms: C_17  and  C_18
REMARK                            x       y       z     vdW  Elec       q    Type
REMARK                         _______ _______ _______ _____ _____    ______ ____
ROOT
ATOM      1  C   UNL     1       2.490   5.449  18.678  0.00  0.00    +0.000 C 
ATOM      2  O   UNL     1       1.599   5.271  17.853  0.00  0.00    +0.000 OA
ATOM      3  N   UNL     1       2.881   6.711  19.044  0.00  0.00    +0.000 N 
ATOM      4  H   UNL     1       3.690   6.880  19.627  0.00  0.00    +0.000 HD
ENDROOT
BRANCH   1  10
ATOM      5  C   UNL     1       1.777   3.577  21.361  0.00  0.00    +0.000 C 
ATOM      6  C   UNL     1       2.878   3.587  20.377  0.00  0.00    +0.000 A 
ATOM      7  O   UNL     1       3.801   2.612  20.557  0.00  0.00    +0.000 OA
ATOM      8  N   UNL     1       4.787   2.726  19.616  0.00  0.00    +0.000 NA
ATOM      9  C   UNL     1       4.453   3.750  18.814  0.00  0.00    +0.000 A 
ATOM     10  C   UNL     1       3.219   4.342  19.271  0.00  0.00    +0.000 A 
BRANCH   9  11
ATOM     11  C   UNL     1       5.360   4.176  17.735  0.00  0.00    +0.000 A 
ATOM     12  C   UNL     1       5.080   3.783  16.411  0.00  0.00    +0.000 A 
ATOM     13  C   UNL     1       5.876   4.191  15.338  0.00  0.00    +0.000 A 
ATOM     14  C   UNL     1       6.945   5.046  15.558  0.00  0.00    +0.000 A 
ATOM     15  C   UNL     1       7.241   5.460  16.853  0.00  0.00    +0.000 A 
ATOM     16  C   UNL     1       6.472   5.017  17.941  0.00  0.00    +0.000 A 
ATOM     17 CL   UNL     1       7.015   5.539  19.503  0.00  0.00    +0.000 Cl
ENDBRANCH   9  11
ENDBRANCH   1  10
BRANCH   3  18
ATOM     18  C   UNL     1       2.292   7.879  18.427  0.00  0.00    +0.000 C 
BRANCH  18  19
ATOM     19  C   UNL     1       1.519   8.631  19.454  0.00  0.00    +0.000 A 
ATOM     20  C   UNL     1       0.843   9.825  19.305  0.00  0.00    +0.000 A 
ATOM     21  N   UNL     1       0.290  10.096  20.529  0.00  0.00    +0.000 N 
ATOM     22  C   UNL     1      -0.496  11.175  20.927  0.00  0.00    +0.000 A 
ATOM     23  C   UNL     1      -0.928  11.230  22.200  0.00  0.00    +0.000 A 
ATOM     24  C   UNL     1      -0.568  10.163  23.115  0.00  0.00    +0.000 A 
ATOM     25  C   UNL     1       0.197   9.119  22.719  0.00  0.00    +0.000 A 
ATOM     26  C   UNL     1       0.658   9.055  21.377  0.00  0.00    +0.000 A 
ATOM     27  N   UNL     1       1.400   8.163  20.749  0.00  0.00    +0.000 NA
ENDBRANCH  18  19
ENDBRANCH   3  18
TORSDOF 4
ENDMDL
MODEL 3
REMARK VINA RESULT:      -8.9      1.059      1.423
REMARK  Name = 
REMARK  5 active torsions:
REMARK  status: ('A' for Active; 'I' for Inactive)
REMARK    1  A    between atoms: C_1  and  C_2
REMARK    2  A    between atoms: C_5  and  C_6
REMARK    3  A    between atoms: C_13  and  C_14
REMARK    4  A    between atoms: N_16  and  C_17
REMARK    5  A    between atoms: C_17  and  C_18
REMARK                            x       y       z     vdW  Elec       q    Type
REMARK                         _______ _______ _______ _____ _____    ______ ____
ROOT
ATOM      1  C   UNL     1       4.145   6.686  17.604  0.00  0.00    +0.000 C 
ATOM      2  O   UNL     1       4.338   7.047  16.447  0.00  0.00    +0.000 OA
ATOM      3  N   UNL     1       3.149   7.237  18.367  0.00  0.00    +0.000 N 
ATOM      4  H   UNL     1       3.052   7.042  19.354  0.00  0.00    +0.000 HD
ENDROOT
BRANCH   1  10
ATOM      5  C   UNL     1       7.448   6.695  18.148  0.00  0.00    +0.000 C 
ATOM      6  C   UNL     1       6.357   5.752  18.464  0.00  0.00    +0.000 A 
ATOM      7  O   UNL     1       6.745   4.655  19.156  0.00  0.00    +0.000 OA
ATOM      8  N   UNL     1       5.671   3.837  19.373  0.00  0.00    +0.000 NA
ATOM      9  C   UNL     1       4.595   4.450  18.853  0.00  0.00    +0.000 A 
ATOM     10  C   UNL     1       4.993   5.700  18.250  0.00  0.00    +0.000 A 
BRANCH   9  11
ATOM     11  C   UNL     1       3.283   3.783  18.862  0.00  0.00    +0.000 A 
ATOM     12  C   UNL     1       3.000   2.817  17.875  0.00  0.00    +0.000 A 
ATOM     13  C   UNL     1       1.792   2.116  17.855  0.00  0.00    +0.000 A 
ATOM     14  C   UNL     1       0.855   2.329  18.853  0.00  0.00    +0.000 A 
ATOM     15  C   UNL     1       1.109   3.269  19.849  0.00  0.00    +0.000 A 
ATOM     16  C   UNL     1       2.302   4.008  19.848  0.00  0.00    +0.000 A 
ATOM     17 CL   UNL     1       2.438   5.209  21.092  0.00  0.00    +0.000 Cl
ENDBRANCH   9  11
ENDBRANCH   1  10
BRANCH   3  18
ATOM     18  C   UNL     1       2.323   8.305  17.850  0.00  0.00    +0.000 C 
BRANCH  18  19
ATOM     19  C   UNL     1       1.580   8.932  18.979  0.00  0.00    +0.000 A 
ATOM     20  C   UNL     1       0.850  10.104  18.972  0.00  0.00    +0.000 A 
ATOM     21  N   UNL     1       0.357  10.244  20.242  0.00  0.00    +0.000 N 
ATOM     22  C   UNL     1      -0.446  11.250  20.775  0.00  0.00    +0.000 A 
ATOM     23  C   UNL     1      -0.807  11.177  22.069  0.00  0.00    +0.000 A 
ATOM     24  C   UNL     1      -0.354  10.053  22.867  0.00  0.00    +0.000 A 
ATOM     25  C   UNL     1       0.428   9.082  22.340  0.00  0.00    +0.000 A 
ATOM     26  C   UNL     1       0.815   9.153  20.975  0.00  0.00    +0.000 A 
ATOM     27  N   UNL     1       1.553   8.351  20.233  0.00  0.00    +0.000 NA
ENDBRANCH  18  19
ENDBRANCH   3  18
TORSDOF 4
ENDMDL
MODEL 4
REMARK VINA RESULT:      -8.9      2.015      3.906
REMARK  Name = 
REMARK  5 active torsions:
REMARK  status: ('A' for Active; 'I' for Inactive)
REMARK    1  A    between atoms: C_1  and  C_2
REMARK    2  A    between atoms: C_5  and  C_6
REMARK    3  A    between atoms: C_13  and  C_14
REMARK    4  A    between atoms: N_16  and  C_17
REMARK    5  A    between atoms: C_17  and  C_18
REMARK                            x       y       z     vdW  Elec       q    Type
REMARK                         _______ _______ _______ _____ _____    ______ ____
ROOT
ATOM      1  C   UNL     1       2.504   5.385  18.709  0.00  0.00    +0.000 C 
ATOM      2  O   UNL     1       1.649   5.229  17.842  0.00  0.00    +0.000 OA
ATOM      3  N   UNL     1       2.852   6.635  19.151  0.00  0.00    +0.000 N 
ATOM      4  H   UNL     1       3.635   6.791  19.772  0.00  0.00    +0.000 HD
ENDROOT
BRANCH   1  10
ATOM      5  C   UNL     1       1.803   3.458  21.355  0.00  0.00    +0.000 C 
ATOM      6  C   UNL     1       2.899   3.488  20.367  0.00  0.00    +0.000 A 
ATOM      7  O   UNL     1       3.822   2.508  20.522  0.00  0.00    +0.000 OA
ATOM      8  N   UNL     1       4.804   2.641  19.579  0.00  0.00    +0.000 NA
ATOM      9  C   UNL     1       4.467   3.682  18.800  0.00  0.00    +0.000 A 
ATOM     10  C   UNL     1       3.235   4.265  19.275  0.00  0.00    +0.000 A 
BRANCH   9  11
ATOM     11  C   UNL     1       5.369   4.130  17.726  0.00  0.00    +0.000 A 
ATOM     12  C   UNL     1       5.105   3.732  16.400  0.00  0.00    +0.000 A 
ATOM     13  C   UNL     1       5.897   4.160  15.332  0.00  0.00    +0.000 A 
ATOM     14  C   UNL     1       6.944   5.039  15.558  0.00  0.00    +0.000 A 
ATOM     15  C   UNL     1       7.223   5.460  16.855  0.00  0.00    +0.000 A 
ATOM     16  C   UNL     1       6.460   4.997  17.938  0.00  0.00    +0.000 A 
ATOM     17 CL   UNL     1       6.983   5.530  19.504  0.00  0.00    +0.000 Cl
ENDBRANCH   9  11
ENDBRANCH   1  10
BRANCH   3  18
ATOM     18  C   UNL     1       2.261   7.820  18.569  0.00  0.00    +0.000 C 
BRANCH  18  19
ATOM     19  C   UNL     1       1.488   8.540  19.618  0.00  0.00    +0.000 A 
ATOM     20  C   UNL     1       1.314   8.187  20.941  0.00  0.00    +0.000 A 
ATOM     21  N   UNL     1       0.534   9.171  21.491  0.00  0.00    +0.000 N 
ATOM     22  C   UNL     1       0.066   9.305  22.796  0.00  0.00    +0.000 A 
ATOM     23  C   UNL     1      -0.699  10.368  23.106  0.00  0.00    +0.000 A 
ATOM     24  C   UNL     1      -1.007  11.342  22.076  0.00  0.00    +0.000 A 
ATOM     25  C   UNL     1      -0.548  11.202  20.810  0.00  0.00    +0.000 A 
ATOM     26  C   UNL     1       0.258  10.082  20.474  0.00  0.00    +0.000 A 
ATOM     27  N   UNL     1       0.823   9.720  19.338  0.00  0.00    +0.000 NA
ENDBRANCH  18  19
ENDBRANCH   3  18
TORSDOF 4
ENDMDL
MODEL 5
REMARK VINA RESULT:      -8.8      0.543      1.153
REMARK  Name = 
REMARK  5 active torsions:
REMARK  status: ('A' for Active; 'I' for Inactive)
REMARK    1  A    between atoms: C_1  and  C_2
REMARK    2  A    between atoms: C_5  and  C_6
REMARK    3  A    between atoms: C_13  and  C_14
REMARK    4  A    between atoms: N_16  and  C_17
REMARK    5  A    between atoms: C_17  and  C_18
REMARK                            x       y       z     vdW  Elec       q    Type
REMARK                         _______ _______ _______ _____ _____    ______ ____
ROOT
ATOM      1  C   UNL     1       4.016   6.751  17.725  0.00  0.00    +0.000 C 
ATOM      2  O   UNL     1       4.161   7.174  16.582  0.00  0.00    +0.000 OA
ATOM      3  N   UNL     1       3.031   7.238  18.546  0.00  0.00    +0.000 N 
ATOM      4  H   UNL     1       2.971   6.992  19.525  0.00  0.00    +0.000 HD
ENDROOT
BRANCH   1  10
ATOM      5  C   UNL     1       7.357   6.559  17.667  0.00  0.00    +0.000 C 
ATOM      6  C   UNL     1       6.290   5.727  18.256  0.00  0.00    +0.000 A 
ATOM      7  O   UNL     1       6.734   4.660  18.963  0.00  0.00    +0.000 OA
ATOM      8  N   UNL     1       5.672   3.943  19.440  0.00  0.00    +0.000 NA
ATOM      9  C   UNL     1       4.557   4.592  19.069  0.00  0.00    +0.000 A 
ATOM     10  C   UNL     1       4.909   5.758  18.295  0.00  0.00    +0.000 A 
BRANCH   9  11
ATOM     11  C   UNL     1       3.231   4.026  19.371  0.00  0.00    +0.000 A 
ATOM     12  C   UNL     1       2.711   4.159  20.674  0.00  0.00    +0.000 A 
ATOM     13  C   UNL     1       1.442   3.684  21.013  0.00  0.00    +0.000 A 
ATOM     14  C   UNL     1       0.640   3.107  20.041  0.00  0.00    +0.000 A 
ATOM     15  C   UNL     1       1.121   2.971  18.742  0.00  0.00    +0.000 A 
ATOM     16  C   UNL     1       2.413   3.405  18.406  0.00  0.00    +0.000 A 
ATOM     17 CL   UNL     1       2.910   3.084  16.776  0.00  0.00    +0.000 Cl
ENDBRANCH   9  11
ENDBRANCH   1  10
BRANCH   3  18
ATOM     18  C   UNL     1       2.162   8.307  18.109  0.00  0.00    +0.000 C 
BRANCH  18  19
ATOM     19  C   UNL     1       1.445   8.862  19.290  0.00  0.00    +0.000 A 
ATOM     20  C   UNL     1       1.387   8.348  20.570  0.00  0.00    +0.000 A 
ATOM     21  N   UNL     1       0.615   9.222  21.289  0.00  0.00    +0.000 N 
ATOM     22  C   UNL     1       0.244   9.179  22.631  0.00  0.00    +0.000 A 
ATOM     23  C   UNL     1      -0.535  10.161  23.122  0.00  0.00    +0.000 A 
ATOM     24  C   UNL     1      -0.960  11.233  22.241  0.00  0.00    +0.000 A 
ATOM     25  C   UNL     1      -0.595  11.264  20.938  0.00  0.00    +0.000 A 
ATOM     26  C   UNL     1       0.226  10.231  20.412  0.00  0.00    +0.000 A 
ATOM     27  N   UNL     1       0.715  10.033  19.203  0.00  0.00    +0.000 NA
ENDBRANCH  18  19
ENDBRANCH   3  18
TORSDOF 4
ENDMDL
MODEL 6
REMARK VINA RESULT:      -8.7      1.480      3.577
REMARK  Name = 
REMARK  5 active torsions:
REMARK  status: ('A' for Active; 'I' for Inactive)
REMARK    1  A    between atoms: C_1  and  C_2
REMARK    2  A    between atoms: C_5  and  C_6
REMARK    3  A    between atoms: C_13  and  C_14
REMARK    4  A    between atoms: N_16  and  C_17
REMARK    5  A    between atoms: C_17  and  C_18
REMARK                            x       y       z     vdW  Elec       q    Type
REMARK                         _______ _______ _______ _____ _____    ______ ____
ROOT
ATOM      1  C   UNL     1       2.407   5.455  18.716  0.00  0.00    +0.000 C 
ATOM      2  O   UNL     1       1.563   5.284  17.841  0.00  0.00    +0.000 OA
ATOM      3  N   UNL     1       2.763   6.714  19.126  0.00  0.00    +0.000 N 
ATOM      4  H   UNL     1       3.538   6.879  19.754  0.00  0.00    +0.000 HD
ENDROOT
BRANCH   1  10
ATOM      5  C   UNL     1       1.286   2.983  20.674  0.00  0.00    +0.000 C 
ATOM      6  C   UNL     1       2.607   3.336  20.120  0.00  0.00    +0.000 A 
ATOM      7  O   UNL     1       3.597   2.464  20.428  0.00  0.00    +0.000 OA
ATOM      8  N   UNL     1       4.779   2.894  19.892  0.00  0.00    +0.000 NA
ATOM      9  C   UNL     1       4.517   4.017  19.204  0.00  0.00    +0.000 A 
ATOM     10  C   UNL     1       3.117   4.344  19.324  0.00  0.00    +0.000 A 
BRANCH   9  11
ATOM     11  C   UNL     1       5.610   4.770  18.566  0.00  0.00    +0.000 A 
ATOM     12  C   UNL     1       6.560   5.420  19.379  0.00  0.00    +0.000 A 
ATOM     13  C   UNL     1       7.645   6.112  18.836  0.00  0.00    +0.000 A 
ATOM     14  C   UNL     1       7.834   6.129  17.463  0.00  0.00    +0.000 A 
ATOM     15  C   UNL     1       6.919   5.487  16.633  0.00  0.00    +0.000 A 
ATOM     16  C   UNL     1       5.802   4.829  17.171  0.00  0.00    +0.000 A 
ATOM     17 CL   UNL     1       4.700   4.158  16.012  0.00  0.00    +0.000 Cl
ENDBRANCH   9  11
ENDBRANCH   1  10
BRANCH   3  18
ATOM     18  C   UNL     1       2.194   7.887  18.503  0.00  0.00    +0.000 C 
BRANCH  18  19
ATOM     19  C   UNL     1       1.424   8.653  19.522  0.00  0.00    +0.000 A 
ATOM     20  C   UNL     1       0.735   9.837  19.356  0.00  0.00    +0.000 A 
ATOM     21  N   UNL     1       0.192  10.127  20.581  0.00  0.00    +0.000 N 
ATOM     22  C   UNL     1      -0.601  11.206  20.965  0.00  0.00    +0.000 A 
ATOM     23  C   UNL     1      -1.020  11.283  22.242  0.00  0.00    +0.000 A 
ATOM     24  C   UNL     1      -0.638  10.239  23.174  0.00  0.00    +0.000 A 
ATOM     25  C   UNL     1       0.134   9.195  22.791  0.00  0.00    +0.000 A 
ATOM     26  C   UNL     1       0.581   9.108  21.446  0.00  0.00    +0.000 A 
ATOM     27  N   UNL     1       1.324   8.210  20.828  0.00  0.00    +0.000 NA
ENDBRANCH  18  19
ENDBRANCH   3  18
TORSDOF 4
ENDMDL
MODEL 7
REMARK VINA RESULT:      -8.6      1.180      1.833
REMARK  Name = 
REMARK  5 active torsions:
REMARK  status: ('A' for Active; 'I' for Inactive)
REMARK    1  A    between atoms: C_1  and  C_2
REMARK    2  A    between atoms: C_5  and  C_6
REMARK    3  A    between atoms: C_13  and  C_14
REMARK    4  A    between atoms: N_16  and  C_17
REMARK    5  A    between atoms: C_17  and  C_18
REMARK                            x       y       z     vdW  Elec       q    Type
REMARK                         _______ _______ _______ _____ _____    ______ ____
ROOT
ATOM      1  C   UNL     1       4.129   6.699  17.632  0.00  0.00    +0.000 C 
ATOM      2  O   UNL     1       4.309   7.091  16.483  0.00  0.00    +0.000 OA
ATOM      3  N   UNL     1       3.136   7.223  18.417  0.00  0.00    +0.000 N 
ATOM      4  H   UNL     1       3.049   7.002  19.400  0.00  0.00    +0.000 HD
ENDROOT
BRANCH   1  10
ATOM      5  C   UNL     1       7.440   6.709  18.127  0.00  0.00    +0.000 C 
ATOM      6  C   UNL     1       6.357   5.756  18.439  0.00  0.00    +0.000 A 
ATOM      7  O   UNL     1       6.759   4.646  19.104  0.00  0.00    +0.000 OA
ATOM      8  N   UNL     1       5.691   3.820  19.319  0.00  0.00    +0.000 NA
ATOM      9  C   UNL     1       4.605   4.440  18.828  0.00  0.00    +0.000 A 
ATOM     10  C   UNL     1       4.990   5.703  18.245  0.00  0.00    +0.000 A 
BRANCH   9  11
ATOM     11  C   UNL     1       3.295   3.768  18.842  0.00  0.00    +0.000 A 
ATOM     12  C   UNL     1       2.998   2.828  17.834  0.00  0.00    +0.000 A 
ATOM     13  C   UNL     1       1.791   2.124  17.817  0.00  0.00    +0.000 A 
ATOM     14  C   UNL     1       0.872   2.306  18.838  0.00  0.00    +0.000 A 
ATOM     15  C   UNL     1       1.141   3.219  19.854  0.00  0.00    +0.000 A 
ATOM     16  C   UNL     1       2.332   3.962  19.852  0.00  0.00    +0.000 A 
ATOM     17 CL   UNL     1       2.487   5.129  21.126  0.00  0.00    +0.000 Cl
ENDBRANCH   9  11
ENDBRANCH   1  10
BRANCH   3  18
ATOM     18  C   UNL     1       2.298   8.298  17.935  0.00  0.00    +0.000 C 
BRANCH  18  19
ATOM     19  C   UNL     1       1.552   8.883  19.084  0.00  0.00    +0.000 A 
ATOM     20  C   UNL     1       1.476   8.411  20.379  0.00  0.00    +0.000 A 
ATOM     21  N   UNL     1       0.680   9.299  21.054  0.00  0.00    +0.000 N 
ATOM     22  C   UNL     1       0.284   9.297  22.389  0.00  0.00    +0.000 A 
ATOM     23  C   UNL     1      -0.516  10.284  22.833  0.00  0.00    +0.000 A 
ATOM     24  C   UNL     1      -0.936  11.321  21.909  0.00  0.00    +0.000 A 
ATOM     25  C   UNL     1      -0.547  11.313  20.612  0.00  0.00    +0.000 A 
ATOM     26  C   UNL     1       0.295  10.274  20.137  0.00  0.00    +0.000 A 
ATOM     27  N   UNL     1       0.809  10.041  18.944  0.00  0.00    +0.000 NA
ENDBRANCH  18  19
ENDBRANCH   3  18
TORSDOF 4
ENDMDL
MODEL 8
REMARK VINA RESULT:      -8.6      1.607      3.767
REMARK  Name = 
REMARK  5 active torsions:
REMARK  status: ('A' for Active; 'I' for Inactive)
REMARK    1  A    between atoms: C_1  and  C_2
REMARK    2  A    between atoms: C_5  and  C_6
REMARK    3  A    between atoms: C_13  and  C_14
REMARK    4  A    between atoms: N_16  and  C_17
REMARK    5  A    between atoms: C_17  and  C_18
REMARK                            x       y       z     vdW  Elec       q    Type
REMARK                         _______ _______ _______ _____ _____    ______ ____
ROOT
ATOM      1  C   UNL     1       2.434   5.402  18.828  0.00  0.00    +0.000 C 
ATOM      2  O   UNL     1       1.574   5.224  17.970  0.00  0.00    +0.000 OA
ATOM      3  N   UNL     1       2.769   6.661  19.252  0.00  0.00    +0.000 N 
ATOM      4  H   UNL     1       3.554   6.835  19.865  0.00  0.00    +0.000 HD
ENDROOT
BRANCH   1  10
ATOM      5  C   UNL     1       1.423   2.880  20.785  0.00  0.00    +0.000 C 
ATOM      6  C   UNL     1       2.720   3.269  20.197  0.00  0.00    +0.000 A 
ATOM      7  O   UNL     1       3.737   2.415  20.465  0.00  0.00    +0.000 OA
ATOM      8  N   UNL     1       4.894   2.877  19.902  0.00  0.00    +0.000 NA
ATOM      9  C   UNL     1       4.588   4.003  19.237  0.00  0.00    +0.000 A 
ATOM     10  C   UNL     1       3.184   4.298  19.401  0.00  0.00    +0.000 A 
BRANCH   9  11
ATOM     11  C   UNL     1       5.645   4.788  18.577  0.00  0.00    +0.000 A 
ATOM     12  C   UNL     1       6.608   5.442  19.372  0.00  0.00    +0.000 A 
ATOM     13  C   UNL     1       7.662   6.164  18.807  0.00  0.00    +0.000 A 
ATOM     14  C   UNL     1       7.807   6.208  17.429  0.00  0.00    +0.000 A 
ATOM     15  C   UNL     1       6.878   5.562  16.617  0.00  0.00    +0.000 A 
ATOM     16  C   UNL     1       5.792   4.874  17.178  0.00  0.00    +0.000 A 
ATOM     17 CL   UNL     1       4.666   4.201  16.043  0.00  0.00    +0.000 Cl
ENDBRANCH   9  11
ENDBRANCH   1  10
BRANCH   3  18
ATOM     18  C   UNL     1       2.157   7.831  18.662  0.00  0.00    +0.000 C 
BRANCH  18  19
ATOM     19  C   UNL     1       1.391   8.558  19.711  0.00  0.00    +0.000 A 
ATOM     20  C   UNL     1       1.210   8.205  21.033  0.00  0.00    +0.000 A 
ATOM     21  N   UNL     1       0.442   9.197  21.583  0.00  0.00    +0.000 N 
ATOM     22  C   UNL     1      -0.027   9.334  22.888  0.00  0.00    +0.000 A 
ATOM     23  C   UNL     1      -0.778  10.406  23.200  0.00  0.00    +0.000 A 
ATOM     24  C   UNL     1      -1.072  11.386  22.171  0.00  0.00    +0.000 A 
ATOM     25  C   UNL     1      -0.612  11.243  20.906  0.00  0.00    +0.000 A 
ATOM     26  C   UNL     1       0.180  10.114  20.569  0.00  0.00    +0.000 A 
ATOM     27  N   UNL     1       0.742   9.747  19.433  0.00  0.00    +0.000 NA
ENDBRANCH  18  19
ENDBRANCH   3  18
TORSDOF 4
ENDMDL
MODEL 9
REMARK VINA RESULT:      -8.3      2.045      3.700
REMARK  Name = 
REMARK  5 active torsions:
REMARK  status: ('A' for Active; 'I' for Inactive)
REMARK    1  A    between atoms: C_1  and  C_2
REMARK    2  A    between atoms: C_5  and  C_6
REMARK    3  A    between atoms: C_13  and  C_14
REMARK    4  A    between atoms: N_16  and  C_17
REMARK    5  A    between atoms: C_17  and  C_18
REMARK                            x       y       z     vdW  Elec       q    Type
REMARK                         _______ _______ _______ _____ _____    ______ ____
ROOT
ATOM      1  C   UNL     1       3.427   6.709  18.123  0.00  0.00    +0.000 C 
ATOM      2  O   UNL     1       4.308   7.344  17.551  0.00  0.00    +0.000 OA
ATOM      3  N   UNL     1       2.220   7.281  18.428  0.00  0.00    +0.000 N 
ATOM      4  H   UNL     1       1.530   6.816  19.003  0.00  0.00    +0.000 HD
ENDROOT
BRANCH   1  10
ATOM      5  C   UNL     1       2.180   5.073  20.764  0.00  0.00    +0.000 C 
ATOM      6  C   UNL     1       3.081   4.701  19.656  0.00  0.00    +0.000 A 
ATOM      7  O   UNL     1       3.481   3.406  19.668  0.00  0.00    +0.000 OA
ATOM      8  N   UNL     1       4.331   3.172  18.622  0.00  0.00    +0.000 NA
ATOM      9  C   UNL     1       4.425   4.316  17.924  0.00  0.00    +0.000 A 
ATOM     10  C   UNL     1       3.630   5.339  18.560  0.00  0.00    +0.000 A 
BRANCH   9  11
ATOM     11  C   UNL     1       5.333   4.410  16.769  0.00  0.00    +0.000 A 
ATOM     12  C   UNL     1       4.827   4.150  15.479  0.00  0.00    +0.000 A 
ATOM     13  C   UNL     1       5.625   4.265  14.338  0.00  0.00    +0.000 A 
ATOM     14  C   UNL     1       6.938   4.693  14.455  0.00  0.00    +0.000 A 
ATOM     15  C   UNL     1       7.463   4.968  15.715  0.00  0.00    +0.000 A 
ATOM     16  C   UNL     1       6.680   4.810  16.868  0.00  0.00    +0.000 A 
ATOM     17 CL   UNL     1       7.496   5.097  18.372  0.00  0.00    +0.000 Cl
ENDBRANCH   9  11
ENDBRANCH   1  10
BRANCH   3  18
ATOM     18  C   UNL     1       1.962   8.673  18.134  0.00  0.00    +0.000 C 
BRANCH  18  19
ATOM     19  C   UNL     1       1.222   9.281  19.275  0.00  0.00    +0.000 A 
ATOM     20  C   UNL     1       0.570  10.496  19.317  0.00  0.00    +0.000 A 
ATOM     21  N   UNL     1       0.042  10.594  20.578  0.00  0.00    +0.000 N 
ATOM     22  C   UNL     1      -0.713  11.618  21.145  0.00  0.00    +0.000 A 
ATOM     23  C   UNL     1      -1.123  11.493  22.421  0.00  0.00    +0.000 A 
ATOM     24  C   UNL     1      -0.771  10.296  23.162  0.00  0.00    +0.000 A 
ATOM     25  C   UNL     1      -0.035   9.308  22.602  0.00  0.00    +0.000 A 
ATOM     26  C   UNL     1       0.403   9.433  21.257  0.00  0.00    +0.000 A 
ATOM     27  N   UNL     1       1.114   8.629  20.490  0.00  0.00    +0.000 NA
ENDBRANCH  18  19
ENDBRANCH   3  18
TORSDOF 4
ENDMDL
