MODEL 1
REMARK VINA RESULT:      -8.6      0.000      0.000
REMARK  Name = 
REMARK  4 active torsions:
REMARK  status: ('A' for Active; 'I' for Inactive)
REMARK    1  A    between atoms: C_7  and  S_8
REMARK    2  A    between atoms: S_8  and  N_11
REMARK    3  A    between atoms: C_16  and  C_17
REMARK    4  A    between atoms: C_17  and  C_18
REMARK                            x       y       z     vdW  Elec       q    Type
REMARK                         _______ _______ _______ _____ _____    ______ ____
ROOT
ATOM      1  S   UNL     1       5.046   4.217  19.163  0.00  0.00    +0.000 S 
ATOM      2  O   UNL     1       5.655   3.059  19.787  0.00  0.00    +0.000 OA
ATOM      3  O   UNL     1       5.060   5.510  19.813  0.00  0.00    +0.000 OA
ENDROOT
BRANCH   1  10
ATOM      4  O   UNL     1       7.681   5.058  11.618  0.00  0.00    +0.000 OA
ATOM      5  C   UNL     1       7.185   4.758  12.698  0.00  0.00    +0.000 A 
ATOM      6  C   UNL     1       6.123   3.729  12.791  0.00  0.00    +0.000 A 
ATOM      7  C   UNL     1       5.545   3.430  13.965  0.00  0.00    +0.000 A 
ATOM      8  C   UNL     1       5.986   4.092  15.197  0.00  0.00    +0.000 A 
ATOM      9  C   UNL     1       5.381   3.830  16.431  0.00  0.00    +0.000 A 
ATOM     10  C   UNL     1       5.872   4.456  17.586  0.00  0.00    +0.000 A 
ATOM     11  C   UNL     1       7.009   5.271  17.512  0.00  0.00    +0.000 A 
ATOM     12  C   UNL     1       7.564   5.589  16.273  0.00  0.00    +0.000 A 
ATOM     13  C   UNL     1       7.045   5.008  15.119  0.00  0.00    +0.000 A 
ATOM     14  N   UNL     1       7.595   5.329  13.872  0.00  0.00    +0.000 N 
ATOM     15  H   UNL     1       8.331   6.019  13.794  0.00  0.00    +0.000 HD
ENDBRANCH   1  10
BRANCH   1  16
ATOM     16  N   UNL     1       3.415   3.807  18.805  0.00  0.00    +0.000 NA
ATOM     17  C   UNL     1       2.843   2.651  19.539  0.00  0.00    +0.000 C 
ATOM     18  C   UNL     1       1.560   2.119  18.918  0.00  0.00    +0.000 C 
ATOM     19  C   UNL     1       0.558   3.234  18.677  0.00  0.00    +0.000 C 
ATOM     20  C   UNL     1       1.199   4.293  17.788  0.00  0.00    +0.000 C 
ATOM     21  C   UNL     1       2.460   4.911  18.422  0.00  0.00    +0.000 C 
BRANCH  21  22
ATOM     22  C   UNL     1       2.155   5.830  19.621  0.00  0.00    +0.000 C 
BRANCH  22  23
ATOM     23  C   UNL     1       1.981   7.317  19.418  0.00  0.00    +0.000 A 
ATOM     24  C   UNL     1       2.277   7.850  18.152  0.00  0.00    +0.000 A 
ATOM     25  C   UNL     1       1.968   9.173  17.840  0.00  0.00    +0.000 A 
ATOM     26  C   UNL     1       1.355   9.985  18.789  0.00  0.00    +0.000 A 
ATOM     27  C   UNL     1       1.060   9.473  20.051  0.00  0.00    +0.000 A 
ATOM     28  C   UNL     1       1.365   8.145  20.366  0.00  0.00    +0.000 A 
ENDBRANCH  22  23
ENDBRANCH  21  22
ENDBRANCH   1  16
TORSDOF 4
ENDMDL
MODEL 2
REMARK VINA RESULT:      -8.4      2.633      7.910
REMARK  Name = 
REMARK  4 active torsions:
REMARK  status: ('A' for Active; 'I' for Inactive)
REMARK    1  A    between atoms: C_7  and  S_8
REMARK    2  A    between atoms: S_8  and  N_11
REMARK    3  A    between atoms: C_16  and  C_17
REMARK    4  A    between atoms: C_17  and  C_18
REMARK                            x       y       z     vdW  Elec       q    Type
REMARK                         _______ _______ _______ _____ _____    ______ ____
ROOT
ATOM      1  S   UNL     1       3.323   5.257  18.659  0.00  0.00    +0.000 S 
ATOM      2  O   UNL     1       3.264   4.515  19.902  0.00  0.00    +0.000 OA
ATOM      3  O   UNL     1       2.768   4.715  17.437  0.00  0.00    +0.000 OA
ENDROOT
BRANCH   1  10
ATOM      4  O   UNL     1      -0.219  12.065  21.043  0.00  0.00    +0.000 OA
ATOM      5  C   UNL     1       0.230  10.942  20.846  0.00  0.00    +0.000 A 
ATOM      6  C   UNL     1       0.155   9.895  21.891  0.00  0.00    +0.000 A 
ATOM      7  C   UNL     1       0.685   8.677  21.696  0.00  0.00    +0.000 A 
ATOM      8  C   UNL     1       1.319   8.342  20.417  0.00  0.00    +0.000 A 
ATOM      9  C   UNL     1       1.912   7.095  20.193  0.00  0.00    +0.000 A 
ATOM     10  C   UNL     1       2.464   6.810  18.936  0.00  0.00    +0.000 A 
ATOM     11  C   UNL     1       2.346   7.737  17.893  0.00  0.00    +0.000 A 
ATOM     12  C   UNL     1       1.821   9.005  18.137  0.00  0.00    +0.000 A 
ATOM     13  C   UNL     1       1.320   9.308  19.400  0.00  0.00    +0.000 A 
ATOM     14  N   UNL     1       0.797  10.582  19.653  0.00  0.00    +0.000 N 
ATOM     15  H   UNL     1       0.828  11.303  18.944  0.00  0.00    +0.000 HD
ENDBRANCH   1  10
BRANCH   1  16
ATOM     16  N   UNL     1       4.972   5.652  18.377  0.00  0.00    +0.000 NA
ATOM     17  C   UNL     1       5.958   5.130  19.355  0.00  0.00    +0.000 C 
ATOM     18  C   UNL     1       7.315   5.812  19.265  0.00  0.00    +0.000 C 
ATOM     19  C   UNL     1       7.833   5.827  17.837  0.00  0.00    +0.000 C 
ATOM     20  C   UNL     1       6.811   6.520  16.945  0.00  0.00    +0.000 C 
ATOM     21  C   UNL     1       5.443   5.808  16.952  0.00  0.00    +0.000 C 
BRANCH  21  22
ATOM     22  C   UNL     1       5.454   4.457  16.211  0.00  0.00    +0.000 C 
BRANCH  22  23
ATOM     23  C   UNL     1       5.851   4.387  14.756  0.00  0.00    +0.000 A 
ATOM     24  C   UNL     1       7.084   4.947  14.380  0.00  0.00    +0.000 A 
ATOM     25  C   UNL     1       7.596   4.760  13.096  0.00  0.00    +0.000 A 
ATOM     26  C   UNL     1       6.884   4.006  12.169  0.00  0.00    +0.000 A 
ATOM     27  C   UNL     1       5.657   3.449  12.524  0.00  0.00    +0.000 A 
ATOM     28  C   UNL     1       5.143   3.631  13.812  0.00  0.00    +0.000 A 
ENDBRANCH  22  23
ENDBRANCH  21  22
ENDBRANCH   1  16
TORSDOF 4
ENDMDL
MODEL 3
REMARK VINA RESULT:      -8.3      2.761      3.611
REMARK  Name = 
REMARK  4 active torsions:
REMARK  status: ('A' for Active; 'I' for Inactive)
REMARK    1  A    between atoms: C_7  and  S_8
REMARK    2  A    between atoms: S_8  and  N_11
REMARK    3  A    between atoms: C_16  and  C_17
REMARK    4  A    between atoms: C_17  and  C_18
REMARK                            x       y       z     vdW  Elec       q    Type
REMARK                         _______ _______ _______ _____ _____    ______ ____
ROOT
ATOM      1  S   UNL     1       3.558   3.122  17.616  0.00  0.00    +0.000 S 
ATOM      2  O   UNL     1       2.488   3.260  16.647  0.00  0.00    +0.000 OA
ATOM      3  O   UNL     1       4.504   2.028  17.534  0.00  0.00    +0.000 OA
ENDROOT
BRANCH   1  10
ATOM      4  O   UNL     1       8.858   9.161  17.620  0.00  0.00    +0.000 OA
ATOM      5  C   UNL     1       8.127   8.196  17.807  0.00  0.00    +0.000 A 
ATOM      6  C   UNL     1       8.389   7.242  18.910  0.00  0.00    +0.000 A 
ATOM      7  C   UNL     1       7.617   6.159  19.092  0.00  0.00    +0.000 A 
ATOM      8  C   UNL     1       6.463   5.917  18.219  0.00  0.00    +0.000 A 
ATOM      9  C   UNL     1       5.660   4.781  18.358  0.00  0.00    +0.000 A 
ATOM     10  C   UNL     1       4.541   4.622  17.527  0.00  0.00    +0.000 A 
ATOM     11  C   UNL     1       4.190   5.634  16.625  0.00  0.00    +0.000 A 
ATOM     12  C   UNL     1       5.031   6.730  16.437  0.00  0.00    +0.000 A 
ATOM     13  C   UNL     1       6.170   6.863  17.225  0.00  0.00    +0.000 A 
ATOM     14  N   UNL     1       7.022   7.958  17.036  0.00  0.00    +0.000 N 
ATOM     15  H   UNL     1       6.848   8.626  16.296  0.00  0.00    +0.000 HD
ENDBRANCH   1  10
BRANCH   1  16
ATOM     16  N   UNL     1       2.836   3.099  19.175  0.00  0.00    +0.000 NA
ATOM     17  C   UNL     1       3.614   2.451  20.260  0.00  0.00    +0.000 C 
ATOM     18  C   UNL     1       2.782   2.135  21.493  0.00  0.00    +0.000 C 
ATOM     19  C   UNL     1       1.998   3.351  21.958  0.00  0.00    +0.000 C 
ATOM     20  C   UNL     1       1.120   3.842  20.814  0.00  0.00    +0.000 C 
ATOM     21  C   UNL     1       1.939   4.246  19.572  0.00  0.00    +0.000 C 
BRANCH  21  22
ATOM     22  C   UNL     1       2.742   5.547  19.766  0.00  0.00    +0.000 C 
BRANCH  22  23
ATOM     23  C   UNL     1       2.064   6.890  19.633  0.00  0.00    +0.000 A 
ATOM     24  C   UNL     1       1.486   7.455  20.781  0.00  0.00    +0.000 A 
ATOM     25  C   UNL     1       1.007   8.765  20.775  0.00  0.00    +0.000 A 
ATOM     26  C   UNL     1       1.101   9.531  19.618  0.00  0.00    +0.000 A 
ATOM     27  C   UNL     1       1.666   8.983  18.468  0.00  0.00    +0.000 A 
ATOM     28  C   UNL     1       2.151   7.671  18.473  0.00  0.00    +0.000 A 
ENDBRANCH  22  23
ENDBRANCH  21  22
ENDBRANCH   1  16
TORSDOF 4
ENDMDL
MODEL 4
REMARK VINA RESULT:      -8.1      2.618      7.744
REMARK  Name = 
REMARK  4 active torsions:
REMARK  status: ('A' for Active; 'I' for Inactive)
REMARK    1  A    between atoms: C_7  and  S_8
REMARK    2  A    between atoms: S_8  and  N_11
REMARK    3  A    between atoms: C_16  and  C_17
REMARK    4  A    between atoms: C_17  and  C_18
REMARK                            x       y       z     vdW  Elec       q    Type
REMARK                         _______ _______ _______ _____ _____    ______ ____
ROOT
ATOM      1  S   UNL     1       3.302   5.159  18.684  0.00  0.00    +0.000 S 
ATOM      2  O   UNL     1       3.272   4.182  19.754  0.00  0.00    +0.000 OA
ATOM      3  O   UNL     1       2.689   4.882  17.401  0.00  0.00    +0.000 OA
ENDROOT
BRANCH   1  10
ATOM      4  O   UNL     1      -0.553  12.022  20.300  0.00  0.00    +0.000 OA
ATOM      5  C   UNL     1       0.133  11.086  19.908  0.00  0.00    +0.000 A 
ATOM      6  C   UNL     1       0.891  11.174  18.637  0.00  0.00    +0.000 A 
ATOM      7  C   UNL     1       1.608  10.135  18.181  0.00  0.00    +0.000 A 
ATOM      8  C   UNL     1       1.692   8.895  18.959  0.00  0.00    +0.000 A 
ATOM      9  C   UNL     1       2.401   7.782  18.496  0.00  0.00    +0.000 A 
ATOM     10  C   UNL     1       2.487   6.636  19.301  0.00  0.00    +0.000 A 
ATOM     11  C   UNL     1       1.937   6.642  20.588  0.00  0.00    +0.000 A 
ATOM     12  C   UNL     1       1.169   7.723  21.019  0.00  0.00    +0.000 A 
ATOM     13  C   UNL     1       1.039   8.841  20.199  0.00  0.00    +0.000 A 
ATOM     14  N   UNL     1       0.263   9.927  20.624  0.00  0.00    +0.000 N 
ATOM     15  H   UNL     1      -0.248   9.887  21.496  0.00  0.00    +0.000 HD
ENDBRANCH   1  10
BRANCH   1  16
ATOM     16  N   UNL     1       4.947   5.580  18.420  0.00  0.00    +0.000 NA
ATOM     17  C   UNL     1       5.935   5.043  19.388  0.00  0.00    +0.000 C 
ATOM     18  C   UNL     1       7.284   5.742  19.323  0.00  0.00    +0.000 C 
ATOM     19  C   UNL     1       7.808   5.802  17.899  0.00  0.00    +0.000 C 
ATOM     20  C   UNL     1       6.782   6.507  17.021  0.00  0.00    +0.000 C 
ATOM     21  C   UNL     1       5.423   5.780  17.002  0.00  0.00    +0.000 C 
BRANCH  21  22
ATOM     22  C   UNL     1       5.452   4.450  16.225  0.00  0.00    +0.000 C 
BRANCH  22  23
ATOM     23  C   UNL     1       5.858   4.424  14.770  0.00  0.00    +0.000 A 
ATOM     24  C   UNL     1       7.091   4.998  14.419  0.00  0.00    +0.000 A 
ATOM     25  C   UNL     1       7.613   4.849  13.134  0.00  0.00    +0.000 A 
ATOM     26  C   UNL     1       6.908   4.122  12.180  0.00  0.00    +0.000 A 
ATOM     27  C   UNL     1       5.681   3.551  12.511  0.00  0.00    +0.000 A 
ATOM     28  C   UNL     1       5.158   3.694  13.801  0.00  0.00    +0.000 A 
ENDBRANCH  22  23
ENDBRANCH  21  22
ENDBRANCH   1  16
TORSDOF 4
ENDMDL
MODEL 5
REMARK VINA RESULT:      -8.0      2.270      6.752
REMARK  Name = 
REMARK  4 active torsions:
REMARK  status: ('A' for Active; 'I' for Inactive)
REMARK    1  A    between atoms: C_7  and  S_8
REMARK    2  A    between atoms: S_8  and  N_11
REMARK    3  A    between atoms: C_16  and  C_17
REMARK    4  A    between atoms: C_17  and  C_18
REMARK                            x       y       z     vdW  Elec       q    Type
REMARK                         _______ _______ _______ _____ _____    ______ ____
ROOT
ATOM      1  S   UNL     1       5.274   5.258  18.912  0.00  0.00    +0.000 S 
ATOM      2  O   UNL     1       6.394   5.916  19.556  0.00  0.00    +0.000 OA
ATOM      3  O   UNL     1       4.736   4.018  19.433  0.00  0.00    +0.000 OA
ENDROOT
BRANCH   1  10
ATOM      4  O   UNL     1      -0.735  10.449  20.142  0.00  0.00    +0.000 OA
ATOM      5  C   UNL     1       0.094   9.548  20.108  0.00  0.00    +0.000 A 
ATOM      6  C   UNL     1       0.179   8.546  21.196  0.00  0.00    +0.000 A 
ATOM      7  C   UNL     1       1.114   7.583  21.185  0.00  0.00    +0.000 A 
ATOM      8  C   UNL     1       2.054   7.477  20.065  0.00  0.00    +0.000 A 
ATOM      9  C   UNL     1       3.063   6.509  20.039  0.00  0.00    +0.000 A 
ATOM     10  C   UNL     1       3.907   6.422  18.922  0.00  0.00    +0.000 A 
ATOM     11  C   UNL     1       3.684   7.244  17.811  0.00  0.00    +0.000 A 
ATOM     12  C   UNL     1       2.727   8.256  17.867  0.00  0.00    +0.000 A 
ATOM     13  C   UNL     1       1.923   8.378  18.998  0.00  0.00    +0.000 A 
ATOM     14  N   UNL     1       0.964   9.397  19.062  0.00  0.00    +0.000 N 
ATOM     15  H   UNL     1       0.886  10.079  18.320  0.00  0.00    +0.000 HD
ENDBRANCH   1  10
BRANCH   1  16
ATOM     16  N   UNL     1       5.701   5.015  17.265  0.00  0.00    +0.000 NA
ATOM     17  C   UNL     1       7.054   4.464  17.003  0.00  0.00    +0.000 C 
ATOM     18  C   UNL     1       7.500   4.626  15.557  0.00  0.00    +0.000 C 
ATOM     19  C   UNL     1       6.445   4.115  14.592  0.00  0.00    +0.000 C 
ATOM     20  C   UNL     1       5.138   4.855  14.849  0.00  0.00    +0.000 C 
ATOM     21  C   UNL     1       4.615   4.649  16.284  0.00  0.00    +0.000 C 
BRANCH  21  22
ATOM     22  C   UNL     1       4.080   3.227  16.541  0.00  0.00    +0.000 C 
BRANCH  22  23
ATOM     23  C   UNL     1       2.847   3.016  17.389  0.00  0.00    +0.000 A 
ATOM     24  C   UNL     1       2.788   1.867  18.194  0.00  0.00    +0.000 A 
ATOM     25  C   UNL     1       1.772   1.700  19.134  0.00  0.00    +0.000 A 
ATOM     26  C   UNL     1       0.799   2.682  19.284  0.00  0.00    +0.000 A 
ATOM     27  C   UNL     1       0.839   3.825  18.489  0.00  0.00    +0.000 A 
ATOM     28  C   UNL     1       1.861   3.998  17.549  0.00  0.00    +0.000 A 
ENDBRANCH  22  23
ENDBRANCH  21  22
ENDBRANCH   1  16
TORSDOF 4
ENDMDL
MODEL 6
REMARK VINA RESULT:      -7.8      3.006      7.870
REMARK  Name = 
REMARK  4 active torsions:
REMARK  status: ('A' for Active; 'I' for Inactive)
REMARK    1  A    between atoms: C_7  and  S_8
REMARK    2  A    between atoms: S_8  and  N_11
REMARK    3  A    between atoms: C_16  and  C_17
REMARK    4  A    between atoms: C_17  and  C_18
REMARK                            x       y       z     vdW  Elec       q    Type
REMARK                         _______ _______ _______ _____ _____    ______ ____
ROOT
ATOM      1  S   UNL     1       2.932   6.572  18.635  0.00  0.00    +0.000 S 
ATOM      2  O   UNL     1       2.463   6.375  17.278  0.00  0.00    +0.000 OA
ATOM      3  O   UNL     1       4.307   6.938  18.905  0.00  0.00    +0.000 OA
ENDROOT
BRANCH   1  10
ATOM      4  O   UNL     1      -1.081  12.090  22.879  0.00  0.00    +0.000 OA
ATOM      5  C   UNL     1      -0.528  11.117  22.381  0.00  0.00    +0.000 A 
ATOM      6  C   UNL     1      -0.345   9.865  23.153  0.00  0.00    +0.000 A 
ATOM      7  C   UNL     1       0.300   8.812  22.627  0.00  0.00    +0.000 A 
ATOM      8  C   UNL     1       0.805   8.864  21.251  0.00  0.00    +0.000 A 
ATOM      9  C   UNL     1       1.512   7.798  20.685  0.00  0.00    +0.000 A 
ATOM     10  C   UNL     1       1.933   7.882  19.350  0.00  0.00    +0.000 A 
ATOM     11  C   UNL     1       1.574   8.989  18.571  0.00  0.00    +0.000 A 
ATOM     12  C   UNL     1       0.933  10.080  19.155  0.00  0.00    +0.000 A 
ATOM     13  C   UNL     1       0.562  10.020  20.495  0.00  0.00    +0.000 A 
ATOM     14  N   UNL     1      -0.076  11.117  21.089  0.00  0.00    +0.000 N 
ATOM     15  H   UNL     1      -0.221  11.973  20.570  0.00  0.00    +0.000 HD
ENDBRANCH   1  10
BRANCH   1  16
ATOM     16  N   UNL     1       2.569   5.141  19.515  0.00  0.00    +0.000 NA
ATOM     17  C   UNL     1       1.173   4.644  19.431  0.00  0.00    +0.000 C 
ATOM     18  C   UNL     1       0.831   3.622  20.504  0.00  0.00    +0.000 C 
ATOM     19  C   UNL     1       1.864   2.510  20.558  0.00  0.00    +0.000 C 
ATOM     20  C   UNL     1       3.239   3.120  20.799  0.00  0.00    +0.000 C 
ATOM     21  C   UNL     1       3.652   4.104  19.687  0.00  0.00    +0.000 C 
BRANCH  21  22
ATOM     22  C   UNL     1       3.984   3.412  18.350  0.00  0.00    +0.000 C 
BRANCH  22  23
ATOM     23  C   UNL     1       5.026   3.997  17.427  0.00  0.00    +0.000 A 
ATOM     24  C   UNL     1       6.280   4.324  17.969  0.00  0.00    +0.000 A 
ATOM     25  C   UNL     1       7.344   4.693  17.146  0.00  0.00    +0.000 A 
ATOM     26  C   UNL     1       7.170   4.740  15.767  0.00  0.00    +0.000 A 
ATOM     27  C   UNL     1       5.931   4.424  15.214  0.00  0.00    +0.000 A 
ATOM     28  C   UNL     1       4.863   4.048  16.036  0.00  0.00    +0.000 A 
ENDBRANCH  22  23
ENDBRANCH  21  22
ENDBRANCH   1  16
TORSDOF 4
ENDMDL
MODEL 7
REMARK VINA RESULT:      -7.8      2.769      7.598
REMARK  Name = 
REMARK  4 active torsions:
REMARK  status: ('A' for Active; 'I' for Inactive)
REMARK    1  A    between atoms: C_7  and  S_8
REMARK    2  A    between atoms: S_8  and  N_11
REMARK    3  A    between atoms: C_16  and  C_17
REMARK    4  A    between atoms: C_17  and  C_18
REMARK                            x       y       z     vdW  Elec       q    Type
REMARK                         _______ _______ _______ _____ _____    ______ ____
ROOT
ATOM      1  S   UNL     1       3.408   6.367  18.519  0.00  0.00    +0.000 S 
ATOM      2  O   UNL     1       3.289   6.315  17.075  0.00  0.00    +0.000 OA
ATOM      3  O   UNL     1       4.675   6.662  19.155  0.00  0.00    +0.000 OA
ENDROOT
BRANCH   1  10
ATOM      4  O   UNL     1      -1.183  11.871  22.152  0.00  0.00    +0.000 OA
ATOM      5  C   UNL     1      -0.526  10.913  21.763  0.00  0.00    +0.000 A 
ATOM      6  C   UNL     1      -0.197   9.792  22.674  0.00  0.00    +0.000 A 
ATOM      7  C   UNL     1       0.561   8.762  22.265  0.00  0.00    +0.000 A 
ATOM      8  C   UNL     1       1.048   8.704  20.884  0.00  0.00    +0.000 A 
ATOM      9  C   UNL     1       1.869   7.664  20.435  0.00  0.00    +0.000 A 
ATOM     10  C   UNL     1       2.270   7.633  19.091  0.00  0.00    +0.000 A 
ATOM     11  C   UNL     1       1.783   8.590  18.193  0.00  0.00    +0.000 A 
ATOM     12  C   UNL     1       1.026   9.666  18.656  0.00  0.00    +0.000 A 
ATOM     13  C   UNL     1       0.671   9.726  20.000  0.00  0.00    +0.000 A 
ATOM     14  N   UNL     1      -0.083  10.808  20.472  0.00  0.00    +0.000 N 
ATOM     15  H   UNL     1      -0.328  11.574  19.858  0.00  0.00    +0.000 HD
ENDBRANCH   1  10
BRANCH   1  16
ATOM     16  N   UNL     1       2.828   4.871  19.134  0.00  0.00    +0.000 NA
ATOM     17  C   UNL     1       1.382   4.591  18.950  0.00  0.00    +0.000 C 
ATOM     18  C   UNL     1       0.871   3.458  19.828  0.00  0.00    +0.000 C 
ATOM     19  C   UNL     1       1.745   2.222  19.698  0.00  0.00    +0.000 C 
ATOM     20  C   UNL     1       3.180   2.588  20.056  0.00  0.00    +0.000 C 
ATOM     21  C   UNL     1       3.757   3.681  19.135  0.00  0.00    +0.000 C 
BRANCH  21  22
ATOM     22  C   UNL     1       4.039   3.187  17.703  0.00  0.00    +0.000 C 
BRANCH  22  23
ATOM     23  C   UNL     1       5.236   3.705  16.939  0.00  0.00    +0.000 A 
ATOM     24  C   UNL     1       5.123   3.834  15.544  0.00  0.00    +0.000 A 
ATOM     25  C   UNL     1       6.115   4.472  14.800  0.00  0.00    +0.000 A 
ATOM     26  C   UNL     1       7.234   4.993  15.440  0.00  0.00    +0.000 A 
ATOM     27  C   UNL     1       7.364   4.868  16.822  0.00  0.00    +0.000 A 
ATOM     28  C   UNL     1       6.369   4.232  17.572  0.00  0.00    +0.000 A 
ENDBRANCH  22  23
ENDBRANCH  21  22
ENDBRANCH   1  16
TORSDOF 4
ENDMDL
MODEL 8
REMARK VINA RESULT:      -7.6      3.018      7.783
REMARK  Name = 
REMARK  4 active torsions:
REMARK  status: ('A' for Active; 'I' for Inactive)
REMARK    1  A    between atoms: C_7  and  S_8
REMARK    2  A    between atoms: S_8  and  N_11
REMARK    3  A    between atoms: C_16  and  C_17
REMARK    4  A    between atoms: C_17  and  C_18
REMARK                            x       y       z     vdW  Elec       q    Type
REMARK                         _______ _______ _______ _____ _____    ______ ____
ROOT
ATOM      1  S   UNL     1       2.789   6.526  18.700  0.00  0.00    +0.000 S 
ATOM      2  O   UNL     1       2.141   6.387  17.411  0.00  0.00    +0.000 OA
ATOM      3  O   UNL     1       4.187   6.890  18.799  0.00  0.00    +0.000 OA
ENDROOT
BRANCH   1  10
ATOM      4  O   UNL     1      -1.718  12.470  21.688  0.00  0.00    +0.000 OA
ATOM      5  C   UNL     1      -0.985  11.698  21.081  0.00  0.00    +0.000 A 
ATOM      6  C   UNL     1      -0.545  11.992  19.697  0.00  0.00    +0.000 A 
ATOM      7  C   UNL     1       0.221  11.128  19.012  0.00  0.00    +0.000 A 
ATOM      8  C   UNL     1       0.676   9.884  19.638  0.00  0.00    +0.000 A 
ATOM      9  C   UNL     1       1.444   8.946  18.941  0.00  0.00    +0.000 A 
ATOM     10  C   UNL     1       1.891   7.793  19.603  0.00  0.00    +0.000 A 
ATOM     11  C   UNL     1       1.638   7.627  20.970  0.00  0.00    +0.000 A 
ATOM     12  C   UNL     1       0.812   8.524  21.644  0.00  0.00    +0.000 A 
ATOM     13  C   UNL     1       0.323   9.643  20.975  0.00  0.00    +0.000 A 
ATOM     14  N   UNL     1      -0.513  10.544  21.646  0.00  0.00    +0.000 N 
ATOM     15  H   UNL     1      -0.810  10.363  22.595  0.00  0.00    +0.000 HD
ENDBRANCH   1  10
BRANCH   1  16
ATOM     16  N   UNL     1       2.551   5.053  19.552  0.00  0.00    +0.000 NA
ATOM     17  C   UNL     1       1.174   4.498  19.552  0.00  0.00    +0.000 C 
ATOM     18  C   UNL     1       0.955   3.428  20.611  0.00  0.00    +0.000 C 
ATOM     19  C   UNL     1       2.034   2.360  20.549  0.00  0.00    +0.000 C 
ATOM     20  C   UNL     1       3.396   3.022  20.712  0.00  0.00    +0.000 C 
ATOM     21  C   UNL     1       3.685   4.059  19.608  0.00  0.00    +0.000 C 
BRANCH  21  22
ATOM     22  C   UNL     1       3.946   3.425  18.228  0.00  0.00    +0.000 C 
BRANCH  22  23
ATOM     23  C   UNL     1       4.991   4.008  17.306  0.00  0.00    +0.000 A 
ATOM     24  C   UNL     1       6.253   4.310  17.845  0.00  0.00    +0.000 A 
ATOM     25  C   UNL     1       7.317   4.676  17.022  0.00  0.00    +0.000 A 
ATOM     26  C   UNL     1       7.136   4.743  15.645  0.00  0.00    +0.000 A 
ATOM     27  C   UNL     1       5.889   4.453  15.094  0.00  0.00    +0.000 A 
ATOM     28  C   UNL     1       4.821   4.081  15.917  0.00  0.00    +0.000 A 
ENDBRANCH  22  23
ENDBRANCH  21  22
ENDBRANCH   1  16
TORSDOF 4
ENDMDL
MODEL 9
REMARK VINA RESULT:      -7.6      2.282      6.651
REMARK  Name = 
REMARK  4 active torsions:
REMARK  status: ('A' for Active; 'I' for Inactive)
REMARK    1  A    between atoms: C_7  and  S_8
REMARK    2  A    between atoms: S_8  and  N_11
REMARK    3  A    between atoms: C_16  and  C_17
REMARK    4  A    between atoms: C_17  and  C_18
REMARK                            x       y       z     vdW  Elec       q    Type
REMARK                         _______ _______ _______ _____ _____    ______ ____
ROOT
ATOM      1  S   UNL     1       5.938   5.597  18.142  0.00  0.00    +0.000 S 
ATOM      2  O   UNL     1       7.056   6.493  18.362  0.00  0.00    +0.000 OA
ATOM      3  O   UNL     1       5.758   4.412  18.956  0.00  0.00    +0.000 OA
ENDROOT
BRANCH   1  10
ATOM      4  O   UNL     1      -0.571   9.796  20.280  0.00  0.00    +0.000 OA
ATOM      5  C   UNL     1       0.358   9.019  20.097  0.00  0.00    +0.000 A 
ATOM      6  C   UNL     1       0.635   7.922  21.053  0.00  0.00    +0.000 A 
ATOM      7  C   UNL     1       1.680   7.095  20.881  0.00  0.00    +0.000 A 
ATOM      8  C   UNL     1       2.551   7.238  19.710  0.00  0.00    +0.000 A 
ATOM      9  C   UNL     1       3.668   6.417  19.519  0.00  0.00    +0.000 A 
ATOM     10  C   UNL     1       4.441   6.566  18.358  0.00  0.00    +0.000 A 
ATOM     11  C   UNL     1       4.048   7.471  17.366  0.00  0.00    +0.000 A 
ATOM     12  C   UNL     1       2.979   8.338  17.590  0.00  0.00    +0.000 A 
ATOM     13  C   UNL     1       2.241   8.227  18.765  0.00  0.00    +0.000 A 
ATOM     14  N   UNL     1       1.171   9.099  18.998  0.00  0.00    +0.000 N 
ATOM     15  H   UNL     1       0.961   9.844  18.347  0.00  0.00    +0.000 HD
ENDBRANCH   1  10
BRANCH   1  16
ATOM     16  N   UNL     1       5.981   5.120  16.492  0.00  0.00    +0.000 NA
ATOM     17  C   UNL     1       7.271   4.592  15.984  0.00  0.00    +0.000 C 
ATOM     18  C   UNL     1       7.349   4.548  14.466  0.00  0.00    +0.000 C 
ATOM     19  C   UNL     1       6.138   3.850  13.870  0.00  0.00    +0.000 C 
ATOM     20  C   UNL     1       4.875   4.566  14.334  0.00  0.00    +0.000 C 
ATOM     21  C   UNL     1       4.725   4.562  15.869  0.00  0.00    +0.000 C 
BRANCH  21  22
ATOM     22  C   UNL     1       4.379   3.175  16.446  0.00  0.00    +0.000 C 
BRANCH  22  23
ATOM     23  C   UNL     1       3.301   3.032  17.494  0.00  0.00    +0.000 A 
ATOM     24  C   UNL     1       2.213   3.920  17.448  0.00  0.00    +0.000 A 
ATOM     25  C   UNL     1       1.098   3.733  18.265  0.00  0.00    +0.000 A 
ATOM     26  C   UNL     1       1.054   2.652  19.140  0.00  0.00    +0.000 A 
ATOM     27  C   UNL     1       2.127   1.766  19.202  0.00  0.00    +0.000 A 
ATOM     28  C   UNL     1       3.245   1.949  18.380  0.00  0.00    +0.000 A 
ENDBRANCH  22  23
ENDBRANCH  21  22
ENDBRANCH   1  16
TORSDOF 4
ENDMDL
