MODEL 1
REMARK VINA RESULT:      -9.4      0.000      0.000
REMARK  Name = 
REMARK  6 active torsions:
REMARK  status: ('A' for Active; 'I' for Inactive)
REMARK    1  A    between atoms: C_1  and  C_2
REMARK    2  A    between atoms: C_4  and  C_5
REMARK    3  A    between atoms: C_7  and  C_8
REMARK    4  A    between atoms: N_14  and  C_15
REMARK    5  A    between atoms: C_15  and  C_16
REMARK    6  A    between atoms: C_15  and  C_17
REMARK                            x       y       z     vdW  Elec       q    Type
REMARK                         _______ _______ _______ _____ _____    ______ ____
ROOT
ATOM      1  C   UNL     1       2.601   7.138  18.407  0.00  0.00    +0.000 C 
ATOM      2  C   UNL     1       2.231   8.215  17.683  0.00  0.00    +0.000 C 
ATOM      3  C   UNL     1       1.488   9.437  18.167  0.00  0.00    +0.000 C 
ATOM      4  N   UNL     1       1.016   9.370  19.547  0.00  0.00    +0.000 N 
ATOM      5  C   UNL     1       0.208  10.311  20.177  0.00  0.00    +0.000 C 
ATOM      6  O   UNL     1      -0.228  10.119  21.317  0.00  0.00    +0.000 OA
ATOM      7  N   UNL     1      -0.115  11.468  19.514  0.00  0.00    +0.000 N 
ATOM      8  C   UNL     1       1.464   8.288  20.422  0.00  0.00    +0.000 C 
ATOM      9  C   UNL     1       2.218   7.083  19.853  0.00  0.00    +0.000 C 
ATOM     10  H   UNL     1       0.486  11.803  18.775  0.00  0.00    +0.000 HD
ENDROOT
BRANCH   1  17
ATOM     11  C   UNL     1       6.367   5.236  15.502  0.00  0.00    +0.000 C 
ATOM     12  C   UNL     1       5.198   5.053  16.427  0.00  0.00    +0.000 A 
ATOM     13  C   UNL     1       4.783   3.755  16.746  0.00  0.00    +0.000 A 
ATOM     14  C   UNL     1       3.694   3.551  17.591  0.00  0.00    +0.000 A 
ATOM     15  C   UNL     1       3.231   2.163  17.916  0.00  0.00    +0.000 C 
ATOM     16  C   UNL     1       3.013   4.663  18.126  0.00  0.00    +0.000 A 
ATOM     17  C   UNL     1       3.396   5.987  17.850  0.00  0.00    +0.000 A 
ATOM     18  C   UNL     1       4.498   6.153  16.981  0.00  0.00    +0.000 A 
ENDBRANCH   1  17
BRANCH   7  19
ATOM     19  C   UNL     1      -0.948  12.483  20.195  0.00  0.00    +0.000 C 
ATOM     20  C   UNL     1      -0.466  13.916  19.916  0.00  0.00    +0.000 C 
BRANCH  19  21
ATOM     21  C   UNL     1      -2.384  12.347  19.777  0.00  0.00    +0.000 A 
ATOM     22  N   UNL     1      -3.441  12.597  20.532  0.00  0.00    +0.000 NA
ATOM     23  N   UNL     1      -4.574  12.332  19.799  0.00  0.00    +0.000 NA
ATOM     24  C   UNL     1      -4.206  11.911  18.610  0.00  0.00    +0.000 A 
ATOM     25  C   UNL     1      -4.942  11.507  17.462  0.00  0.00    +0.000 A 
ATOM     26  C   UNL     1      -4.287  11.085  16.364  0.00  0.00    +0.000 A 
ATOM     27  C   UNL     1      -2.836  11.021  16.329  0.00  0.00    +0.000 A 
ATOM     28  C   UNL     1      -2.132  11.413  17.409  0.00  0.00    +0.000 A 
ATOM     29  N   UNL     1      -2.814  11.871  18.543  0.00  0.00    +0.000 N 
ENDBRANCH  19  21
ENDBRANCH   7  19
TORSDOF 3
ENDMDL
MODEL 2
REMARK VINA RESULT:      -9.2      0.131      1.622
REMARK  Name = 
REMARK  6 active torsions:
REMARK  status: ('A' for Active; 'I' for Inactive)
REMARK    1  A    between atoms: C_1  and  C_2
REMARK    2  A    between atoms: C_4  and  C_5
REMARK    3  A    between atoms: C_7  and  C_8
REMARK    4  A    between atoms: N_14  and  C_15
REMARK    5  A    between atoms: C_15  and  C_16
REMARK    6  A    between atoms: C_15  and  C_17
REMARK                            x       y       z     vdW  Elec       q    Type
REMARK                         _______ _______ _______ _____ _____    ______ ____
ROOT
ATOM      1  C   UNL     1       2.579   7.096  18.432  0.00  0.00    +0.000 C 
ATOM      2  C   UNL     1       2.215   8.164  17.693  0.00  0.00    +0.000 C 
ATOM      3  C   UNL     1       1.496   9.406  18.163  0.00  0.00    +0.000 C 
ATOM      4  N   UNL     1       1.040   9.371  19.549  0.00  0.00    +0.000 N 
ATOM      5  C   UNL     1       0.253  10.335  20.171  0.00  0.00    +0.000 C 
ATOM      6  O   UNL     1      -0.171  10.172  21.319  0.00  0.00    +0.000 OA
ATOM      7  N   UNL     1      -0.061  11.484  19.490  0.00  0.00    +0.000 N 
ATOM      8  C   UNL     1       1.483   8.300  20.439  0.00  0.00    +0.000 C 
ATOM      9  C   UNL     1       2.213   7.074  19.884  0.00  0.00    +0.000 C 
ATOM     10  H   UNL     1       0.536  11.797  18.738  0.00  0.00    +0.000 HD
ENDROOT
BRANCH   1  17
ATOM     11  C   UNL     1       3.405   2.064  17.952  0.00  0.00    +0.000 C 
ATOM     12  C   UNL     1       3.777   3.490  17.669  0.00  0.00    +0.000 A 
ATOM     13  C   UNL     1       4.926   3.756  16.915  0.00  0.00    +0.000 A 
ATOM     14  C   UNL     1       5.304   5.070  16.646  0.00  0.00    +0.000 A 
ATOM     15  C   UNL     1       6.547   5.358  15.860  0.00  0.00    +0.000 C 
ATOM     16  C   UNL     1       4.520   6.132  17.137  0.00  0.00    +0.000 A 
ATOM     17  C   UNL     1       3.350   5.923  17.887  0.00  0.00    +0.000 A 
ATOM     18  C   UNL     1       3.005   4.578  18.147  0.00  0.00    +0.000 A 
ENDBRANCH   1  17
BRANCH   7  19
ATOM     19  C   UNL     1      -0.871  12.524  20.162  0.00  0.00    +0.000 C 
ATOM     20  C   UNL     1      -0.385  13.946  19.833  0.00  0.00    +0.000 C 
BRANCH  19  21
ATOM     21  C   UNL     1      -2.317  12.388  19.780  0.00  0.00    +0.000 A 
ATOM     22  N   UNL     1      -3.355  12.660  20.554  0.00  0.00    +0.000 NA
ATOM     23  N   UNL     1      -4.506  12.386  19.854  0.00  0.00    +0.000 NA
ATOM     24  C   UNL     1      -4.168  11.937  18.667  0.00  0.00    +0.000 A 
ATOM     25  C   UNL     1      -4.933  11.513  17.546  0.00  0.00    +0.000 A 
ATOM     26  C   UNL     1      -4.307  11.063  16.441  0.00  0.00    +0.000 A 
ATOM     27  C   UNL     1      -2.857  10.990  16.374  0.00  0.00    +0.000 A 
ATOM     28  C   UNL     1      -2.126  11.400  17.429  0.00  0.00    +0.000 A 
ATOM     29  N   UNL     1      -2.779  11.887  18.568  0.00  0.00    +0.000 N 
ENDBRANCH  19  21
ENDBRANCH   7  19
TORSDOF 3
ENDMDL
MODEL 3
REMARK VINA RESULT:      -9.1      1.284      2.189
REMARK  Name = 
REMARK  6 active torsions:
REMARK  status: ('A' for Active; 'I' for Inactive)
REMARK    1  A    between atoms: C_1  and  C_2
REMARK    2  A    between atoms: C_4  and  C_5
REMARK    3  A    between atoms: C_7  and  C_8
REMARK    4  A    between atoms: N_14  and  C_15
REMARK    5  A    between atoms: C_15  and  C_16
REMARK    6  A    between atoms: C_15  and  C_17
REMARK                            x       y       z     vdW  Elec       q    Type
REMARK                         _______ _______ _______ _____ _____    ______ ____
ROOT
ATOM      1  C   UNL     1       2.582   7.196  18.392  0.00  0.00    +0.000 C 
ATOM      2  C   UNL     1       2.223   8.282  17.676  0.00  0.00    +0.000 C 
ATOM      3  C   UNL     1       1.478   9.501  18.165  0.00  0.00    +0.000 C 
ATOM      4  N   UNL     1       0.991   9.421  19.538  0.00  0.00    +0.000 N 
ATOM      5  C   UNL     1       0.179  10.358  20.169  0.00  0.00    +0.000 C 
ATOM      6  O   UNL     1      -0.269  10.156  21.302  0.00  0.00    +0.000 OA
ATOM      7  N   UNL     1      -0.133  11.522  19.515  0.00  0.00    +0.000 N 
ATOM      8  C   UNL     1       1.427   8.329  20.407  0.00  0.00    +0.000 C 
ATOM      9  C   UNL     1       2.184   7.128  19.834  0.00  0.00    +0.000 C 
ATOM     10  H   UNL     1       0.477  11.864  18.786  0.00  0.00    +0.000 HD
ENDROOT
BRANCH   1  17
ATOM     11  C   UNL     1       6.365   5.313  15.498  0.00  0.00    +0.000 C 
ATOM     12  C   UNL     1       5.191   5.124  16.414  0.00  0.00    +0.000 A 
ATOM     13  C   UNL     1       4.772   3.824  16.721  0.00  0.00    +0.000 A 
ATOM     14  C   UNL     1       3.678   3.615  17.557  0.00  0.00    +0.000 A 
ATOM     15  C   UNL     1       3.212   2.225  17.870  0.00  0.00    +0.000 C 
ATOM     16  C   UNL     1       2.995   4.723  18.097  0.00  0.00    +0.000 A 
ATOM     17  C   UNL     1       3.380   6.049  17.832  0.00  0.00    +0.000 A 
ATOM     18  C   UNL     1       4.487   6.220  16.972  0.00  0.00    +0.000 A 
ENDBRANCH   1  17
BRANCH   7  19
ATOM     19  C   UNL     1      -0.971  12.533  20.197  0.00  0.00    +0.000 C 
ATOM     20  C   UNL     1      -0.546  13.971  19.855  0.00  0.00    +0.000 C 
BRANCH  19  21
ATOM     21  C   UNL     1      -2.417  12.340  19.842  0.00  0.00    +0.000 A 
ATOM     22  N   UNL     1      -2.884  11.950  18.667  0.00  0.00    +0.000 NA
ATOM     23  N   UNL     1      -4.257  11.915  18.732  0.00  0.00    +0.000 NA
ATOM     24  C   UNL     1      -4.621  12.295  19.935  0.00  0.00    +0.000 A 
ATOM     25  C   UNL     1      -5.894  12.439  20.554  0.00  0.00    +0.000 A 
ATOM     26  C   UNL     1      -5.973  12.885  21.822  0.00  0.00    +0.000 A 
ATOM     27  C   UNL     1      -4.780  13.236  22.573  0.00  0.00    +0.000 A 
ATOM     28  C   UNL     1      -3.570  13.092  21.997  0.00  0.00    +0.000 A 
ATOM     29  N   UNL     1      -3.490  12.608  20.685  0.00  0.00    +0.000 N 
ENDBRANCH  19  21
ENDBRANCH   7  19
TORSDOF 3
ENDMDL
MODEL 4
REMARK VINA RESULT:      -9.0      2.127      2.918
REMARK  Name = 
REMARK  6 active torsions:
REMARK  status: ('A' for Active; 'I' for Inactive)
REMARK    1  A    between atoms: C_1  and  C_2
REMARK    2  A    between atoms: C_4  and  C_5
REMARK    3  A    between atoms: C_7  and  C_8
REMARK    4  A    between atoms: N_14  and  C_15
REMARK    5  A    between atoms: C_15  and  C_16
REMARK    6  A    between atoms: C_15  and  C_17
REMARK                            x       y       z     vdW  Elec       q    Type
REMARK                         _______ _______ _______ _____ _____    ______ ____
ROOT
ATOM      1  C   UNL     1       2.272   7.309  19.023  0.00  0.00    +0.000 C 
ATOM      2  C   UNL     1       1.910   8.499  18.502  0.00  0.00    +0.000 C 
ATOM      3  C   UNL     1       1.257   9.657  19.220  0.00  0.00    +0.000 C 
ATOM      4  N   UNL     1       0.869   9.390  20.601  0.00  0.00    +0.000 N 
ATOM      5  C   UNL     1       0.146  10.249  21.423  0.00  0.00    +0.000 C 
ATOM      6  O   UNL     1      -0.227   9.897  22.547  0.00  0.00    +0.000 OA
ATOM      7  N   UNL     1      -0.161  11.507  20.972  0.00  0.00    +0.000 N 
ATOM      8  C   UNL     1       1.317   8.168  21.265  0.00  0.00    +0.000 C 
ATOM      9  C   UNL     1       1.977   7.041  20.466  0.00  0.00    +0.000 C 
ATOM     10  H   UNL     1       0.409  11.933  20.254  0.00  0.00    +0.000 HD
ENDROOT
BRANCH   1  17
ATOM     11  C   UNL     1       5.857   5.733  15.721  0.00  0.00    +0.000 C 
ATOM     12  C   UNL     1       4.689   5.460  16.624  0.00  0.00    +0.000 A 
ATOM     13  C   UNL     1       4.185   4.157  16.705  0.00  0.00    +0.000 A 
ATOM     14  C   UNL     1       3.094   3.873  17.524  0.00  0.00    +0.000 A 
ATOM     15  C   UNL     1       2.535   2.484  17.595  0.00  0.00    +0.000 C 
ATOM     16  C   UNL     1       2.502   4.908  18.275  0.00  0.00    +0.000 A 
ATOM     17  C   UNL     1       2.975   6.231  18.241  0.00  0.00    +0.000 A 
ATOM     18  C   UNL     1       4.076   6.481  17.392  0.00  0.00    +0.000 A 
ENDBRANCH   1  17
BRANCH   7  19
ATOM     19  C   UNL     1      -0.901  12.433  21.857  0.00  0.00    +0.000 C 
ATOM     20  C   UNL     1      -0.264  13.832  21.903  0.00  0.00    +0.000 C 
BRANCH  19  21
ATOM     21  C   UNL     1      -2.331  12.548  21.415  0.00  0.00    +0.000 A 
ATOM     22  N   UNL     1      -2.756  12.613  20.163  0.00  0.00    +0.000 NA
ATOM     23  N   UNL     1      -4.126  12.734  20.172  0.00  0.00    +0.000 NA
ATOM     24  C   UNL     1      -4.529  12.756  21.422  0.00  0.00    +0.000 A 
ATOM     25  C   UNL     1      -5.817  12.856  22.015  0.00  0.00    +0.000 A 
ATOM     26  C   UNL     1      -5.934  12.884  23.357  0.00  0.00    +0.000 A 
ATOM     27  C   UNL     1      -4.765  12.824  24.217  0.00  0.00    +0.000 A 
ATOM     28  C   UNL     1      -3.542  12.718  23.661  0.00  0.00    +0.000 A 
ATOM     29  N   UNL     1      -3.424  12.669  22.267  0.00  0.00    +0.000 N 
ENDBRANCH  19  21
ENDBRANCH   7  19
TORSDOF 3
ENDMDL
MODEL 5
REMARK VINA RESULT:      -9.0      2.185      3.382
REMARK  Name = 
REMARK  6 active torsions:
REMARK  status: ('A' for Active; 'I' for Inactive)
REMARK    1  A    between atoms: C_1  and  C_2
REMARK    2  A    between atoms: C_4  and  C_5
REMARK    3  A    between atoms: C_7  and  C_8
REMARK    4  A    between atoms: N_14  and  C_15
REMARK    5  A    between atoms: C_15  and  C_16
REMARK    6  A    between atoms: C_15  and  C_17
REMARK                            x       y       z     vdW  Elec       q    Type
REMARK                         _______ _______ _______ _____ _____    ______ ____
ROOT
ATOM      1  C   UNL     1       2.191   7.308  19.004  0.00  0.00    +0.000 C 
ATOM      2  C   UNL     1       1.868   8.516  18.496  0.00  0.00    +0.000 C 
ATOM      3  C   UNL     1       1.261   9.689  19.228  0.00  0.00    +0.000 C 
ATOM      4  N   UNL     1       0.872   9.423  20.609  0.00  0.00    +0.000 N 
ATOM      5  C   UNL     1       0.186  10.300  21.444  0.00  0.00    +0.000 C 
ATOM      6  O   UNL     1      -0.192   9.950  22.567  0.00  0.00    +0.000 OA
ATOM      7  N   UNL     1      -0.080  11.572  21.006  0.00  0.00    +0.000 N 
ATOM      8  C   UNL     1       1.282   8.180  21.260  0.00  0.00    +0.000 C 
ATOM      9  C   UNL     1       1.896   7.038  20.446  0.00  0.00    +0.000 C 
ATOM     10  H   UNL     1       0.500  11.984  20.289  0.00  0.00    +0.000 HD
ENDROOT
BRANCH   1  17
ATOM     11  C   UNL     1       2.599   2.425  17.513  0.00  0.00    +0.000 C 
ATOM     12  C   UNL     1       3.076   3.848  17.499  0.00  0.00    +0.000 A 
ATOM     13  C   UNL     1       4.221   4.174  16.763  0.00  0.00    +0.000 A 
ATOM     14  C   UNL     1       4.696   5.483  16.741  0.00  0.00    +0.000 A 
ATOM     15  C   UNL     1       5.936   5.831  15.974  0.00  0.00    +0.000 C 
ATOM     16  C   UNL     1       4.012   6.482  17.463  0.00  0.00    +0.000 A 
ATOM     17  C   UNL     1       2.851   6.214  18.208  0.00  0.00    +0.000 A 
ATOM     18  C   UNL     1       2.407   4.873  18.214  0.00  0.00    +0.000 A 
ENDBRANCH   1  17
BRANCH   7  19
ATOM     19  C   UNL     1      -0.781  12.515  21.904  0.00  0.00    +0.000 C 
ATOM     20  C   UNL     1      -0.125  13.906  21.919  0.00  0.00    +0.000 C 
BRANCH  19  21
ATOM     21  C   UNL     1      -2.223  12.645  21.503  0.00  0.00    +0.000 A 
ATOM     22  N   UNL     1      -2.677  12.785  20.269  0.00  0.00    +0.000 NA
ATOM     23  N   UNL     1      -4.047  12.893  20.317  0.00  0.00    +0.000 NA
ATOM     24  C   UNL     1      -4.420  12.833  21.575  0.00  0.00    +0.000 A 
ATOM     25  C   UNL     1      -5.695  12.884  22.204  0.00  0.00    +0.000 A 
ATOM     26  C   UNL     1      -5.780  12.826  23.546  0.00  0.00    +0.000 A 
ATOM     27  C   UNL     1      -4.590  12.723  24.373  0.00  0.00    +0.000 A 
ATOM     28  C   UNL     1      -3.380  12.663  23.784  0.00  0.00    +0.000 A 
ATOM     29  N   UNL     1      -3.295  12.702  22.387  0.00  0.00    +0.000 N 
ENDBRANCH  19  21
ENDBRANCH   7  19
TORSDOF 3
ENDMDL
MODEL 6
REMARK VINA RESULT:      -9.0      1.363      2.758
REMARK  Name = 
REMARK  6 active torsions:
REMARK  status: ('A' for Active; 'I' for Inactive)
REMARK    1  A    between atoms: C_1  and  C_2
REMARK    2  A    between atoms: C_4  and  C_5
REMARK    3  A    between atoms: C_7  and  C_8
REMARK    4  A    between atoms: N_14  and  C_15
REMARK    5  A    between atoms: C_15  and  C_16
REMARK    6  A    between atoms: C_15  and  C_17
REMARK                            x       y       z     vdW  Elec       q    Type
REMARK                         _______ _______ _______ _____ _____    ______ ____
ROOT
ATOM      1  C   UNL     1       2.474   7.280  18.488  0.00  0.00    +0.000 C 
ATOM      2  C   UNL     1       2.071   8.330  17.743  0.00  0.00    +0.000 C 
ATOM      3  C   UNL     1       1.314   9.550  18.208  0.00  0.00    +0.000 C 
ATOM      4  N   UNL     1       0.868   9.511  19.597  0.00  0.00    +0.000 N 
ATOM      5  C   UNL     1       0.053  10.453  20.217  0.00  0.00    +0.000 C 
ATOM      6  O   UNL     1      -0.358  10.285  21.370  0.00  0.00    +0.000 OA
ATOM      7  N   UNL     1      -0.303  11.586  19.530  0.00  0.00    +0.000 N 
ATOM      8  C   UNL     1       1.352   8.462  20.492  0.00  0.00    +0.000 C 
ATOM      9  C   UNL     1       2.119   7.257  19.942  0.00  0.00    +0.000 C 
ATOM     10  H   UNL     1       0.278  11.913  18.771  0.00  0.00    +0.000 HD
ENDROOT
BRANCH   1  17
ATOM     11  C   UNL     1       3.274   2.273  17.757  0.00  0.00    +0.000 C 
ATOM     12  C   UNL     1       3.693   3.707  17.610  0.00  0.00    +0.000 A 
ATOM     13  C   UNL     1       4.917   3.997  16.996  0.00  0.00    +0.000 A 
ATOM     14  C   UNL     1       5.340   5.317  16.856  0.00  0.00    +0.000 A 
ATOM     15  C   UNL     1       6.661   5.631  16.221  0.00  0.00    +0.000 C 
ATOM     16  C   UNL     1       4.524   6.362  17.335  0.00  0.00    +0.000 A 
ATOM     17  C   UNL     1       3.281   6.129  17.947  0.00  0.00    +0.000 A 
ATOM     18  C   UNL     1       2.892   4.777  18.080  0.00  0.00    +0.000 A 
ENDBRANCH   1  17
BRANCH   7  19
ATOM     19  C   UNL     1      -1.143  12.604  20.199  0.00  0.00    +0.000 C 
ATOM     20  C   UNL     1      -0.736  14.037  19.820  0.00  0.00    +0.000 C 
BRANCH  19  21
ATOM     21  C   UNL     1      -2.591  12.389  19.863  0.00  0.00    +0.000 A 
ATOM     22  N   UNL     1      -3.069  11.992  18.695  0.00  0.00    +0.000 NA
ATOM     23  N   UNL     1      -4.440  11.936  18.779  0.00  0.00    +0.000 NA
ATOM     24  C   UNL     1      -4.793  12.311  19.988  0.00  0.00    +0.000 A 
ATOM     25  C   UNL     1      -6.059  12.436  20.625  0.00  0.00    +0.000 A 
ATOM     26  C   UNL     1      -6.126  12.880  21.894  0.00  0.00    +0.000 A 
ATOM     27  C   UNL     1      -4.928  13.250  22.628  0.00  0.00    +0.000 A 
ATOM     28  C   UNL     1      -3.725  13.124  22.035  0.00  0.00    +0.000 A 
ATOM     29  N   UNL     1      -3.656  12.641  20.722  0.00  0.00    +0.000 N 
ENDBRANCH  19  21
ENDBRANCH   7  19
TORSDOF 3
ENDMDL
MODEL 7
REMARK VINA RESULT:      -8.9      3.299      9.647
REMARK  Name = 
REMARK  6 active torsions:
REMARK  status: ('A' for Active; 'I' for Inactive)
REMARK    1  A    between atoms: C_1  and  C_2
REMARK    2  A    between atoms: C_4  and  C_5
REMARK    3  A    between atoms: C_7  and  C_8
REMARK    4  A    between atoms: N_14  and  C_15
REMARK    5  A    between atoms: C_15  and  C_16
REMARK    6  A    between atoms: C_15  and  C_17
REMARK                            x       y       z     vdW  Elec       q    Type
REMARK                         _______ _______ _______ _____ _____    ______ ____
ROOT
ATOM      1  C   UNL     1      -0.282  11.260  21.478  0.00  0.00    +0.000 C 
ATOM      2  C   UNL     1       0.080  10.016  21.858  0.00  0.00    +0.000 C 
ATOM      3  C   UNL     1       0.854   8.998  21.055  0.00  0.00    +0.000 C 
ATOM      4  N   UNL     1       1.122   9.374  19.671  0.00  0.00    +0.000 N 
ATOM      5  C   UNL     1       1.705   8.560  18.705  0.00  0.00    +0.000 C 
ATOM      6  O   UNL     1       1.799   8.928  17.530  0.00  0.00    +0.000 OA
ATOM      7  N   UNL     1       2.176   7.324  19.067  0.00  0.00    +0.000 N 
ATOM      8  C   UNL     1       0.856  10.738  19.217  0.00  0.00    +0.000 C 
ATOM      9  C   UNL     1       0.067  11.714  20.095  0.00  0.00    +0.000 C 
ATOM     10  H   UNL     1       2.435   7.151  20.028  0.00  0.00    +0.000 HD
ENDROOT
BRANCH   1  17
ATOM     11  C   UNL     1      -4.223  12.568  24.477  0.00  0.00    +0.000 C 
ATOM     12  C   UNL     1      -2.919  12.887  23.804  0.00  0.00    +0.000 A 
ATOM     13  C   UNL     1      -2.370  14.165  23.960  0.00  0.00    +0.000 A 
ATOM     14  C   UNL     1      -1.168  14.497  23.339  0.00  0.00    +0.000 A 
ATOM     15  C   UNL     1      -0.589  15.871  23.484  0.00  0.00    +0.000 C 
ATOM     16  C   UNL     1      -0.505  13.533  22.552  0.00  0.00    +0.000 A 
ATOM     17  C   UNL     1      -1.004  12.232  22.372  0.00  0.00    +0.000 A 
ATOM     18  C   UNL     1      -2.230  11.938  23.010  0.00  0.00    +0.000 A 
ENDBRANCH   1  17
BRANCH   7  19
ATOM     19  C   UNL     1       2.825   6.470  18.048  0.00  0.00    +0.000 C 
ATOM     20  C   UNL     1       4.358   6.496  18.154  0.00  0.00    +0.000 C 
BRANCH  19  21
ATOM     21  C   UNL     1       2.338   5.054  18.166  0.00  0.00    +0.000 A 
ATOM     22  N   UNL     1       1.923   4.288  17.170  0.00  0.00    +0.000 NA
ATOM     23  N   UNL     1       1.539   3.072  17.684  0.00  0.00    +0.000 NA
ATOM     24  C   UNL     1       1.706   3.105  18.987  0.00  0.00    +0.000 A 
ATOM     25  C   UNL     1       1.482   2.143  20.010  0.00  0.00    +0.000 A 
ATOM     26  C   UNL     1       1.720   2.467  21.295  0.00  0.00    +0.000 A 
ATOM     27  C   UNL     1       2.192   3.791  21.664  0.00  0.00    +0.000 A 
ATOM     28  C   UNL     1       2.416   4.704  20.698  0.00  0.00    +0.000 A 
ATOM     29  N   UNL     1       2.188   4.358  19.361  0.00  0.00    +0.000 N 
ENDBRANCH  19  21
ENDBRANCH   7  19
TORSDOF 3
ENDMDL
MODEL 8
REMARK VINA RESULT:      -8.9      3.260      9.487
REMARK  Name = 
REMARK  6 active torsions:
REMARK  status: ('A' for Active; 'I' for Inactive)
REMARK    1  A    between atoms: C_1  and  C_2
REMARK    2  A    between atoms: C_4  and  C_5
REMARK    3  A    between atoms: C_7  and  C_8
REMARK    4  A    between atoms: N_14  and  C_15
REMARK    5  A    between atoms: C_15  and  C_16
REMARK    6  A    between atoms: C_15  and  C_17
REMARK                            x       y       z     vdW  Elec       q    Type
REMARK                         _______ _______ _______ _____ _____    ______ ____
ROOT
ATOM      1  C   UNL     1      -0.216  11.385  21.360  0.00  0.00    +0.000 C 
ATOM      2  C   UNL     1       0.242  10.199  21.810  0.00  0.00    +0.000 C 
ATOM      3  C   UNL     1       1.004   9.151  21.033  0.00  0.00    +0.000 C 
ATOM      4  N   UNL     1       1.138   9.416  19.604  0.00  0.00    +0.000 N 
ATOM      5  C   UNL     1       1.685   8.548  18.664  0.00  0.00    +0.000 C 
ATOM      6  O   UNL     1       1.664   8.816  17.458  0.00  0.00    +0.000 OA
ATOM      7  N   UNL     1       2.250   7.373  19.087  0.00  0.00    +0.000 N 
ATOM      8  C   UNL     1       0.763  10.721  19.062  0.00  0.00    +0.000 C 
ATOM      9  C   UNL     1      -0.005  11.731  19.919  0.00  0.00    +0.000 C 
ATOM     10  H   UNL     1       2.595   7.297  20.034  0.00  0.00    +0.000 HD
ENDROOT
BRANCH   1  17
ATOM     11  C   UNL     1      -0.473  15.956  23.656  0.00  0.00    +0.000 C 
ATOM     12  C   UNL     1      -1.040  14.597  23.365  0.00  0.00    +0.000 A 
ATOM     13  C   UNL     1      -2.244  14.219  23.971  0.00  0.00    +0.000 A 
ATOM     14  C   UNL     1      -2.789  12.960  23.731  0.00  0.00    +0.000 A 
ATOM     15  C   UNL     1      -4.066  12.543  24.396  0.00  0.00    +0.000 C 
ATOM     16  C   UNL     1      -2.120  12.066  22.871  0.00  0.00    +0.000 A 
ATOM     17  C   UNL     1      -0.915  12.398  22.227  0.00  0.00    +0.000 A 
ATOM     18  C   UNL     1      -0.390  13.680  22.503  0.00  0.00    +0.000 A 
ENDBRANCH   1  17
BRANCH   7  19
ATOM     19  C   UNL     1       2.860   6.463  18.092  0.00  0.00    +0.000 C 
ATOM     20  C   UNL     1       4.390   6.394  18.225  0.00  0.00    +0.000 C 
BRANCH  19  21
ATOM     21  C   UNL     1       2.283   5.083  18.222  0.00  0.00    +0.000 A 
ATOM     22  N   UNL     1       1.772   4.357  17.241  0.00  0.00    +0.000 NA
ATOM     23  N   UNL     1       1.328   3.165  17.763  0.00  0.00    +0.000 NA
ATOM     24  C   UNL     1       1.556   3.174  19.057  0.00  0.00    +0.000 A 
ATOM     25  C   UNL     1       1.313   2.219  20.083  0.00  0.00    +0.000 A 
ATOM     26  C   UNL     1       1.630   2.513  21.358  0.00  0.00    +0.000 A 
ATOM     27  C   UNL     1       2.208   3.798  21.714  0.00  0.00    +0.000 A 
ATOM     28  C   UNL     1       2.451   4.703  20.746  0.00  0.00    +0.000 A 
ATOM     29  N   UNL     1       2.140   4.387  19.417  0.00  0.00    +0.000 N 
ENDBRANCH  19  21
ENDBRANCH   7  19
TORSDOF 3
ENDMDL
MODEL 9
REMARK VINA RESULT:      -8.6      3.199      9.784
REMARK  Name = 
REMARK  6 active torsions:
REMARK  status: ('A' for Active; 'I' for Inactive)
REMARK    1  A    between atoms: C_1  and  C_2
REMARK    2  A    between atoms: C_4  and  C_5
REMARK    3  A    between atoms: C_7  and  C_8
REMARK    4  A    between atoms: N_14  and  C_15
REMARK    5  A    between atoms: C_15  and  C_16
REMARK    6  A    between atoms: C_15  and  C_17
REMARK                            x       y       z     vdW  Elec       q    Type
REMARK                         _______ _______ _______ _____ _____    ______ ____
ROOT
ATOM      1  C   UNL     1      -0.397  11.337  21.547  0.00  0.00    +0.000 C 
ATOM      2  C   UNL     1       0.132  10.153  21.922  0.00  0.00    +0.000 C 
ATOM      3  C   UNL     1       0.961   9.210  21.083  0.00  0.00    +0.000 C 
ATOM      4  N   UNL     1       1.086   9.579  19.677  0.00  0.00    +0.000 N 
ATOM      5  C   UNL     1       1.691   8.812  18.686  0.00  0.00    +0.000 C 
ATOM      6  O   UNL     1       1.660   9.158  17.500  0.00  0.00    +0.000 OA
ATOM      7  N   UNL     1       2.326   7.647  19.034  0.00  0.00    +0.000 N 
ATOM      8  C   UNL     1       0.633  10.891  19.220  0.00  0.00    +0.000 C 
ATOM      9  C   UNL     1      -0.201  11.792  20.135  0.00  0.00    +0.000 C 
ATOM     10  H   UNL     1       2.670   7.530  19.977  0.00  0.00    +0.000 HD
ENDROOT
BRANCH   1  17
ATOM     11  C   UNL     1      -4.417  12.374  24.548  0.00  0.00    +0.000 C 
ATOM     12  C   UNL     1      -3.117  12.767  23.908  0.00  0.00    +0.000 A 
ATOM     13  C   UNL     1      -2.614  14.055  24.128  0.00  0.00    +0.000 A 
ATOM     14  C   UNL     1      -1.417  14.455  23.538  0.00  0.00    +0.000 A 
ATOM     15  C   UNL     1      -0.888  15.841  23.752  0.00  0.00    +0.000 C 
ATOM     16  C   UNL     1      -0.712  13.551  22.718  0.00  0.00    +0.000 A 
ATOM     17  C   UNL     1      -1.163  12.243  22.474  0.00  0.00    +0.000 A 
ATOM     18  C   UNL     1      -2.385  11.878  23.082  0.00  0.00    +0.000 A 
ENDBRANCH   1  17
BRANCH   7  19
ATOM     19  C   UNL     1       2.997   6.847  17.986  0.00  0.00    +0.000 C 
ATOM     20  C   UNL     1       4.159   7.607  17.325  0.00  0.00    +0.000 C 
BRANCH  19  21
ATOM     21  C   UNL     1       3.505   5.555  18.560  0.00  0.00    +0.000 A 
ATOM     22  N   UNL     1       4.739   5.320  18.976  0.00  0.00    +0.000 NA
ATOM     23  N   UNL     1       4.813   4.018  19.410  0.00  0.00    +0.000 NA
ATOM     24  C   UNL     1       3.635   3.461  19.245  0.00  0.00    +0.000 A 
ATOM     25  C   UNL     1       3.140   2.157  19.521  0.00  0.00    +0.000 A 
ATOM     26  C   UNL     1       1.866   1.847  19.215  0.00  0.00    +0.000 A 
ATOM     27  C   UNL     1       0.982   2.819  18.593  0.00  0.00    +0.000 A 
ATOM     28  C   UNL     1       1.441   4.060  18.339  0.00  0.00    +0.000 A 
ATOM     29  N   UNL     1       2.761   4.386  18.677  0.00  0.00    +0.000 N 
ENDBRANCH  19  21
ENDBRANCH   7  19
TORSDOF 3
ENDMDL
