MODEL 1
REMARK VINA RESULT:      -9.1      0.000      0.000
REMARK  Name = 
REMARK  4 active torsions:
REMARK  status: ('A' for Active; 'I' for Inactive)
REMARK    1  A    between atoms: C_5  and  C_7
REMARK    2  A    between atoms: C_10  and  N_11
REMARK    3  A    between atoms: N_11  and  S_12
REMARK    4  A    between atoms: S_12  and  C_15
REMARK                            x       y       z     vdW  Elec       q    Type
REMARK                         _______ _______ _______ _____ _____    ______ ____
ROOT
ATOM      1  C   UNL     1       1.490   8.017  20.417  0.00  0.00    +0.000 A 
ATOM      2  C   UNL     1       1.393   6.756  21.018  0.00  0.00    +0.000 A 
ATOM      3  C   UNL     1       1.989   5.644  20.402  0.00  0.00    +0.000 A 
ATOM      4  C   UNL     1       2.666   5.785  19.188  0.00  0.00    +0.000 A 
ATOM      5  C   UNL     1       2.713   7.025  18.564  0.00  0.00    +0.000 A 
ATOM      6  C   UNL     1       2.107   8.123  19.167  0.00  0.00    +0.000 A 
ENDROOT
BRANCH   1  11
ATOM      7  N   UNL     1      -1.579  11.105  17.607  0.00  0.00    +0.000 N 
ATOM      8  C   UNL     1      -1.036  10.973  18.820  0.00  0.00    +0.000 A 
ATOM      9  N   UNL     1      -0.176  10.017  19.120  0.00  0.00    +0.000 NA
ATOM     10  N   UNL     1       0.096  10.173  20.447  0.00  0.00    +0.000 N 
ATOM     11  C   UNL     1       0.950   9.234  21.096  0.00  0.00    +0.000 C 
ATOM     12  O   UNL     1       1.262   9.441  22.267  0.00  0.00    +0.000 OA
ATOM     13  C   UNL     1      -0.530  11.293  20.970  0.00  0.00    +0.000 A 
ATOM     14  C   UNL     1      -0.524  11.880  22.242  0.00  0.00    +0.000 A 
ATOM     15  C   UNL     1      -1.302  13.026  22.431  0.00  0.00    +0.000 A 
ATOM     16  C   UNL     1      -2.068  13.560  21.396  0.00  0.00    +0.000 A 
ATOM     17  C   UNL     1      -2.077  12.962  20.134  0.00  0.00    +0.000 A 
ATOM     18  C   UNL     1      -1.295  11.821  19.921  0.00  0.00    +0.000 A 
ATOM     19  H   UNL     1      -1.450  10.364  16.926  0.00  0.00    +0.000 HD
ATOM     20  H   UNL     1      -2.341  11.741  17.411  0.00  0.00    +0.000 HD
ENDBRANCH   1  11
BRANCH   4  21
ATOM     21  N   UNL     1       3.299   4.655  18.611  0.00  0.00    +0.000 N 
ATOM     22  H   UNL     1       2.739   3.866  18.290  0.00  0.00    +0.000 HD
BRANCH  21  23
ATOM     23  S   UNL     1       4.916   4.332  18.943  0.00  0.00    +0.000 S 
ATOM     24  O   UNL     1       5.438   5.459  19.680  0.00  0.00    +0.000 OA
ATOM     25  O   UNL     1       5.016   2.979  19.453  0.00  0.00    +0.000 OA
BRANCH  23  26
ATOM     26  C   UNL     1       5.664   4.360  17.326  0.00  0.00    +0.000 A 
ATOM     27  C   UNL     1       7.019   4.697  17.193  0.00  0.00    +0.000 A 
ATOM     28  C   UNL     1       7.550   4.881  15.914  0.00  0.00    +0.000 A 
ATOM     29  C   UNL     1       6.736   4.707  14.796  0.00  0.00    +0.000 A 
ATOM     30  F   UNL     1       7.235   4.940  13.576  0.00  0.00    +0.000 F 
ATOM     31  C   UNL     1       5.405   4.327  14.927  0.00  0.00    +0.000 A 
ATOM     32  C   UNL     1       4.865   4.141  16.198  0.00  0.00    +0.000 A 
ENDBRANCH  23  26
ENDBRANCH  21  23
ENDBRANCH   4  21
TORSDOF 4
ENDMDL
MODEL 2
REMARK VINA RESULT:      -9.0      1.318      2.167
REMARK  Name = 
REMARK  4 active torsions:
REMARK  status: ('A' for Active; 'I' for Inactive)
REMARK    1  A    between atoms: C_5  and  C_7
REMARK    2  A    between atoms: C_10  and  N_11
REMARK    3  A    between atoms: N_11  and  S_12
REMARK    4  A    between atoms: S_12  and  C_15
REMARK                            x       y       z     vdW  Elec       q    Type
REMARK                         _______ _______ _______ _____ _____    ______ ____
ROOT
ATOM      1  C   UNL     1       1.817   8.473  19.154  0.00  0.00    +0.000 A 
ATOM      2  C   UNL     1       2.505   8.150  17.978  0.00  0.00    +0.000 A 
ATOM      3  C   UNL     1       3.053   6.867  17.822  0.00  0.00    +0.000 A 
ATOM      4  C   UNL     1       2.929   5.916  18.838  0.00  0.00    +0.000 A 
ATOM      5  C   UNL     1       2.297   6.254  20.028  0.00  0.00    +0.000 A 
ATOM      6  C   UNL     1       1.769   7.533  20.188  0.00  0.00    +0.000 A 
ENDROOT
BRANCH   1  11
ATOM      7  N   UNL     1      -0.402   9.454  23.734  0.00  0.00    +0.000 N 
ATOM      8  C   UNL     1      -0.186   9.985  22.527  0.00  0.00    +0.000 A 
ATOM      9  N   UNL     1       0.388   9.317  21.543  0.00  0.00    +0.000 NA
ATOM     10  N   UNL     1       0.488  10.202  20.511  0.00  0.00    +0.000 N 
ATOM     11  C   UNL     1       1.141   9.797  19.310  0.00  0.00    +0.000 C 
ATOM     12  O   UNL     1       1.141  10.572  18.355  0.00  0.00    +0.000 OA
ATOM     13  C   UNL     1      -0.109  11.415  20.816  0.00  0.00    +0.000 A 
ATOM     14  C   UNL     1      -0.294  12.595  20.084  0.00  0.00    +0.000 A 
ATOM     15  C   UNL     1      -0.941  13.658  20.721  0.00  0.00    +0.000 A 
ATOM     16  C   UNL     1      -1.374  13.555  22.041  0.00  0.00    +0.000 A 
ATOM     17  C   UNL     1      -1.175  12.379  22.768  0.00  0.00    +0.000 A 
ATOM     18  C   UNL     1      -0.540  11.299  22.144  0.00  0.00    +0.000 A 
ATOM     19  H   UNL     1       0.020   8.560  23.961  0.00  0.00    +0.000 HD
ATOM     20  H   UNL     1      -0.707  10.001  24.529  0.00  0.00    +0.000 HD
ENDBRANCH   1  11
BRANCH   4  21
ATOM     21  N   UNL     1       3.450   4.613  18.636  0.00  0.00    +0.000 N 
ATOM     22  H   UNL     1       2.828   3.805  18.664  0.00  0.00    +0.000 HD
BRANCH  21  23
ATOM     23  S   UNL     1       5.081   4.304  18.910  0.00  0.00    +0.000 S 
ATOM     24  O   UNL     1       5.620   5.436  19.627  0.00  0.00    +0.000 OA
ATOM     25  O   UNL     1       5.210   2.952  19.417  0.00  0.00    +0.000 OA
BRANCH  23  26
ATOM     26  C   UNL     1       5.770   4.336  17.267  0.00  0.00    +0.000 A 
ATOM     27  C   UNL     1       7.108   4.714  17.081  0.00  0.00    +0.000 A 
ATOM     28  C   UNL     1       7.587   4.899  15.783  0.00  0.00    +0.000 A 
ATOM     29  C   UNL     1       6.739   4.688  14.696  0.00  0.00    +0.000 A 
ATOM     30  F   UNL     1       7.186   4.923  13.457  0.00  0.00    +0.000 F 
ATOM     31  C   UNL     1       5.426   4.268  14.879  0.00  0.00    +0.000 A 
ATOM     32  C   UNL     1       4.937   4.080  16.171  0.00  0.00    +0.000 A 
ENDBRANCH  23  26
ENDBRANCH  21  23
ENDBRANCH   4  21
TORSDOF 4
ENDMDL
MODEL 3
REMARK VINA RESULT:      -9.0      1.756      2.370
REMARK  Name = 
REMARK  4 active torsions:
REMARK  status: ('A' for Active; 'I' for Inactive)
REMARK    1  A    between atoms: C_5  and  C_7
REMARK    2  A    between atoms: C_10  and  N_11
REMARK    3  A    between atoms: N_11  and  S_12
REMARK    4  A    between atoms: S_12  and  C_15
REMARK                            x       y       z     vdW  Elec       q    Type
REMARK                         _______ _______ _______ _____ _____    ______ ____
ROOT
ATOM      1  C   UNL     1       1.762   7.685  19.979  0.00  0.00    +0.000 A 
ATOM      2  C   UNL     1       2.299   8.069  18.745  0.00  0.00    +0.000 A 
ATOM      3  C   UNL     1       2.798   7.093  17.869  0.00  0.00    +0.000 A 
ATOM      4  C   UNL     1       2.775   5.742  18.227  0.00  0.00    +0.000 A 
ATOM      5  C   UNL     1       2.294   5.367  19.474  0.00  0.00    +0.000 A 
ATOM      6  C   UNL     1       1.815   6.338  20.349  0.00  0.00    +0.000 A 
ENDROOT
BRANCH   1  11
ATOM      7  N   UNL     1      -1.254  11.284  17.787  0.00  0.00    +0.000 N 
ATOM      8  C   UNL     1      -0.779  10.879  18.967  0.00  0.00    +0.000 A 
ATOM      9  N   UNL     1       0.098   9.898  19.088  0.00  0.00    +0.000 NA
ATOM     10  N   UNL     1       0.286   9.739  20.428  0.00  0.00    +0.000 N 
ATOM     11  C   UNL     1       1.136   8.692  20.891  0.00  0.00    +0.000 C 
ATOM     12  O   UNL     1       1.371   8.619  22.095  0.00  0.00    +0.000 OA
ATOM     13  C   UNL     1      -0.413  10.686  21.160  0.00  0.00    +0.000 A 
ATOM     14  C   UNL     1      -0.504  10.950  22.533  0.00  0.00    +0.000 A 
ATOM     15  C   UNL     1      -1.335  11.999  22.937  0.00  0.00    +0.000 A 
ATOM     16  C   UNL     1      -2.059  12.747  22.011  0.00  0.00    +0.000 A 
ATOM     17  C   UNL     1      -1.971  12.470  20.645  0.00  0.00    +0.000 A 
ATOM     18  C   UNL     1      -1.135  11.431  20.219  0.00  0.00    +0.000 A 
ATOM     19  H   UNL     1      -1.058  10.732  16.960  0.00  0.00    +0.000 HD
ATOM     20  H   UNL     1      -2.028  11.931  17.699  0.00  0.00    +0.000 HD
ENDBRANCH   1  11
BRANCH   4  21
ATOM     21  N   UNL     1       3.241   4.771  17.304  0.00  0.00    +0.000 N 
ATOM     22  H   UNL     1       2.594   4.348  16.640  0.00  0.00    +0.000 HD
BRANCH  21  23
ATOM     23  S   UNL     1       4.647   3.905  17.628  0.00  0.00    +0.000 S 
ATOM     24  O   UNL     1       4.417   3.148  18.837  0.00  0.00    +0.000 OA
ATOM     25  O   UNL     1       5.082   3.267  16.402  0.00  0.00    +0.000 OA
BRANCH  23  26
ATOM     26  C   UNL     1       5.820   5.189  18.018  0.00  0.00    +0.000 A 
ATOM     27  C   UNL     1       6.090   6.193  17.076  0.00  0.00    +0.000 A 
ATOM     28  C   UNL     1       7.130   7.091  17.322  0.00  0.00    +0.000 A 
ATOM     29  C   UNL     1       7.866   6.991  18.502  0.00  0.00    +0.000 A 
ATOM     30  F   UNL     1       8.899   7.818  18.706  0.00  0.00    +0.000 F 
ATOM     31  C   UNL     1       7.569   6.025  19.456  0.00  0.00    +0.000 A 
ATOM     32  C   UNL     1       6.533   5.122  19.221  0.00  0.00    +0.000 A 
ENDBRANCH  23  26
ENDBRANCH  21  23
ENDBRANCH   4  21
TORSDOF 4
ENDMDL
MODEL 4
REMARK VINA RESULT:      -8.9      0.495      1.020
REMARK  Name = 
REMARK  4 active torsions:
REMARK  status: ('A' for Active; 'I' for Inactive)
REMARK    1  A    between atoms: C_5  and  C_7
REMARK    2  A    between atoms: C_10  and  N_11
REMARK    3  A    between atoms: N_11  and  S_12
REMARK    4  A    between atoms: S_12  and  C_15
REMARK                            x       y       z     vdW  Elec       q    Type
REMARK                         _______ _______ _______ _____ _____    ______ ____
ROOT
ATOM      1  C   UNL     1       1.537   7.842  20.398  0.00  0.00    +0.000 A 
ATOM      2  C   UNL     1       2.188   8.129  19.192  0.00  0.00    +0.000 A 
ATOM      3  C   UNL     1       2.721   7.084  18.423  0.00  0.00    +0.000 A 
ATOM      4  C   UNL     1       2.617   5.760  18.858  0.00  0.00    +0.000 A 
ATOM      5  C   UNL     1       2.022   5.480  20.081  0.00  0.00    +0.000 A 
ATOM      6  C   UNL     1       1.510   6.519  20.852  0.00  0.00    +0.000 A 
ENDROOT
BRANCH   1  11
ATOM      7  N   UNL     1      -1.346  11.253  17.771  0.00  0.00    +0.000 N 
ATOM      8  C   UNL     1      -0.930  10.947  19.002  0.00  0.00    +0.000 A 
ATOM      9  N   UNL     1      -0.067   9.977  19.246  0.00  0.00    +0.000 NA
ATOM     10  N   UNL     1       0.057   9.931  20.603  0.00  0.00    +0.000 N 
ATOM     11  C   UNL     1       0.877   8.923  21.191  0.00  0.00    +0.000 C 
ATOM     12  O   UNL     1       1.054   8.951  22.408  0.00  0.00    +0.000 OA
ATOM     13  C   UNL     1      -0.668  10.938  21.218  0.00  0.00    +0.000 A 
ATOM     14  C   UNL     1      -0.822  11.317  22.558  0.00  0.00    +0.000 A 
ATOM     15  C   UNL     1      -1.664  12.399  22.833  0.00  0.00    +0.000 A 
ATOM     16  C   UNL     1      -2.338  13.069  21.814  0.00  0.00    +0.000 A 
ATOM     17  C   UNL     1      -2.188  12.677  20.482  0.00  0.00    +0.000 A 
ATOM     18  C   UNL     1      -1.340  11.604  20.185  0.00  0.00    +0.000 A 
ATOM     19  H   UNL     1      -1.115  10.632  17.003  0.00  0.00    +0.000 HD
ATOM     20  H   UNL     1      -2.110  11.893  17.592  0.00  0.00    +0.000 HD
ENDBRANCH   1  11
BRANCH   4  21
ATOM     21  N   UNL     1       3.122   4.718  18.038  0.00  0.00    +0.000 N 
ATOM     22  H   UNL     1       2.485   4.177  17.454  0.00  0.00    +0.000 HD
BRANCH  21  23
ATOM     23  S   UNL     1       4.593   3.990  18.408  0.00  0.00    +0.000 S 
ATOM     24  O   UNL     1       5.231   4.798  19.421  0.00  0.00    +0.000 OA
ATOM     25  O   UNL     1       4.364   2.572  18.599  0.00  0.00    +0.000 OA
BRANCH  23  26
ATOM     26  C   UNL     1       5.522   4.192  16.901  0.00  0.00    +0.000 A 
ATOM     27  C   UNL     1       6.867   4.587  16.961  0.00  0.00    +0.000 A 
ATOM     28  C   UNL     1       7.535   4.906  15.777  0.00  0.00    +0.000 A 
ATOM     29  C   UNL     1       6.865   4.807  14.558  0.00  0.00    +0.000 A 
ATOM     30  F   UNL     1       7.491   5.169  13.432  0.00  0.00    +0.000 F 
ATOM     31  C   UNL     1       5.546   4.372  14.494  0.00  0.00    +0.000 A 
ATOM     32  C   UNL     1       4.870   4.051  15.671  0.00  0.00    +0.000 A 
ENDBRANCH  23  26
ENDBRANCH  21  23
ENDBRANCH   4  21
TORSDOF 4
ENDMDL
MODEL 5
REMARK VINA RESULT:      -8.9      1.352      1.817
REMARK  Name = 
REMARK  4 active torsions:
REMARK  status: ('A' for Active; 'I' for Inactive)
REMARK    1  A    between atoms: C_5  and  C_7
REMARK    2  A    between atoms: C_10  and  N_11
REMARK    3  A    between atoms: N_11  and  S_12
REMARK    4  A    between atoms: S_12  and  C_15
REMARK                            x       y       z     vdW  Elec       q    Type
REMARK                         _______ _______ _______ _____ _____    ______ ____
ROOT
ATOM      1  C   UNL     1       1.572   7.691  20.289  0.00  0.00    +0.000 A 
ATOM      2  C   UNL     1       2.191   7.896  19.050  0.00  0.00    +0.000 A 
ATOM      3  C   UNL     1       2.613   6.793  18.292  0.00  0.00    +0.000 A 
ATOM      4  C   UNL     1       2.432   5.493  18.772  0.00  0.00    +0.000 A 
ATOM      5  C   UNL     1       1.870   5.292  20.026  0.00  0.00    +0.000 A 
ATOM      6  C   UNL     1       1.467   6.388  20.784  0.00  0.00    +0.000 A 
ENDROOT
BRANCH   1  11
ATOM      7  N   UNL     1      -1.340  11.120  17.715  0.00  0.00    +0.000 N 
ATOM      8  C   UNL     1      -0.846  10.850  18.926  0.00  0.00    +0.000 A 
ATOM      9  N   UNL     1      -0.013   9.850  19.154  0.00  0.00    +0.000 NA
ATOM     10  N   UNL     1       0.212   9.860  20.498  0.00  0.00    +0.000 N 
ATOM     11  C   UNL     1       1.025   8.840  21.074  0.00  0.00    +0.000 C 
ATOM     12  O   UNL     1       1.296   8.915  22.271  0.00  0.00    +0.000 OA
ATOM     13  C   UNL     1      -0.417  10.930  21.115  0.00  0.00    +0.000 A 
ATOM     14  C   UNL     1      -0.450  11.378  22.442  0.00  0.00    +0.000 A 
ATOM     15  C   UNL     1      -1.216  12.512  22.724  0.00  0.00    +0.000 A 
ATOM     16  C   UNL     1      -1.933  13.169  21.726  0.00  0.00    +0.000 A 
ATOM     17  C   UNL     1      -1.904  12.709  20.407  0.00  0.00    +0.000 A 
ATOM     18  C   UNL     1      -1.133  11.581  20.102  0.00  0.00    +0.000 A 
ATOM     19  H   UNL     1      -1.197  10.454  16.965  0.00  0.00    +0.000 HD
ATOM     20  H   UNL     1      -2.085  11.789  17.562  0.00  0.00    +0.000 HD
ENDBRANCH   1  11
BRANCH   4  21
ATOM     21  N   UNL     1       2.825   4.395  17.965  0.00  0.00    +0.000 N 
ATOM     22  H   UNL     1       2.130   3.901  17.405  0.00  0.00    +0.000 HD
BRANCH  21  23
ATOM     23  S   UNL     1       4.233   3.546  18.322  0.00  0.00    +0.000 S 
ATOM     24  O   UNL     1       4.260   3.336  19.750  0.00  0.00    +0.000 OA
ATOM     25  O   UNL     1       4.349   2.443  17.389  0.00  0.00    +0.000 OA
BRANCH  23  26
ATOM     26  C   UNL     1       5.512   4.724  17.932  0.00  0.00    +0.000 A 
ATOM     27  C   UNL     1       6.439   5.095  18.917  0.00  0.00    +0.000 A 
ATOM     28  C   UNL     1       7.328   6.139  18.654  0.00  0.00    +0.000 A 
ATOM     29  C   UNL     1       7.295   6.780  17.416  0.00  0.00    +0.000 A 
ATOM     30  F   UNL     1       8.109   7.818  17.190  0.00  0.00    +0.000 F 
ATOM     31  C   UNL     1       6.407   6.382  16.423  0.00  0.00    +0.000 A 
ATOM     32  C   UNL     1       5.515   5.340  16.675  0.00  0.00    +0.000 A 
ENDBRANCH  23  26
ENDBRANCH  21  23
ENDBRANCH   4  21
TORSDOF 4
ENDMDL
MODEL 6
REMARK VINA RESULT:      -8.7      2.287      3.076
REMARK  Name = 
REMARK  4 active torsions:
REMARK  status: ('A' for Active; 'I' for Inactive)
REMARK    1  A    between atoms: C_5  and  C_7
REMARK    2  A    between atoms: C_10  and  N_11
REMARK    3  A    between atoms: N_11  and  S_12
REMARK    4  A    between atoms: S_12  and  C_15
REMARK                            x       y       z     vdW  Elec       q    Type
REMARK                         _______ _______ _______ _____ _____    ______ ____
ROOT
ATOM      1  C   UNL     1       0.282   9.624  19.295  0.00  0.00    +0.000 A 
ATOM      2  C   UNL     1       1.021   9.604  18.106  0.00  0.00    +0.000 A 
ATOM      3  C   UNL     1       2.100   8.717  17.972  0.00  0.00    +0.000 A 
ATOM      4  C   UNL     1       2.451   7.864  19.022  0.00  0.00    +0.000 A 
ATOM      5  C   UNL     1       1.754   7.924  20.222  0.00  0.00    +0.000 A 
ATOM      6  C   UNL     1       0.695   8.816  20.360  0.00  0.00    +0.000 A 
ENDROOT
BRANCH   1  11
ATOM      7  N   UNL     1      -3.037   9.659  15.316  0.00  0.00    +0.000 N 
ATOM      8  C   UNL     1      -2.835  10.179  16.530  0.00  0.00    +0.000 A 
ATOM      9  N   UNL     1      -1.735   9.963  17.228  0.00  0.00    +0.000 NA
ATOM     10  N   UNL     1      -1.926  10.598  18.418  0.00  0.00    +0.000 N 
ATOM     11  C   UNL     1      -0.930  10.488  19.432  0.00  0.00    +0.000 C 
ATOM     12  O   UNL     1      -1.072  11.141  20.464  0.00  0.00    +0.000 OA
ATOM     13  C   UNL     1      -3.124  11.295  18.440  0.00  0.00    +0.000 A 
ATOM     14  C   UNL     1      -3.731  12.113  19.402  0.00  0.00    +0.000 A 
ATOM     15  C   UNL     1      -4.980  12.658  19.093  0.00  0.00    +0.000 A 
ATOM     16  C   UNL     1      -5.609  12.388  17.880  0.00  0.00    +0.000 A 
ATOM     17  C   UNL     1      -5.002  11.562  16.931  0.00  0.00    +0.000 A 
ATOM     18  C   UNL     1      -3.745  11.016  17.216  0.00  0.00    +0.000 A 
ATOM     19  H   UNL     1      -2.398   8.953  14.970  0.00  0.00    +0.000 HD
ATOM     20  H   UNL     1      -3.931   9.701  14.842  0.00  0.00    +0.000 HD
ENDBRANCH   1  11
BRANCH   4  21
ATOM     21  N   UNL     1       3.515   6.944  18.844  0.00  0.00    +0.000 N 
ATOM     22  H   UNL     1       4.454   7.286  18.641  0.00  0.00    +0.000 HD
BRANCH  21  23
ATOM     23  S   UNL     1       3.191   5.353  18.403  0.00  0.00    +0.000 S 
ATOM     24  O   UNL     1       3.640   4.507  19.484  0.00  0.00    +0.000 OA
ATOM     25  O   UNL     1       1.834   5.287  17.899  0.00  0.00    +0.000 OA
BRANCH  23  26
ATOM     26  C   UNL     1       4.295   5.092  17.028  0.00  0.00    +0.000 A 
ATOM     27  C   UNL     1       4.667   3.787  16.674  0.00  0.00    +0.000 A 
ATOM     28  C   UNL     1       5.660   3.602  15.710  0.00  0.00    +0.000 A 
ATOM     29  C   UNL     1       6.248   4.711  15.102  0.00  0.00    +0.000 A 
ATOM     30  F   UNL     1       7.238   4.530  14.220  0.00  0.00    +0.000 F 
ATOM     31  C   UNL     1       5.845   6.004  15.419  0.00  0.00    +0.000 A 
ATOM     32  C   UNL     1       4.855   6.199  16.381  0.00  0.00    +0.000 A 
ENDBRANCH  23  26
ENDBRANCH  21  23
ENDBRANCH   4  21
TORSDOF 4
ENDMDL
MODEL 7
REMARK VINA RESULT:      -8.7      1.450      1.767
REMARK  Name = 
REMARK  4 active torsions:
REMARK  status: ('A' for Active; 'I' for Inactive)
REMARK    1  A    between atoms: C_5  and  C_7
REMARK    2  A    between atoms: C_10  and  N_11
REMARK    3  A    between atoms: N_11  and  S_12
REMARK    4  A    between atoms: S_12  and  C_15
REMARK                            x       y       z     vdW  Elec       q    Type
REMARK                         _______ _______ _______ _____ _____    ______ ____
ROOT
ATOM      1  C   UNL     1       1.443   8.232  19.878  0.00  0.00    +0.000 A 
ATOM      2  C   UNL     1       2.105   8.178  18.645  0.00  0.00    +0.000 A 
ATOM      3  C   UNL     1       2.749   6.995  18.253  0.00  0.00    +0.000 A 
ATOM      4  C   UNL     1       2.746   5.876  19.090  0.00  0.00    +0.000 A 
ATOM      5  C   UNL     1       2.138   5.947  20.336  0.00  0.00    +0.000 A 
ATOM      6  C   UNL     1       1.514   7.128  20.732  0.00  0.00    +0.000 A 
ENDROOT
BRANCH   1  11
ATOM      7  N   UNL     1       2.568  12.659  17.429  0.00  0.00    +0.000 N 
ATOM      8  C   UNL     1       1.774  12.144  18.372  0.00  0.00    +0.000 A 
ATOM      9  N   UNL     1       1.876  10.895  18.790  0.00  0.00    +0.000 NA
ATOM     10  N   UNL     1       0.870  10.729  19.695  0.00  0.00    +0.000 N 
ATOM     11  C   UNL     1       0.667   9.445  20.280  0.00  0.00    +0.000 C 
ATOM     12  O   UNL     1      -0.181   9.333  21.163  0.00  0.00    +0.000 OA
ATOM     13  C   UNL     1       0.180  11.911  19.916  0.00  0.00    +0.000 A 
ATOM     14  C   UNL     1      -0.882  12.247  20.765  0.00  0.00    +0.000 A 
ATOM     15  C   UNL     1      -1.355  13.562  20.721  0.00  0.00    +0.000 A 
ATOM     16  C   UNL     1      -0.800  14.503  19.856  0.00  0.00    +0.000 A 
ATOM     17  C   UNL     1       0.251  14.155  19.004  0.00  0.00    +0.000 A 
ATOM     18  C   UNL     1       0.747  12.847  19.042  0.00  0.00    +0.000 A 
ATOM     19  H   UNL     1       3.173  12.040  16.902  0.00  0.00    +0.000 HD
ATOM     20  H   UNL     1       2.402  13.563  17.005  0.00  0.00    +0.000 HD
ENDBRANCH   1  11
BRANCH   4  21
ATOM     21  N   UNL     1       3.364   4.678  18.649  0.00  0.00    +0.000 N 
ATOM     22  H   UNL     1       2.797   3.849  18.469  0.00  0.00    +0.000 HD
BRANCH  21  23
ATOM     23  S   UNL     1       4.998   4.411  18.948  0.00  0.00    +0.000 S 
ATOM     24  O   UNL     1       5.509   5.581  19.622  0.00  0.00    +0.000 OA
ATOM     25  O   UNL     1       5.148   3.083  19.510  0.00  0.00    +0.000 OA
BRANCH  23  26
ATOM     26  C   UNL     1       5.700   4.390  17.310  0.00  0.00    +0.000 A 
ATOM     27  C   UNL     1       7.063   4.669  17.135  0.00  0.00    +0.000 A 
ATOM     28  C   UNL     1       7.565   4.817  15.839  0.00  0.00    +0.000 A 
ATOM     29  C   UNL     1       6.713   4.664  14.747  0.00  0.00    +0.000 A 
ATOM     30  F   UNL     1       7.185   4.864  13.510  0.00  0.00    +0.000 F 
ATOM     31  C   UNL     1       5.371   4.341  14.919  0.00  0.00    +0.000 A 
ATOM     32  C   UNL     1       4.860   4.192  16.208  0.00  0.00    +0.000 A 
ENDBRANCH  23  26
ENDBRANCH  21  23
ENDBRANCH   4  21
TORSDOF 4
ENDMDL
MODEL 8
REMARK VINA RESULT:      -8.6      3.292      4.462
REMARK  Name = 
REMARK  4 active torsions:
REMARK  status: ('A' for Active; 'I' for Inactive)
REMARK    1  A    between atoms: C_5  and  C_7
REMARK    2  A    between atoms: C_10  and  N_11
REMARK    3  A    between atoms: N_11  and  S_12
REMARK    4  A    between atoms: S_12  and  C_15
REMARK                            x       y       z     vdW  Elec       q    Type
REMARK                         _______ _______ _______ _____ _____    ______ ____
ROOT
ATOM      1  C   UNL     1       1.733   8.594  18.974  0.00  0.00    +0.000 A 
ATOM      2  C   UNL     1       2.512   8.549  17.812  0.00  0.00    +0.000 A 
ATOM      3  C   UNL     1       3.373   7.462  17.593  0.00  0.00    +0.000 A 
ATOM      4  C   UNL     1       3.467   6.432  18.533  0.00  0.00    +0.000 A 
ATOM      5  C   UNL     1       2.736   6.505  19.712  0.00  0.00    +0.000 A 
ATOM      6  C   UNL     1       1.896   7.592  19.936  0.00  0.00    +0.000 A 
ENDROOT
BRANCH   1  11
ATOM      7  N   UNL     1       0.050   9.317  23.822  0.00  0.00    +0.000 N 
ATOM      8  C   UNL     1      -0.082   9.780  22.577  0.00  0.00    +0.000 A 
ATOM      9  N   UNL     1       0.503   9.215  21.536  0.00  0.00    +0.000 NA
ATOM     10  N   UNL     1       0.187  10.000  20.467  0.00  0.00    +0.000 N 
ATOM     11  C   UNL     1       0.738   9.689  19.190  0.00  0.00    +0.000 C 
ATOM     12  O   UNL     1       0.370  10.348  18.219  0.00  0.00    +0.000 OA
ATOM     13  C   UNL     1      -0.678  11.023  20.821  0.00  0.00    +0.000 A 
ATOM     14  C   UNL     1      -1.302  12.038  20.085  0.00  0.00    +0.000 A 
ATOM     15  C   UNL     1      -2.121  12.933  20.781  0.00  0.00    +0.000 A 
ATOM     16  C   UNL     1      -2.300  12.829  22.159  0.00  0.00    +0.000 A 
ATOM     17  C   UNL     1      -1.665  11.821  22.886  0.00  0.00    +0.000 A 
ATOM     18  C   UNL     1      -0.851  10.908  22.207  0.00  0.00    +0.000 A 
ATOM     19  H   UNL     1       0.739   8.597  24.010  0.00  0.00    +0.000 HD
ATOM     20  H   UNL     1      -0.274   9.825  24.635  0.00  0.00    +0.000 HD
ENDBRANCH   1  11
BRANCH   4  21
ATOM     21  N   UNL     1       4.308   5.322  18.265  0.00  0.00    +0.000 N 
ATOM     22  H   UNL     1       5.297   5.470  18.067  0.00  0.00    +0.000 HD
BRANCH  21  23
ATOM     23  S   UNL     1       3.647   3.875  17.717  0.00  0.00    +0.000 S 
ATOM     24  O   UNL     1       2.669   4.203  16.707  0.00  0.00    +0.000 OA
ATOM     25  O   UNL     1       4.732   2.950  17.453  0.00  0.00    +0.000 OA
BRANCH  23  26
ATOM     26  C   UNL     1       2.762   3.280  19.145  0.00  0.00    +0.000 A 
ATOM     27  C   UNL     1       1.360   3.328  19.163  0.00  0.00    +0.000 A 
ATOM     28  C   UNL     1       0.686   3.020  20.347  0.00  0.00    +0.000 A 
ATOM     29  C   UNL     1       1.410   2.652  21.479  0.00  0.00    +0.000 A 
ATOM     30  F   UNL     1       0.763   2.414  22.626  0.00  0.00    +0.000 F 
ATOM     31  C   UNL     1       2.798   2.560  21.448  0.00  0.00    +0.000 A 
ATOM     32  C   UNL     1       3.481   2.866  20.272  0.00  0.00    +0.000 A 
ENDBRANCH  23  26
ENDBRANCH  21  23
ENDBRANCH   4  21
TORSDOF 4
ENDMDL
MODEL 9
REMARK VINA RESULT:      -8.5      1.935      2.735
REMARK  Name = 
REMARK  4 active torsions:
REMARK  status: ('A' for Active; 'I' for Inactive)
REMARK    1  A    between atoms: C_5  and  C_7
REMARK    2  A    between atoms: C_10  and  N_11
REMARK    3  A    between atoms: N_11  and  S_12
REMARK    4  A    between atoms: S_12  and  C_15
REMARK                            x       y       z     vdW  Elec       q    Type
REMARK                         _______ _______ _______ _____ _____    ______ ____
ROOT
ATOM      1  C   UNL     1       1.873   7.489  19.176  0.00  0.00    +0.000 A 
ATOM      2  C   UNL     1       1.942   6.802  17.958  0.00  0.00    +0.000 A 
ATOM      3  C   UNL     1       2.094   5.407  17.953  0.00  0.00    +0.000 A 
ATOM      4  C   UNL     1       2.189   4.701  19.155  0.00  0.00    +0.000 A 
ATOM      5  C   UNL     1       2.178   5.388  20.362  0.00  0.00    +0.000 A 
ATOM      6  C   UNL     1       2.045   6.774  20.365  0.00  0.00    +0.000 A 
ENDROOT
BRANCH   1  11
ATOM      7  N   UNL     1      -0.820   9.300  23.216  0.00  0.00    +0.000 N 
ATOM      8  C   UNL     1      -0.213   9.687  22.091  0.00  0.00    +0.000 A 
ATOM      9  N   UNL     1       0.318   8.833  21.233  0.00  0.00    +0.000 NA
ATOM     10  N   UNL     1       0.889   9.599  20.261  0.00  0.00    +0.000 N 
ATOM     11  C   UNL     1       1.616   8.962  19.213  0.00  0.00    +0.000 C 
ATOM     12  O   UNL     1       2.045   9.656  18.294  0.00  0.00    +0.000 OA
ATOM     13  C   UNL     1       0.642  10.948  20.460  0.00  0.00    +0.000 A 
ATOM     14  C   UNL     1       0.978  12.094  19.729  0.00  0.00    +0.000 A 
ATOM     15  C   UNL     1       0.571  13.330  20.239  0.00  0.00    +0.000 A 
ATOM     16  C   UNL     1      -0.130  13.423  21.439  0.00  0.00    +0.000 A 
ATOM     17  C   UNL     1      -0.451  12.276  22.168  0.00  0.00    +0.000 A 
ATOM     18  C   UNL     1      -0.064  11.027  21.668  0.00  0.00    +0.000 A 
ATOM     19  H   UNL     1      -0.746   8.332  23.509  0.00  0.00    +0.000 HD
ATOM     20  H   UNL     1      -1.098   9.949  23.942  0.00  0.00    +0.000 HD
ENDBRANCH   1  11
BRANCH   4  21
ATOM     21  N   UNL     1       2.293   3.288  19.124  0.00  0.00    +0.000 N 
ATOM     22  H   UNL     1       1.526   2.712  19.470  0.00  0.00    +0.000 HD
BRANCH  21  23
ATOM     23  S   UNL     1       3.806   2.553  19.068  0.00  0.00    +0.000 S 
ATOM     24  O   UNL     1       4.258   2.393  20.431  0.00  0.00    +0.000 OA
ATOM     25  O   UNL     1       3.735   1.431  18.155  0.00  0.00    +0.000 OA
BRANCH  23  26
ATOM     26  C   UNL     1       4.825   3.805  18.312  0.00  0.00    +0.000 A 
ATOM     27  C   UNL     1       4.951   3.848  16.916  0.00  0.00    +0.000 A 
ATOM     28  C   UNL     1       5.881   4.721  16.345  0.00  0.00    +0.000 A 
ATOM     29  C   UNL     1       6.649   5.545  17.166  0.00  0.00    +0.000 A 
ATOM     30  F   UNL     1       7.579   6.337  16.618  0.00  0.00    +0.000 F 
ATOM     31  C   UNL     1       6.491   5.535  18.547  0.00  0.00    +0.000 A 
ATOM     32  C   UNL     1       5.566   4.668  19.127  0.00  0.00    +0.000 A 
ENDBRANCH  23  26
ENDBRANCH  21  23
ENDBRANCH   4  21
TORSDOF 4
ENDMDL
