MODEL 1
REMARK VINA RESULT:      -8.3      0.000      0.000
REMARK  Name = 
REMARK  7 active torsions:
REMARK  status: ('A' for Active; 'I' for Inactive)
REMARK    1  A    between atoms: C_1  and  N_2
REMARK    2  A    between atoms: C_6  and  C_7
REMARK    3  A    between atoms: C_7  and  C_8
REMARK    4  A    between atoms: C_12  and  N_13
REMARK    5  A    between atoms: C_14  and  C_16
REMARK    6  A    between atoms: C_19  and  C_20
REMARK    7  A    between atoms: C_22  and  C_23
REMARK                            x       y       z     vdW  Elec       q    Type
REMARK                         _______ _______ _______ _____ _____    ______ ____
ROOT
ATOM      1  N   UNL     1       1.553   6.587  21.004  0.00  0.00    +0.000 N 
ATOM      2  C   UNL     1       1.664   7.782  20.308  0.00  0.00    +0.000 C 
ATOM      3  O   UNL     1       2.258   7.957  19.249  0.00  0.00    +0.000 OA
ATOM      4  H   UNL     1       0.943   6.603  21.816  0.00  0.00    +0.000 HD
ENDROOT
BRANCH   1   9
ATOM      5  C   UNL     1       3.391   4.079  18.950  0.00  0.00    +0.000 A 
ATOM      6  C   UNL     1       3.286   2.942  19.765  0.00  0.00    +0.000 A 
ATOM      7  C   UNL     1       2.548   2.985  20.941  0.00  0.00    +0.000 A 
ATOM      8  C   UNL     1       1.935   4.173  21.335  0.00  0.00    +0.000 A 
ATOM      9  C   UNL     1       2.070   5.340  20.577  0.00  0.00    +0.000 A 
ATOM     10  C   UNL     1       2.763   5.274  19.358  0.00  0.00    +0.000 A 
BRANCH   5  11
ATOM     11  C   UNL     1       4.103   3.956  17.619  0.00  0.00    +0.000 C 
BRANCH  11  17
ATOM     12  C   UNL     1       6.075   4.069  15.161  0.00  0.00    +0.000 C 
ATOM     13  N   UNL     1       6.404   4.257  16.548  0.00  0.00    +0.000 N 
ATOM     14  C   UNL     1       7.640   4.565  17.031  0.00  0.00    +0.000 A 
ATOM     15  N   UNL     1       7.586   4.681  18.336  0.00  0.00    +0.000 NA
ATOM     16  N   UNL     1       6.290   4.443  18.720  0.00  0.00    +0.000 NA
ATOM     17  C   UNL     1       5.576   4.185  17.639  0.00  0.00    +0.000 A 
ENDBRANCH  11  17
ENDBRANCH   5  11
ENDBRANCH   1   9
BRANCH   2  18
ATOM     18  C   UNL     1       0.949   8.947  20.891  0.00  0.00    +0.000 A 
ATOM     19  C   UNL     1       0.877   9.057  22.274  0.00  0.00    +0.000 A 
ATOM     20  N   UNL     1       0.250  10.084  22.888  0.00  0.00    +0.000 NA
ATOM     21  C   UNL     1      -0.305  11.002  22.047  0.00  0.00    +0.000 A 
ATOM     22  C   UNL     1      -0.242  10.928  20.643  0.00  0.00    +0.000 A 
ATOM     23  N   UNL     1       0.407   9.874  20.050  0.00  0.00    +0.000 NA
BRANCH  21  24
ATOM     24  C   UNL     1      -0.993  12.110  22.748  0.00  0.00    +0.000 C 
ATOM     25  N   UNL     1      -2.175  11.990  23.266  0.00  0.00    +0.000 NA
ATOM     26  H   UNL     1      -2.502  11.024  23.092  0.00  0.00    +0.000 HD
ENDBRANCH  21  24
BRANCH  22  27
ATOM     27  C   UNL     1      -0.859  11.991  19.756  0.00  0.00    +0.000 C 
ATOM     28  C   UNL     1      -2.290  11.815  19.297  0.00  0.00    +0.000 C 
ATOM     29  C   UNL     1      -1.171  11.733  18.302  0.00  0.00    +0.000 C 
ENDBRANCH  22  27
ENDBRANCH   2  18
TORSDOF 6
ENDMDL
MODEL 2
REMARK VINA RESULT:      -8.3      1.767      2.376
REMARK  Name = 
REMARK  7 active torsions:
REMARK  status: ('A' for Active; 'I' for Inactive)
REMARK    1  A    between atoms: C_1  and  N_2
REMARK    2  A    between atoms: C_6  and  C_7
REMARK    3  A    between atoms: C_7  and  C_8
REMARK    4  A    between atoms: C_12  and  N_13
REMARK    5  A    between atoms: C_14  and  C_16
REMARK    6  A    between atoms: C_19  and  C_20
REMARK    7  A    between atoms: C_22  and  C_23
REMARK                            x       y       z     vdW  Elec       q    Type
REMARK                         _______ _______ _______ _____ _____    ______ ____
ROOT
ATOM      1  N   UNL     1       2.121   6.793  19.207  0.00  0.00    +0.000 N 
ATOM      2  C   UNL     1       1.927   8.106  18.804  0.00  0.00    +0.000 C 
ATOM      3  O   UNL     1       2.283   8.602  17.740  0.00  0.00    +0.000 OA
ATOM      4  H   UNL     1       1.677   6.528  20.082  0.00  0.00    +0.000 HD
ENDROOT
BRANCH   1   9
ATOM      5  C   UNL     1       4.767   4.790  17.511  0.00  0.00    +0.000 A 
ATOM      6  C   UNL     1       4.016   3.697  17.051  0.00  0.00    +0.000 A 
ATOM      7  C   UNL     1       2.640   3.664  17.230  0.00  0.00    +0.000 A 
ATOM      8  C   UNL     1       2.000   4.704  17.902  0.00  0.00    +0.000 A 
ATOM      9  C   UNL     1       2.725   5.777  18.427  0.00  0.00    +0.000 A 
ATOM     10  C   UNL     1       4.106   5.838  18.186  0.00  0.00    +0.000 A 
BRANCH   5  11
ATOM     11  C   UNL     1       6.246   4.843  17.189  0.00  0.00    +0.000 C 
BRANCH  11  17
ATOM     12  C   UNL     1       7.977   5.585  19.718  0.00  0.00    +0.000 C 
ATOM     13  N   UNL     1       7.705   6.418  18.577  0.00  0.00    +0.000 N 
ATOM     14  C   UNL     1       8.197   7.672  18.380  0.00  0.00    +0.000 A 
ATOM     15  N   UNL     1       7.766   8.138  17.233  0.00  0.00    +0.000 NA
ATOM     16  N   UNL     1       6.972   7.173  16.665  0.00  0.00    +0.000 NA
ATOM     17  C   UNL     1       6.934   6.133  17.479  0.00  0.00    +0.000 A 
ENDBRANCH  11  17
ENDBRANCH   5  11
ENDBRANCH   1   9
BRANCH   2  18
ATOM     18  C   UNL     1       1.172   8.974  19.745  0.00  0.00    +0.000 A 
ATOM     19  C   UNL     1       1.239   8.695  21.105  0.00  0.00    +0.000 A 
ATOM     20  N   UNL     1       0.588   9.433  22.029  0.00  0.00    +0.000 NA
ATOM     21  C   UNL     1      -0.139  10.471  21.526  0.00  0.00    +0.000 A 
ATOM     22  C   UNL     1      -0.223  10.788  20.157  0.00  0.00    +0.000 A 
ATOM     23  N   UNL     1       0.456  10.021  19.243  0.00  0.00    +0.000 NA
BRANCH  21  24
ATOM     24  C   UNL     1      -0.850  11.255  22.561  0.00  0.00    +0.000 C 
ATOM     25  N   UNL     1      -0.481  12.444  22.922  0.00  0.00    +0.000 NA
ATOM     26  H   UNL     1       0.355  12.699  22.368  0.00  0.00    +0.000 HD
ENDBRANCH  21  24
BRANCH  22  27
ATOM     27  C   UNL     1      -1.029  11.968  19.655  0.00  0.00    +0.000 C 
ATOM     28  C   UNL     1      -2.375  11.709  19.012  0.00  0.00    +0.000 C 
ATOM     29  C   UNL     1      -1.237  12.224  18.182  0.00  0.00    +0.000 C 
ENDBRANCH  22  27
ENDBRANCH   2  18
TORSDOF 6
ENDMDL
MODEL 3
REMARK VINA RESULT:      -8.1      1.835      2.388
REMARK  Name = 
REMARK  7 active torsions:
REMARK  status: ('A' for Active; 'I' for Inactive)
REMARK    1  A    between atoms: C_1  and  N_2
REMARK    2  A    between atoms: C_6  and  C_7
REMARK    3  A    between atoms: C_7  and  C_8
REMARK    4  A    between atoms: C_12  and  N_13
REMARK    5  A    between atoms: C_14  and  C_16
REMARK    6  A    between atoms: C_19  and  C_20
REMARK    7  A    between atoms: C_22  and  C_23
REMARK                            x       y       z     vdW  Elec       q    Type
REMARK                         _______ _______ _______ _____ _____    ______ ____
ROOT
ATOM      1  N   UNL     1       1.995   7.033  18.808  0.00  0.00    +0.000 N 
ATOM      2  C   UNL     1       1.728   7.206  20.159  0.00  0.00    +0.000 C 
ATOM      3  O   UNL     1       1.923   6.387  21.051  0.00  0.00    +0.000 OA
ATOM      4  H   UNL     1       1.860   7.852  18.223  0.00  0.00    +0.000 HD
ENDROOT
BRANCH   1   9
ATOM      5  C   UNL     1       4.628   4.742  17.502  0.00  0.00    +0.000 A 
ATOM      6  C   UNL     1       3.875   3.581  17.270  0.00  0.00    +0.000 A 
ATOM      7  C   UNL     1       2.501   3.582  17.468  0.00  0.00    +0.000 A 
ATOM      8  C   UNL     1       1.865   4.731  17.933  0.00  0.00    +0.000 A 
ATOM      9  C   UNL     1       2.593   5.887  18.232  0.00  0.00    +0.000 A 
ATOM     10  C   UNL     1       3.972   5.900  17.969  0.00  0.00    +0.000 A 
BRANCH   5  11
ATOM     11  C   UNL     1       6.103   4.733  17.159  0.00  0.00    +0.000 C 
BRANCH  11  17
ATOM     12  C   UNL     1       7.735   5.523  19.739  0.00  0.00    +0.000 C 
ATOM     13  N   UNL     1       7.570   6.304  18.542  0.00  0.00    +0.000 N 
ATOM     14  C   UNL     1       8.140   7.518  18.308  0.00  0.00    +0.000 A 
ATOM     15  N   UNL     1       7.796   7.942  17.115  0.00  0.00    +0.000 NA
ATOM     16  N   UNL     1       6.982   6.990  16.555  0.00  0.00    +0.000 NA
ATOM     17  C   UNL     1       6.844   6.000  17.419  0.00  0.00    +0.000 A 
ENDBRANCH  11  17
ENDBRANCH   5  11
ENDBRANCH   1   9
BRANCH   2  18
ATOM     18  C   UNL     1       1.196   8.536  20.556  0.00  0.00    +0.000 A 
ATOM     19  C   UNL     1       1.355   8.948  21.873  0.00  0.00    +0.000 A 
ATOM     20  N   UNL     1       0.905  10.140  22.319  0.00  0.00    +0.000 NA
ATOM     21  C   UNL     1       0.285  10.907  21.378  0.00  0.00    +0.000 A 
ATOM     22  C   UNL     1       0.116  10.526  20.033  0.00  0.00    +0.000 A 
ATOM     23  N   UNL     1       0.589   9.310  19.611  0.00  0.00    +0.000 NA
BRANCH  21  24
ATOM     24  C   UNL     1      -0.205  12.204  21.898  0.00  0.00    +0.000 C 
ATOM     25  N   UNL     1       0.469  13.306  21.795  0.00  0.00    +0.000 NA
ATOM     26  H   UNL     1       1.356  13.091  21.307  0.00  0.00    +0.000 HD
ENDBRANCH  21  24
BRANCH  22  27
ATOM     27  C   UNL     1      -0.563  11.430  19.024  0.00  0.00    +0.000 C 
ATOM     28  C   UNL     1      -2.074  11.510  19.019  0.00  0.00    +0.000 C 
ATOM     29  C   UNL     1      -1.356  10.877  17.865  0.00  0.00    +0.000 C 
ENDBRANCH  22  27
ENDBRANCH   2  18
TORSDOF 6
ENDMDL
MODEL 4
REMARK VINA RESULT:      -8.1      2.521      3.745
REMARK  Name = 
REMARK  7 active torsions:
REMARK  status: ('A' for Active; 'I' for Inactive)
REMARK    1  A    between atoms: C_1  and  N_2
REMARK    2  A    between atoms: C_6  and  C_7
REMARK    3  A    between atoms: C_7  and  C_8
REMARK    4  A    between atoms: C_12  and  N_13
REMARK    5  A    between atoms: C_14  and  C_16
REMARK    6  A    between atoms: C_19  and  C_20
REMARK    7  A    between atoms: C_22  and  C_23
REMARK                            x       y       z     vdW  Elec       q    Type
REMARK                         _______ _______ _______ _____ _____    ______ ____
ROOT
ATOM      1  N   UNL     1       1.838   8.298  18.258  0.00  0.00    +0.000 N 
ATOM      2  C   UNL     1       1.474   8.715  19.530  0.00  0.00    +0.000 C 
ATOM      3  O   UNL     1       1.761   8.165  20.588  0.00  0.00    +0.000 OA
ATOM      4  H   UNL     1       1.592   8.928  17.499  0.00  0.00    +0.000 HD
ENDROOT
BRANCH   1   9
ATOM      5  C   UNL     1       2.885   4.753  17.789  0.00  0.00    +0.000 A 
ATOM      6  C   UNL     1       4.160   4.926  17.227  0.00  0.00    +0.000 A 
ATOM      7  C   UNL     1       4.696   6.199  17.080  0.00  0.00    +0.000 A 
ATOM      8  C   UNL     1       3.954   7.316  17.459  0.00  0.00    +0.000 A 
ATOM      9  C   UNL     1       2.658   7.182  17.966  0.00  0.00    +0.000 A 
ATOM     10  C   UNL     1       2.146   5.892  18.172  0.00  0.00    +0.000 A 
BRANCH   5  11
ATOM     11  C   UNL     1       2.388   3.345  18.042  0.00  0.00    +0.000 C 
BRANCH  11  17
ATOM     12  C   UNL     1       4.492   2.302  20.147  0.00  0.00    +0.000 C 
ATOM     13  N   UNL     1       3.093   2.555  20.368  0.00  0.00    +0.000 N 
ATOM     14  C   UNL     1       2.447   2.424  21.560  0.00  0.00    +0.000 A 
ATOM     15  N   UNL     1       1.185   2.749  21.413  0.00  0.00    +0.000 NA
ATOM     16  N   UNL     1       0.997   3.099  20.100  0.00  0.00    +0.000 NA
ATOM     17  C   UNL     1       2.150   2.980  19.467  0.00  0.00    +0.000 A 
ENDBRANCH  11  17
ENDBRANCH   5  11
ENDBRANCH   1   9
BRANCH   2  18
ATOM     18  C   UNL     1       0.696   9.979  19.607  0.00  0.00    +0.000 A 
ATOM     19  C   UNL     1       0.933  10.841  20.671  0.00  0.00    +0.000 A 
ATOM     20  N   UNL     1       0.274  12.011  20.817  0.00  0.00    +0.000 NA
ATOM     21  C   UNL     1      -0.639  12.280  19.842  0.00  0.00    +0.000 A 
ATOM     22  C   UNL     1      -0.898  11.436  18.745  0.00  0.00    +0.000 A 
ATOM     23  N   UNL     1      -0.208  10.257  18.623  0.00  0.00    +0.000 NA
BRANCH  21  24
ATOM     24  C   UNL     1      -1.352  13.563  20.034  0.00  0.00    +0.000 C 
ATOM     25  N   UNL     1      -2.428  13.673  20.749  0.00  0.00    +0.000 NA
ATOM     26  H   UNL     1      -2.657  12.735  21.123  0.00  0.00    +0.000 HD
ENDBRANCH  21  24
BRANCH  22  27
ATOM     27  C   UNL     1      -1.910  11.797  17.677  0.00  0.00    +0.000 C 
ATOM     28  C   UNL     1      -3.331  11.299  17.823  0.00  0.00    +0.000 C 
ATOM     29  C   UNL     1      -2.463  10.768  16.722  0.00  0.00    +0.000 C 
ENDBRANCH  22  27
ENDBRANCH   2  18
TORSDOF 6
ENDMDL
MODEL 5
REMARK VINA RESULT:      -8.0      2.001      8.949
REMARK  Name = 
REMARK  7 active torsions:
REMARK  status: ('A' for Active; 'I' for Inactive)
REMARK    1  A    between atoms: C_1  and  N_2
REMARK    2  A    between atoms: C_6  and  C_7
REMARK    3  A    between atoms: C_7  and  C_8
REMARK    4  A    between atoms: C_12  and  N_13
REMARK    5  A    between atoms: C_14  and  C_16
REMARK    6  A    between atoms: C_19  and  C_20
REMARK    7  A    between atoms: C_22  and  C_23
REMARK                            x       y       z     vdW  Elec       q    Type
REMARK                         _______ _______ _______ _____ _____    ______ ____
ROOT
ATOM      1  N   UNL     1       1.066   7.636  20.898  0.00  0.00    +0.000 N 
ATOM      2  C   UNL     1       1.909   7.472  19.809  0.00  0.00    +0.000 C 
ATOM      3  O   UNL     1       2.234   8.337  19.002  0.00  0.00    +0.000 OA
ATOM      4  H   UNL     1       0.982   6.834  21.516  0.00  0.00    +0.000 HD
ENDROOT
BRANCH   1   9
ATOM      5  C   UNL     1      -0.628  10.947  20.657  0.00  0.00    +0.000 A 
ATOM      6  C   UNL     1      -0.886  11.210  22.011  0.00  0.00    +0.000 A 
ATOM      7  C   UNL     1      -0.434  10.341  22.996  0.00  0.00    +0.000 A 
ATOM      8  C   UNL     1       0.250   9.180  22.639  0.00  0.00    +0.000 A 
ATOM      9  C   UNL     1       0.471   8.857  21.297  0.00  0.00    +0.000 A 
ATOM     10  C   UNL     1       0.070   9.770  20.310  0.00  0.00    +0.000 A 
BRANCH   5  11
ATOM     11  C   UNL     1      -1.032  11.979  19.626  0.00  0.00    +0.000 C 
BRANCH  11  17
ATOM     12  C   UNL     1      -2.056  10.371  17.115  0.00  0.00    +0.000 C 
ATOM     13  N   UNL     1      -2.847  11.149  18.030  0.00  0.00    +0.000 N 
ATOM     14  C   UNL     1      -4.202  11.283  17.984  0.00  0.00    +0.000 A 
ATOM     15  N   UNL     1      -4.601  12.045  18.973  0.00  0.00    +0.000 NA
ATOM     16  N   UNL     1      -3.488  12.422  19.682  0.00  0.00    +0.000 NA
ATOM     17  C   UNL     1      -2.427  11.881  19.111  0.00  0.00    +0.000 A 
ENDBRANCH  11  17
ENDBRANCH   5  11
ENDBRANCH   1   9
BRANCH   2  18
ATOM     18  C   UNL     1       2.507   6.122  19.641  0.00  0.00    +0.000 A 
ATOM     19  C   UNL     1       2.282   5.170  20.627  0.00  0.00    +0.000 A 
ATOM     20  N   UNL     1       2.784   3.918  20.554  0.00  0.00    +0.000 NA
ATOM     21  C   UNL     1       3.526   3.662  19.440  0.00  0.00    +0.000 A 
ATOM     22  C   UNL     1       3.765   4.599  18.417  0.00  0.00    +0.000 A 
ATOM     23  N   UNL     1       3.237   5.860  18.519  0.00  0.00    +0.000 NA
BRANCH  21  24
ATOM     24  C   UNL     1       4.071   2.286  19.393  0.00  0.00    +0.000 C 
ATOM     25  N   UNL     1       5.025   1.878  20.170  0.00  0.00    +0.000 NA
ATOM     26  H   UNL     1       5.297   2.668  20.780  0.00  0.00    +0.000 HD
ENDBRANCH  21  24
BRANCH  22  27
ATOM     27  C   UNL     1       4.580   4.251  17.187  0.00  0.00    +0.000 C 
ATOM     28  C   UNL     1       6.046   4.629  17.155  0.00  0.00    +0.000 C 
ATOM     29  C   UNL     1       5.078   5.311  16.235  0.00  0.00    +0.000 C 
ENDBRANCH  22  27
ENDBRANCH   2  18
TORSDOF 6
ENDMDL
MODEL 6
REMARK VINA RESULT:      -8.0      2.678      9.227
REMARK  Name = 
REMARK  7 active torsions:
REMARK  status: ('A' for Active; 'I' for Inactive)
REMARK    1  A    between atoms: C_1  and  N_2
REMARK    2  A    between atoms: C_6  and  C_7
REMARK    3  A    between atoms: C_7  and  C_8
REMARK    4  A    between atoms: C_12  and  N_13
REMARK    5  A    between atoms: C_14  and  C_16
REMARK    6  A    between atoms: C_19  and  C_20
REMARK    7  A    between atoms: C_22  and  C_23
REMARK                            x       y       z     vdW  Elec       q    Type
REMARK                         _______ _______ _______ _____ _____    ______ ____
ROOT
ATOM      1  N   UNL     1       1.989   8.597  18.494  0.00  0.00    +0.000 N 
ATOM      2  C   UNL     1       2.046   7.762  19.600  0.00  0.00    +0.000 C 
ATOM      3  O   UNL     1       1.679   8.034  20.739  0.00  0.00    +0.000 OA
ATOM      4  H   UNL     1       2.249   8.174  17.607  0.00  0.00    +0.000 HD
ENDROOT
BRANCH   1   9
ATOM      5  C   UNL     1      -0.501  11.351  18.820  0.00  0.00    +0.000 A 
ATOM      6  C   UNL     1       0.325  12.473  18.659  0.00  0.00    +0.000 A 
ATOM      7  C   UNL     1       1.673  12.318  18.366  0.00  0.00    +0.000 A 
ATOM      8  C   UNL     1       2.222  11.041  18.266  0.00  0.00    +0.000 A 
ATOM      9  C   UNL     1       1.441   9.902  18.481  0.00  0.00    +0.000 A 
ATOM     10  C   UNL     1       0.066  10.063  18.712  0.00  0.00    +0.000 A 
BRANCH   5  11
ATOM     11  C   UNL     1      -1.987  11.563  19.018  0.00  0.00    +0.000 C 
BRANCH  11  17
ATOM     12  C   UNL     1      -5.117  11.881  18.802  0.00  0.00    +0.000 C 
ATOM     13  N   UNL     1      -4.202  11.548  17.743  0.00  0.00    +0.000 N 
ATOM     14  C   UNL     1      -4.542  11.355  16.439  0.00  0.00    +0.000 A 
ATOM     15  N   UNL     1      -3.467  11.083  15.740  0.00  0.00    +0.000 NA
ATOM     16  N   UNL     1      -2.399  11.095  16.601  0.00  0.00    +0.000 NA
ATOM     17  C   UNL     1      -2.843  11.375  17.813  0.00  0.00    +0.000 A 
ENDBRANCH  11  17
ENDBRANCH   5  11
ENDBRANCH   1   9
BRANCH   2  18
ATOM     18  C   UNL     1       2.565   6.390  19.359  0.00  0.00    +0.000 A 
ATOM     19  C   UNL     1       2.285   5.401  20.294  0.00  0.00    +0.000 A 
ATOM     20  N   UNL     1       2.714   4.128  20.152  0.00  0.00    +0.000 NA
ATOM     21  C   UNL     1       3.441   3.890  19.025  0.00  0.00    +0.000 A 
ATOM     22  C   UNL     1       3.735   4.865  18.052  0.00  0.00    +0.000 A 
ATOM     23  N   UNL     1       3.280   6.148  18.223  0.00  0.00    +0.000 NA
BRANCH  21  24
ATOM     24  C   UNL     1       3.906   2.490  18.902  0.00  0.00    +0.000 C 
ATOM     25  N   UNL     1       4.816   1.979  19.672  0.00  0.00    +0.000 NA
ATOM     26  H   UNL     1       5.119   2.712  20.336  0.00  0.00    +0.000 HD
ENDBRANCH  21  24
BRANCH  22  27
ATOM     27  C   UNL     1       4.530   4.538  16.805  0.00  0.00    +0.000 C 
ATOM     28  C   UNL     1       6.031   4.728  16.827  0.00  0.00    +0.000 C 
ATOM     29  C   UNL     1       5.180   5.614  15.968  0.00  0.00    +0.000 C 
ENDBRANCH  22  27
ENDBRANCH   2  18
TORSDOF 6
ENDMDL
MODEL 7
REMARK VINA RESULT:      -8.0      0.883      1.341
REMARK  Name = 
REMARK  7 active torsions:
REMARK  status: ('A' for Active; 'I' for Inactive)
REMARK    1  A    between atoms: C_1  and  N_2
REMARK    2  A    between atoms: C_6  and  C_7
REMARK    3  A    between atoms: C_7  and  C_8
REMARK    4  A    between atoms: C_12  and  N_13
REMARK    5  A    between atoms: C_14  and  C_16
REMARK    6  A    between atoms: C_19  and  C_20
REMARK    7  A    between atoms: C_22  and  C_23
REMARK                            x       y       z     vdW  Elec       q    Type
REMARK                         _______ _______ _______ _____ _____    ______ ____
ROOT
ATOM      1  N   UNL     1       1.515   6.719  20.926  0.00  0.00    +0.000 N 
ATOM      2  C   UNL     1       1.582   7.917  20.231  0.00  0.00    +0.000 C 
ATOM      3  O   UNL     1       2.129   8.103  19.148  0.00  0.00    +0.000 OA
ATOM      4  H   UNL     1       0.940   6.725  21.764  0.00  0.00    +0.000 HD
ENDROOT
BRANCH   1   9
ATOM      5  C   UNL     1       3.922   4.205  19.594  0.00  0.00    +0.000 A 
ATOM      6  C   UNL     1       3.177   3.025  19.736  0.00  0.00    +0.000 A 
ATOM      7  C   UNL     1       1.866   3.071  20.193  0.00  0.00    +0.000 A 
ATOM      8  C   UNL     1       1.295   4.292  20.546  0.00  0.00    +0.000 A 
ATOM      9  C   UNL     1       2.029   5.480  20.473  0.00  0.00    +0.000 A 
ATOM     10  C   UNL     1       3.330   5.435  19.951  0.00  0.00    +0.000 A 
BRANCH   5  11
ATOM     11  C   UNL     1       5.304   4.122  18.980  0.00  0.00    +0.000 C 
BRANCH  11  17
ATOM     12  C   UNL     1       7.225   6.263  17.687  0.00  0.00    +0.000 C 
ATOM     13  N   UNL     1       6.275   5.425  17.007  0.00  0.00    +0.000 N 
ATOM     14  C   UNL     1       6.078   5.388  15.659  0.00  0.00    +0.000 A 
ATOM     15  N   UNL     1       5.153   4.504  15.375  0.00  0.00    +0.000 NA
ATOM     16  N   UNL     1       4.730   3.950  16.557  0.00  0.00    +0.000 NA
ATOM     17  C   UNL     1       5.408   4.508  17.544  0.00  0.00    +0.000 A 
ENDBRANCH  11  17
ENDBRANCH   5  11
ENDBRANCH   1   9
BRANCH   2  18
ATOM     18  C   UNL     1       0.879   9.072  20.848  0.00  0.00    +0.000 A 
ATOM     19  C   UNL     1       0.822   9.150  22.234  0.00  0.00    +0.000 A 
ATOM     20  N   UNL     1       0.206  10.166  22.878  0.00  0.00    +0.000 NA
ATOM     21  C   UNL     1      -0.353  11.105  22.065  0.00  0.00    +0.000 A 
ATOM     22  C   UNL     1      -0.306  11.062  20.658  0.00  0.00    +0.000 A 
ATOM     23  N   UNL     1       0.331  10.020  20.034  0.00  0.00    +0.000 NA
BRANCH  21  24
ATOM     24  C   UNL     1      -1.029  12.199  22.798  0.00  0.00    +0.000 C 
ATOM     25  N   UNL     1      -2.231  12.094  23.272  0.00  0.00    +0.000 NA
ATOM     26  H   UNL     1      -2.583  11.149  23.039  0.00  0.00    +0.000 HD
ENDBRANCH  21  24
BRANCH  22  27
ATOM     27  C   UNL     1      -0.928  12.148  19.803  0.00  0.00    +0.000 C 
ATOM     28  C   UNL     1      -2.348  11.964  19.312  0.00  0.00    +0.000 C 
ATOM     29  C   UNL     1      -1.211  11.942  18.334  0.00  0.00    +0.000 C 
ENDBRANCH  22  27
ENDBRANCH   2  18
TORSDOF 6
ENDMDL
MODEL 8
REMARK VINA RESULT:      -8.0      2.539      9.090
REMARK  Name = 
REMARK  7 active torsions:
REMARK  status: ('A' for Active; 'I' for Inactive)
REMARK    1  A    between atoms: C_1  and  N_2
REMARK    2  A    between atoms: C_6  and  C_7
REMARK    3  A    between atoms: C_7  and  C_8
REMARK    4  A    between atoms: C_12  and  N_13
REMARK    5  A    between atoms: C_14  and  C_16
REMARK    6  A    between atoms: C_19  and  C_20
REMARK    7  A    between atoms: C_22  and  C_23
REMARK                            x       y       z     vdW  Elec       q    Type
REMARK                         _______ _______ _______ _____ _____    ______ ____
ROOT
ATOM      1  N   UNL     1       1.267   9.077  19.553  0.00  0.00    +0.000 N 
ATOM      2  C   UNL     1       1.932   8.721  18.388  0.00  0.00    +0.000 C 
ATOM      3  O   UNL     1       1.998   9.381  17.355  0.00  0.00    +0.000 OA
ATOM      4  H   UNL     1       1.396   8.453  20.343  0.00  0.00    +0.000 HD
ENDROOT
BRANCH   1   9
ATOM      5  C   UNL     1      -1.482  11.593  19.600  0.00  0.00    +0.000 A 
ATOM      6  C   UNL     1      -0.878  12.630  20.327  0.00  0.00    +0.000 A 
ATOM      7  C   UNL     1       0.448  12.529  20.726  0.00  0.00    +0.000 A 
ATOM      8  C   UNL     1       1.178  11.378  20.436  0.00  0.00    +0.000 A 
ATOM      9  C   UNL     1       0.589  10.301  19.767  0.00  0.00    +0.000 A 
ATOM     10  C   UNL     1      -0.731  10.434  19.309  0.00  0.00    +0.000 A 
BRANCH   5  11
ATOM     11  C   UNL     1      -2.891  11.793  19.081  0.00  0.00    +0.000 C 
BRANCH  11  17
ATOM     12  C   UNL     1      -5.656  11.269  17.660  0.00  0.00    +0.000 C 
ATOM     13  N   UNL     1      -4.348  11.206  17.065  0.00  0.00    +0.000 N 
ATOM     14  C   UNL     1      -4.090  10.947  15.754  0.00  0.00    +0.000 A 
ATOM     15  N   UNL     1      -2.796  10.981  15.546  0.00  0.00    +0.000 NA
ATOM     16  N   UNL     1      -2.190  11.265  16.744  0.00  0.00    +0.000 NA
ATOM     17  C   UNL     1      -3.129  11.400  17.664  0.00  0.00    +0.000 A 
ENDBRANCH  11  17
ENDBRANCH   5  11
ENDBRANCH   1   9
BRANCH   2  18
ATOM     18  C   UNL     1       2.669   7.432  18.423  0.00  0.00    +0.000 A 
ATOM     19  C   UNL     1       3.797   7.290  17.625  0.00  0.00    +0.000 A 
ATOM     20  N   UNL     1       4.528   6.155  17.597  0.00  0.00    +0.000 NA
ATOM     21  C   UNL     1       4.074   5.161  18.412  0.00  0.00    +0.000 A 
ATOM     22  C   UNL     1       2.942   5.273  19.241  0.00  0.00    +0.000 A 
ATOM     23  N   UNL     1       2.224   6.442  19.249  0.00  0.00    +0.000 NA
BRANCH  21  24
ATOM     24  C   UNL     1       4.889   3.926  18.353  0.00  0.00    +0.000 C 
ATOM     25  N   UNL     1       6.183   3.938  18.269  0.00  0.00    +0.000 NA
ATOM     26  H   UNL     1       6.491   4.926  18.253  0.00  0.00    +0.000 HD
ENDBRANCH  21  24
BRANCH  22  27
ATOM     27  C   UNL     1       2.495   4.141  20.144  0.00  0.00    +0.000 C 
ATOM     28  C   UNL     1       1.557   3.092  19.587  0.00  0.00    +0.000 C 
ATOM     29  C   UNL     1       1.077   4.036  20.648  0.00  0.00    +0.000 C 
ENDBRANCH  22  27
ENDBRANCH   2  18
TORSDOF 6
ENDMDL
MODEL 9
REMARK VINA RESULT:      -8.0      2.520      4.077
REMARK  Name = 
REMARK  7 active torsions:
REMARK  status: ('A' for Active; 'I' for Inactive)
REMARK    1  A    between atoms: C_1  and  N_2
REMARK    2  A    between atoms: C_6  and  C_7
REMARK    3  A    between atoms: C_7  and  C_8
REMARK    4  A    between atoms: C_12  and  N_13
REMARK    5  A    between atoms: C_14  and  C_16
REMARK    6  A    between atoms: C_19  and  C_20
REMARK    7  A    between atoms: C_22  and  C_23
REMARK                            x       y       z     vdW  Elec       q    Type
REMARK                         _______ _______ _______ _____ _____    ______ ____
ROOT
ATOM      1  N   UNL     1       2.118   8.373  18.314  0.00  0.00    +0.000 N 
ATOM      2  C   UNL     1       1.637   8.688  19.577  0.00  0.00    +0.000 C 
ATOM      3  O   UNL     1       1.691   7.978  20.576  0.00  0.00    +0.000 OA
ATOM      4  H   UNL     1       2.073   9.119  17.626  0.00  0.00    +0.000 HD
ENDROOT
BRANCH   1   9
ATOM      5  C   UNL     1       2.792   4.745  17.789  0.00  0.00    +0.000 A 
ATOM      6  C   UNL     1       4.039   4.799  17.148  0.00  0.00    +0.000 A 
ATOM      7  C   UNL     1       4.684   6.015  16.965  0.00  0.00    +0.000 A 
ATOM      8  C   UNL     1       4.076   7.196  17.387  0.00  0.00    +0.000 A 
ATOM      9  C   UNL     1       2.808   7.185  17.974  0.00  0.00    +0.000 A 
ATOM     10  C   UNL     1       2.190   5.948  18.216  0.00  0.00    +0.000 A 
BRANCH   5  11
ATOM     11  C   UNL     1       2.179   3.391  18.077  0.00  0.00    +0.000 C 
BRANCH  11  17
ATOM     12  C   UNL     1       4.410   2.313  20.028  0.00  0.00    +0.000 C 
ATOM     13  N   UNL     1       3.034   2.586  20.347  0.00  0.00    +0.000 N 
ATOM     14  C   UNL     1       2.471   2.463  21.581  0.00  0.00    +0.000 A 
ATOM     15  N   UNL     1       1.208   2.808  21.524  0.00  0.00    +0.000 NA
ATOM     16  N   UNL     1       0.933   3.162  20.227  0.00  0.00    +0.000 NA
ATOM     17  C   UNL     1       2.037   3.027  19.515  0.00  0.00    +0.000 A 
ENDBRANCH  11  17
ENDBRANCH   5  11
ENDBRANCH   1   9
BRANCH   2  18
ATOM     18  C   UNL     1       1.040  10.040  19.731  0.00  0.00    +0.000 A 
ATOM     19  C   UNL     1       1.057  10.901  18.641  0.00  0.00    +0.000 A 
ATOM     20  N   UNL     1       0.534  12.146  18.692  0.00  0.00    +0.000 NA
ATOM     21  C   UNL     1      -0.010  12.490  19.893  0.00  0.00    +0.000 A 
ATOM     22  C   UNL     1      -0.053  11.641  21.015  0.00  0.00    +0.000 A 
ATOM     23  N   UNL     1       0.482  10.380  20.928  0.00  0.00    +0.000 NA
BRANCH  21  24
ATOM     24  C   UNL     1      -0.565  13.862  19.921  0.00  0.00    +0.000 C 
ATOM     25  N   UNL     1      -0.737  14.576  18.853  0.00  0.00    +0.000 NA
ATOM     26  H   UNL     1      -0.422  14.015  18.042  0.00  0.00    +0.000 HD
ENDBRANCH  21  24
BRANCH  22  27
ATOM     27  C   UNL     1      -0.692  12.069  22.320  0.00  0.00    +0.000 C 
ATOM     28  C   UNL     1      -1.349  11.018  23.189  0.00  0.00    +0.000 C 
ATOM     29  C   UNL     1      -2.188  12.062  22.516  0.00  0.00    +0.000 C 
ENDBRANCH  22  27
ENDBRANCH   2  18
TORSDOF 6
ENDMDL
