MODEL 1
REMARK VINA RESULT:      -8.8      0.000      0.000
REMARK  Name = 
REMARK  3 active torsions:
REMARK  status: ('A' for Active; 'I' for Inactive)
REMARK    1  A    between atoms: C_1  and  N_2
REMARK    2  A    between atoms: C_9  and  C_10
REMARK    3  A    between atoms: C_15  and  C_16
REMARK                            x       y       z     vdW  Elec       q    Type
REMARK                         _______ _______ _______ _____ _____    ______ ____
ROOT
ATOM      1  C   UNL     1       3.102   6.141  18.998  0.00  0.00    +0.000 C 
ATOM      2  O   UNL     1       3.322   5.170  19.719  0.00  0.00    +0.000 OA
ATOM      3  N   UNL     1       3.608   6.380  17.734  0.00  0.00    +0.000 N 
ATOM      4  C   UNL     1       4.449   5.481  17.093  0.00  0.00    +0.000 A 
ATOM      5  C   UNL     1       5.019   5.656  15.805  0.00  0.00    +0.000 A 
ATOM      6  C   UNL     1       5.761   4.513  15.569  0.00  0.00    +0.000 A 
ATOM      7  N   UNL     1       5.581   3.739  16.678  0.00  0.00    +0.000 N 
ATOM      8  N   UNL     1       4.826   4.314  17.611  0.00  0.00    +0.000 NA
ATOM      9  H   UNL     1       3.429   7.248  17.251  0.00  0.00    +0.000 HD
ATOM     10  H   UNL     1       5.936   2.807  16.872  0.00  0.00    +0.000 HD
ENDROOT
BRANCH   1  19
ATOM     11  C   UNL     1      -0.468  10.469  22.489  0.00  0.00    +0.000 C 
ATOM     12  N   UNL     1      -0.180  10.359  21.067  0.00  0.00    +0.000 N 
ATOM     13  C   UNL     1      -0.711  11.323  20.208  0.00  0.00    +0.000 C 
ATOM     14  O   UNL     1      -1.484  12.207  20.580  0.00  0.00    +0.000 OA
ATOM     15  C   UNL     1      -0.384  11.182  18.738  0.00  0.00    +0.000 C 
ATOM     16  C   UNL     1       1.016  10.648  18.527  0.00  0.00    +0.000 C 
ATOM     17  C   UNL     1       1.192   9.381  19.313  0.00  0.00    +0.000 A 
ATOM     18  C   UNL     1       1.986   8.338  18.821  0.00  0.00    +0.000 A 
ATOM     19  C   UNL     1       2.214   7.182  19.582  0.00  0.00    +0.000 A 
ATOM     20  C   UNL     1       1.684   7.096  20.871  0.00  0.00    +0.000 A 
ATOM     21  C   UNL     1       0.910   8.153  21.373  0.00  0.00    +0.000 A 
ATOM     22  C   UNL     1       0.638   9.292  20.595  0.00  0.00    +0.000 A 
ENDBRANCH   1  19
BRANCH   6  23
ATOM     23  C   UNL     1       6.592   4.082  14.412  0.00  0.00    +0.000 C 
ATOM     24  C   UNL     1       7.408   5.225  13.805  0.00  0.00    +0.000 C 
ATOM     25  C   UNL     1       7.679   4.805  12.363  0.00  0.00    +0.000 C 
ATOM     26  C   UNL     1       6.704   3.674  12.042  0.00  0.00    +0.000 C 
ATOM     27  C   UNL     1       5.761   3.580  13.232  0.00  0.00    +0.000 C 
ENDBRANCH   6  23
TORSDOF 2
ENDMDL
MODEL 2
REMARK VINA RESULT:      -8.8      0.763      1.890
REMARK  Name = 
REMARK  3 active torsions:
REMARK  status: ('A' for Active; 'I' for Inactive)
REMARK    1  A    between atoms: C_1  and  N_2
REMARK    2  A    between atoms: C_9  and  C_10
REMARK    3  A    between atoms: C_15  and  C_16
REMARK                            x       y       z     vdW  Elec       q    Type
REMARK                         _______ _______ _______ _____ _____    ______ ____
ROOT
ATOM      1  C   UNL     1       2.876   6.675  18.863  0.00  0.00    +0.000 C 
ATOM      2  O   UNL     1       2.927   5.695  19.604  0.00  0.00    +0.000 OA
ATOM      3  N   UNL     1       3.506   6.838  17.642  0.00  0.00    +0.000 N 
ATOM      4  C   UNL     1       4.289   5.842  17.076  0.00  0.00    +0.000 A 
ATOM      5  C   UNL     1       4.976   5.934  15.838  0.00  0.00    +0.000 A 
ATOM      6  C   UNL     1       5.601   4.712  15.669  0.00  0.00    +0.000 A 
ATOM      7  N   UNL     1       5.247   3.979  16.763  0.00  0.00    +0.000 N 
ATOM      8  N   UNL     1       4.489   4.647  17.629  0.00  0.00    +0.000 NA
ATOM      9  H   UNL     1       3.464   7.713  17.143  0.00  0.00    +0.000 HD
ATOM     10  H   UNL     1       5.479   3.016  16.990  0.00  0.00    +0.000 HD
ENDROOT
BRANCH   1  19
ATOM     11  C   UNL     1      -0.942  11.918  20.123  0.00  0.00    +0.000 C 
ATOM     12  N   UNL     1      -0.403  10.871  20.979  0.00  0.00    +0.000 N 
ATOM     13  C   UNL     1      -0.719  10.899  22.338  0.00  0.00    +0.000 C 
ATOM     14  O   UNL     1      -1.354  11.814  22.866  0.00  0.00    +0.000 OA
ATOM     15  C   UNL     1      -0.149   9.790  23.194  0.00  0.00    +0.000 C 
ATOM     16  C   UNL     1      -0.091   8.478  22.443  0.00  0.00    +0.000 C 
ATOM     17  C   UNL     1       0.635   8.678  21.144  0.00  0.00    +0.000 A 
ATOM     18  C   UNL     1       1.444   7.665  20.614  0.00  0.00    +0.000 A 
ATOM     19  C   UNL     1       2.066   7.816  19.367  0.00  0.00    +0.000 A 
ATOM     20  C   UNL     1       1.829   8.971  18.619  0.00  0.00    +0.000 A 
ATOM     21  C   UNL     1       0.997   9.974  19.140  0.00  0.00    +0.000 A 
ATOM     22  C   UNL     1       0.411   9.848  20.411  0.00  0.00    +0.000 A 
ENDBRANCH   1  19
BRANCH   6  23
ATOM     23  C   UNL     1       6.469   4.175  14.585  0.00  0.00    +0.000 C 
ATOM     24  C   UNL     1       7.379   5.238  13.967  0.00  0.00    +0.000 C 
ATOM     25  C   UNL     1       7.704   4.726  12.566  0.00  0.00    +0.000 C 
ATOM     26  C   UNL     1       6.686   3.632  12.249  0.00  0.00    +0.000 C 
ATOM     27  C   UNL     1       5.676   3.654  13.387  0.00  0.00    +0.000 C 
ENDBRANCH   6  23
TORSDOF 2
ENDMDL
MODEL 3
REMARK VINA RESULT:      -8.1      2.627     10.020
REMARK  Name = 
REMARK  3 active torsions:
REMARK  status: ('A' for Active; 'I' for Inactive)
REMARK    1  A    between atoms: C_1  and  N_2
REMARK    2  A    between atoms: C_9  and  C_10
REMARK    3  A    between atoms: C_15  and  C_16
REMARK                            x       y       z     vdW  Elec       q    Type
REMARK                         _______ _______ _______ _____ _____    ______ ____
ROOT
ATOM      1  C   UNL     1       1.243   9.074  18.874  0.00  0.00    +0.000 C 
ATOM      2  O   UNL     1       0.966   9.601  17.798  0.00  0.00    +0.000 OA
ATOM      3  N   UNL     1       0.757   9.411  20.124  0.00  0.00    +0.000 N 
ATOM      4  C   UNL     1      -0.173  10.425  20.306  0.00  0.00    +0.000 A 
ATOM      5  C   UNL     1      -0.711  10.839  21.552  0.00  0.00    +0.000 A 
ATOM      6  C   UNL     1      -1.603  11.851  21.252  0.00  0.00    +0.000 A 
ATOM      7  N   UNL     1      -1.566  11.965  19.893  0.00  0.00    +0.000 N 
ATOM      8  N   UNL     1      -0.696  11.143  19.314  0.00  0.00    +0.000 NA
ATOM      9  H   UNL     1       1.105   8.967  20.960  0.00  0.00    +0.000 HD
ATOM     10  H   UNL     1      -2.107  12.577  19.288  0.00  0.00    +0.000 HD
ENDROOT
BRANCH   1  19
ATOM     11  C   UNL     1       4.960   3.613  19.047  0.00  0.00    +0.000 C 
ATOM     12  N   UNL     1       5.089   4.862  18.311  0.00  0.00    +0.000 N 
ATOM     13  C   UNL     1       6.169   5.008  17.440  0.00  0.00    +0.000 C 
ATOM     14  O   UNL     1       7.069   4.173  17.333  0.00  0.00    +0.000 OA
ATOM     15  C   UNL     1       6.266   6.315  16.685  0.00  0.00    +0.000 C 
ATOM     16  C   UNL     1       4.898   6.847  16.313  0.00  0.00    +0.000 C 
ATOM     17  C   UNL     1       4.038   6.916  17.541  0.00  0.00    +0.000 A 
ATOM     18  C   UNL     1       3.096   7.941  17.698  0.00  0.00    +0.000 A 
ATOM     19  C   UNL     1       2.239   7.971  18.807  0.00  0.00    +0.000 A 
ATOM     20  C   UNL     1       2.290   6.932  19.739  0.00  0.00    +0.000 A 
ATOM     21  C   UNL     1       3.216   5.893  19.567  0.00  0.00    +0.000 A 
ATOM     22  C   UNL     1       4.111   5.885  18.484  0.00  0.00    +0.000 A 
ENDBRANCH   1  19
BRANCH   6  23
ATOM     23  C   UNL     1      -2.484  12.693  22.108  0.00  0.00    +0.000 C 
ATOM     24  C   UNL     1      -2.729  12.087  23.491  0.00  0.00    +0.000 C 
ATOM     25  C   UNL     1      -4.049  12.687  23.967  0.00  0.00    +0.000 C 
ATOM     26  C   UNL     1      -4.733  13.279  22.736  0.00  0.00    +0.000 C 
ATOM     27  C   UNL     1      -3.894  12.852  21.541  0.00  0.00    +0.000 C 
ENDBRANCH   6  23
TORSDOF 2
ENDMDL
MODEL 4
REMARK VINA RESULT:      -8.1      2.484     10.160
REMARK  Name = 
REMARK  3 active torsions:
REMARK  status: ('A' for Active; 'I' for Inactive)
REMARK    1  A    between atoms: C_1  and  N_2
REMARK    2  A    between atoms: C_9  and  C_10
REMARK    3  A    between atoms: C_15  and  C_16
REMARK                            x       y       z     vdW  Elec       q    Type
REMARK                         _______ _______ _______ _____ _____    ______ ____
ROOT
ATOM      1  C   UNL     1       1.335   8.075  20.568  0.00  0.00    +0.000 C 
ATOM      2  O   UNL     1       1.173   7.389  21.576  0.00  0.00    +0.000 OA
ATOM      3  N   UNL     1       0.806   9.327  20.310  0.00  0.00    +0.000 N 
ATOM      4  C   UNL     1       0.009   9.996  21.230  0.00  0.00    +0.000 A 
ATOM      5  C   UNL     1      -0.580  11.272  21.039  0.00  0.00    +0.000 A 
ATOM      6  C   UNL     1      -1.261  11.546  22.210  0.00  0.00    +0.000 A 
ATOM      7  N   UNL     1      -1.030  10.467  23.014  0.00  0.00    +0.000 N 
ATOM      8  N   UNL     1      -0.300   9.519  22.434  0.00  0.00    +0.000 NA
ATOM      9  H   UNL     1       0.934   9.777  19.418  0.00  0.00    +0.000 HD
ATOM     10  H   UNL     1      -1.333  10.306  23.970  0.00  0.00    +0.000 HD
ENDROOT
BRANCH   1  19
ATOM     11  C   UNL     1       5.335   6.292  15.621  0.00  0.00    +0.000 C 
ATOM     12  N   UNL     1       4.694   5.532  16.684  0.00  0.00    +0.000 N 
ATOM     13  C   UNL     1       4.931   4.159  16.750  0.00  0.00    +0.000 C 
ATOM     14  O   UNL     1       5.579   3.542  15.903  0.00  0.00    +0.000 OA
ATOM     15  C   UNL     1       4.255   3.403  17.873  0.00  0.00    +0.000 C 
ATOM     16  C   UNL     1       4.175   4.234  19.135  0.00  0.00    +0.000 C 
ATOM     17  C   UNL     1       3.538   5.557  18.823  0.00  0.00    +0.000 A 
ATOM     18  C   UNL     1       2.710   6.191  19.759  0.00  0.00    +0.000 A 
ATOM     19  C   UNL     1       2.171   7.459  19.503  0.00  0.00    +0.000 A 
ATOM     20  C   UNL     1       2.510   8.122  18.322  0.00  0.00    +0.000 A 
ATOM     21  C   UNL     1       3.360   7.497  17.397  0.00  0.00    +0.000 A 
ATOM     22  C   UNL     1       3.863   6.205  17.626  0.00  0.00    +0.000 A 
ENDBRANCH   1  19
BRANCH   6  23
ATOM     23  C   UNL     1      -2.078  12.713  22.642  0.00  0.00    +0.000 C 
ATOM     24  C   UNL     1      -1.268  13.756  23.414  0.00  0.00    +0.000 C 
ATOM     25  C   UNL     1      -2.285  14.505  24.271  0.00  0.00    +0.000 C 
ATOM     26  C   UNL     1      -3.550  13.648  24.302  0.00  0.00    +0.000 C 
ATOM     27  C   UNL     1      -3.188  12.336  23.623  0.00  0.00    +0.000 C 
ENDBRANCH   6  23
TORSDOF 2
ENDMDL
MODEL 5
REMARK VINA RESULT:      -8.1      7.440      8.244
REMARK  Name = 
REMARK  3 active torsions:
REMARK  status: ('A' for Active; 'I' for Inactive)
REMARK    1  A    between atoms: C_1  and  N_2
REMARK    2  A    between atoms: C_9  and  C_10
REMARK    3  A    between atoms: C_15  and  C_16
REMARK                            x       y       z     vdW  Elec       q    Type
REMARK                         _______ _______ _______ _____ _____    ______ ____
ROOT
ATOM      1  C   UNL     1       9.220  10.487  18.768  0.00  0.00    +0.000 C 
ATOM      2  O   UNL     1       9.731  10.055  19.800  0.00  0.00    +0.000 OA
ATOM      3  N   UNL     1       8.471   9.783  17.843  0.00  0.00    +0.000 N 
ATOM      4  C   UNL     1       8.174   8.436  18.005  0.00  0.00    +0.000 A 
ATOM      5  C   UNL     1       7.424   7.641  17.100  0.00  0.00    +0.000 A 
ATOM      6  C   UNL     1       7.364   6.384  17.673  0.00  0.00    +0.000 A 
ATOM      7  N   UNL     1       8.037   6.501  18.854  0.00  0.00    +0.000 N 
ATOM      8  N   UNL     1       8.554   7.711  19.055  0.00  0.00    +0.000 NA
ATOM      9  H   UNL     1       8.159  10.210  16.985  0.00  0.00    +0.000 HD
ATOM     10  H   UNL     1       8.184   5.803  19.578  0.00  0.00    +0.000 HD
ENDROOT
BRANCH   1  19
ATOM     11  C   UNL     1      11.019  16.536  16.809  0.00  0.00    +0.000 C 
ATOM     12  N   UNL     1       9.899  16.058  17.606  0.00  0.00    +0.000 N 
ATOM     13  C   UNL     1       8.971  16.991  18.071  0.00  0.00    +0.000 C 
ATOM     14  O   UNL     1       9.102  18.207  17.920  0.00  0.00    +0.000 OA
ATOM     15  C   UNL     1       7.815  16.457  18.887  0.00  0.00    +0.000 C 
ATOM     16  C   UNL     1       7.362  15.101  18.392  0.00  0.00    +0.000 C 
ATOM     17  C   UNL     1       8.541  14.173  18.327  0.00  0.00    +0.000 A 
ATOM     18  C   UNL     1       8.394  12.810  18.612  0.00  0.00    +0.000 A 
ATOM     19  C   UNL     1       9.474  11.925  18.482  0.00  0.00    +0.000 A 
ATOM     20  C   UNL     1      10.698  12.403  18.008  0.00  0.00    +0.000 A 
ATOM     21  C   UNL     1      10.835  13.764  17.698  0.00  0.00    +0.000 A 
ATOM     22  C   UNL     1       9.770  14.664  17.874  0.00  0.00    +0.000 A 
ENDBRANCH   1  19
BRANCH   6  23
ATOM     23  C   UNL     1       6.730   5.113  17.229  0.00  0.00    +0.000 C 
ATOM     24  C   UNL     1       7.045   4.765  15.774  0.00  0.00    +0.000 C 
ATOM     25  C   UNL     1       5.901   3.862  15.318  0.00  0.00    +0.000 C 
ATOM     26  C   UNL     1       4.773   4.034  16.333  0.00  0.00    +0.000 C 
ATOM     27  C   UNL     1       5.203   5.166  17.254  0.00  0.00    +0.000 C 
ENDBRANCH   6  23
TORSDOF 2
ENDMDL
MODEL 6
REMARK VINA RESULT:      -8.1      2.990     10.364
REMARK  Name = 
REMARK  3 active torsions:
REMARK  status: ('A' for Active; 'I' for Inactive)
REMARK    1  A    between atoms: C_1  and  N_2
REMARK    2  A    between atoms: C_9  and  C_10
REMARK    3  A    between atoms: C_15  and  C_16
REMARK                            x       y       z     vdW  Elec       q    Type
REMARK                         _______ _______ _______ _____ _____    ______ ____
ROOT
ATOM      1  C   UNL     1       1.142   9.083  19.799  0.00  0.00    +0.000 C 
ATOM      2  O   UNL     1       1.157   9.933  18.911  0.00  0.00    +0.000 OA
ATOM      3  N   UNL     1       0.566   9.187  21.052  0.00  0.00    +0.000 N 
ATOM      4  C   UNL     1      -0.123  10.323  21.457  0.00  0.00    +0.000 A 
ATOM      5  C   UNL     1      -0.730  10.514  22.724  0.00  0.00    +0.000 A 
ATOM      6  C   UNL     1      -1.311  11.767  22.673  0.00  0.00    +0.000 A 
ATOM      7  N   UNL     1      -1.046  12.228  21.416  0.00  0.00    +0.000 N 
ATOM      8  N   UNL     1      -0.312  11.392  20.687  0.00  0.00    +0.000 NA
ATOM      9  H   UNL     1       0.674   8.460  21.742  0.00  0.00    +0.000 HD
ATOM     10  H   UNL     1      -1.335  13.100  20.981  0.00  0.00    +0.000 HD
ENDROOT
BRANCH   1  19
ATOM     11  C   UNL     1       5.025   4.057  17.978  0.00  0.00    +0.000 C 
ATOM     12  N   UNL     1       3.890   4.138  18.885  0.00  0.00    +0.000 N 
ATOM     13  C   UNL     1       3.490   2.978  19.549  0.00  0.00    +0.000 C 
ATOM     14  O   UNL     1       3.989   1.871  19.338  0.00  0.00    +0.000 OA
ATOM     15  C   UNL     1       2.312   3.102  20.491  0.00  0.00    +0.000 C 
ATOM     16  C   UNL     1       2.302   4.438  21.199  0.00  0.00    +0.000 C 
ATOM     17  C   UNL     1       2.389   5.542  20.185  0.00  0.00    +0.000 A 
ATOM     18  C   UNL     1       1.721   6.756  20.390  0.00  0.00    +0.000 A 
ATOM     19  C   UNL     1       1.856   7.817  19.484  0.00  0.00    +0.000 A 
ATOM     20  C   UNL     1       2.715   7.678  18.391  0.00  0.00    +0.000 A 
ATOM     21  C   UNL     1       3.404   6.471  18.202  0.00  0.00    +0.000 A 
ATOM     22  C   UNL     1       3.233   5.387  19.080  0.00  0.00    +0.000 A 
ENDBRANCH   1  19
BRANCH   6  23
ATOM     23  C   UNL     1      -2.092  12.549  23.671  0.00  0.00    +0.000 C 
ATOM     24  C   UNL     1      -3.579  12.640  23.327  0.00  0.00    +0.000 C 
ATOM     25  C   UNL     1      -4.080  13.900  24.027  0.00  0.00    +0.000 C 
ATOM     26  C   UNL     1      -2.844  14.716  24.402  0.00  0.00    +0.000 C 
ATOM     27  C   UNL     1      -1.661  14.013  23.752  0.00  0.00    +0.000 C 
ENDBRANCH   6  23
TORSDOF 2
ENDMDL
MODEL 7
REMARK VINA RESULT:      -8.0      6.861      8.174
REMARK  Name = 
REMARK  3 active torsions:
REMARK  status: ('A' for Active; 'I' for Inactive)
REMARK    1  A    between atoms: C_1  and  N_2
REMARK    2  A    between atoms: C_9  and  C_10
REMARK    3  A    between atoms: C_15  and  C_16
REMARK                            x       y       z     vdW  Elec       q    Type
REMARK                         _______ _______ _______ _____ _____    ______ ____
ROOT
ATOM      1  C   UNL     1       8.107   8.569  18.323  0.00  0.00    +0.000 C 
ATOM      2  O   UNL     1       8.843   7.734  18.847  0.00  0.00    +0.000 OA
ATOM      3  N   UNL     1       6.862   8.355  17.760  0.00  0.00    +0.000 N 
ATOM      4  C   UNL     1       6.261   7.104  17.749  0.00  0.00    +0.000 A 
ATOM      5  C   UNL     1       4.996   6.800  17.183  0.00  0.00    +0.000 A 
ATOM      6  C   UNL     1       4.798   5.452  17.422  0.00  0.00    +0.000 A 
ATOM      7  N   UNL     1       5.904   5.048  18.111  0.00  0.00    +0.000 N 
ATOM      8  N   UNL     1       6.802   6.013  18.288  0.00  0.00    +0.000 NA
ATOM      9  H   UNL     1       6.367   9.094  17.284  0.00  0.00    +0.000 HD
ATOM     10  H   UNL     1       6.118   4.133  18.496  0.00  0.00    +0.000 HD
ENDROOT
BRANCH   1  19
ATOM     11  C   UNL     1       9.546  15.005  17.914  0.00  0.00    +0.000 C 
ATOM     12  N   UNL     1      10.302  13.862  18.403  0.00  0.00    +0.000 N 
ATOM     13  C   UNL     1      11.580  14.086  18.916  0.00  0.00    +0.000 C 
ATOM     14  O   UNL     1      12.137  15.185  18.891  0.00  0.00    +0.000 OA
ATOM     15  C   UNL     1      12.333  12.876  19.424  0.00  0.00    +0.000 C 
ATOM     16  C   UNL     1      11.405  11.875  20.077  0.00  0.00    +0.000 C 
ATOM     17  C   UNL     1      10.286  11.542  19.133  0.00  0.00    +0.000 A 
ATOM     18  C   UNL     1       9.740  10.253  19.096  0.00  0.00    +0.000 A 
ATOM     19  C   UNL     1       8.648   9.954  18.270  0.00  0.00    +0.000 A 
ATOM     20  C   UNL     1       8.061  10.972  17.516  0.00  0.00    +0.000 A 
ATOM     21  C   UNL     1       8.593  12.269  17.573  0.00  0.00    +0.000 A 
ATOM     22  C   UNL     1       9.719  12.562  18.361  0.00  0.00    +0.000 A 
ENDBRANCH   1  19
BRANCH   6  23
ATOM     23  C   UNL     1       3.677   4.532  17.084  0.00  0.00    +0.000 C 
ATOM     24  C   UNL     1       2.371   4.898  17.789  0.00  0.00    +0.000 C 
ATOM     25  C   UNL     1       1.565   3.602  17.845  0.00  0.00    +0.000 C 
ATOM     26  C   UNL     1       2.544   2.463  17.565  0.00  0.00    +0.000 C 
ATOM     27  C   UNL     1       3.928   3.094  17.535  0.00  0.00    +0.000 C 
ENDBRANCH   6  23
TORSDOF 2
ENDMDL
MODEL 8
REMARK VINA RESULT:      -7.9      2.986      9.988
REMARK  Name = 
REMARK  3 active torsions:
REMARK  status: ('A' for Active; 'I' for Inactive)
REMARK    1  A    between atoms: C_1  and  N_2
REMARK    2  A    between atoms: C_9  and  C_10
REMARK    3  A    between atoms: C_15  and  C_16
REMARK                            x       y       z     vdW  Elec       q    Type
REMARK                         _______ _______ _______ _____ _____    ______ ____
ROOT
ATOM      1  C   UNL     1       1.425   9.054  18.790  0.00  0.00    +0.000 C 
ATOM      2  O   UNL     1       1.418   9.737  17.767  0.00  0.00    +0.000 OA
ATOM      3  N   UNL     1       0.765   9.313  19.978  0.00  0.00    +0.000 N 
ATOM      4  C   UNL     1      -0.046  10.428  20.144  0.00  0.00    +0.000 A 
ATOM      5  C   UNL     1      -0.745  10.771  21.330  0.00  0.00    +0.000 A 
ATOM      6  C   UNL     1      -1.432  11.933  21.032  0.00  0.00    +0.000 A 
ATOM      7  N   UNL     1      -1.133  12.197  19.727  0.00  0.00    +0.000 N 
ATOM      8  N   UNL     1      -0.283  11.325  19.190  0.00  0.00    +0.000 NA
ATOM      9  H   UNL     1       0.896   8.729  20.789  0.00  0.00    +0.000 HD
ATOM     10  H   UNL     1      -1.471  12.948  19.132  0.00  0.00    +0.000 HD
ENDROOT
BRANCH   1  19
ATOM     11  C   UNL     1       5.895   4.227  18.172  0.00  0.00    +0.000 C 
ATOM     12  N   UNL     1       4.626   4.302  18.881  0.00  0.00    +0.000 N 
ATOM     13  C   UNL     1       4.208   3.186  19.608  0.00  0.00    +0.000 C 
ATOM     14  O   UNL     1       4.812   2.111  19.604  0.00  0.00    +0.000 OA
ATOM     15  C   UNL     1       2.889   3.302  20.339  0.00  0.00    +0.000 C 
ATOM     16  C   UNL     1       2.672   4.699  20.879  0.00  0.00    +0.000 C 
ATOM     17  C   UNL     1       2.841   5.696  19.768  0.00  0.00    +0.000 A 
ATOM     18  C   UNL     1       2.065   6.860  19.727  0.00  0.00    +0.000 A 
ATOM     19  C   UNL     1       2.268   7.830  18.735  0.00  0.00    +0.000 A 
ATOM     20  C   UNL     1       3.298   7.655  17.808  0.00  0.00    +0.000 A 
ATOM     21  C   UNL     1       4.092   6.500  17.866  0.00  0.00    +0.000 A 
ATOM     22  C   UNL     1       3.860   5.502  18.828  0.00  0.00    +0.000 A 
ENDBRANCH   1  19
BRANCH   6  23
ATOM     23  C   UNL     1      -2.340  12.793  21.840  0.00  0.00    +0.000 C 
ATOM     24  C   UNL     1      -2.639  12.211  23.222  0.00  0.00    +0.000 C 
ATOM     25  C   UNL     1      -3.973  12.825  23.639  0.00  0.00    +0.000 C 
ATOM     26  C   UNL     1      -4.608  13.399  22.373  0.00  0.00    +0.000 C 
ATOM     27  C   UNL     1      -3.727  12.949  21.218  0.00  0.00    +0.000 C 
ENDBRANCH   6  23
TORSDOF 2
ENDMDL
MODEL 9
REMARK VINA RESULT:      -7.9      1.413      2.095
REMARK  Name = 
REMARK  3 active torsions:
REMARK  status: ('A' for Active; 'I' for Inactive)
REMARK    1  A    between atoms: C_1  and  N_2
REMARK    2  A    between atoms: C_9  and  C_10
REMARK    3  A    between atoms: C_15  and  C_16
REMARK                            x       y       z     vdW  Elec       q    Type
REMARK                         _______ _______ _______ _____ _____    ______ ____
ROOT
ATOM      1  C   UNL     1       1.834   7.333  20.241  0.00  0.00    +0.000 C 
ATOM      2  O   UNL     1       1.752   6.377  21.011  0.00  0.00    +0.000 OA
ATOM      3  N   UNL     1       2.583   7.414  19.082  0.00  0.00    +0.000 N 
ATOM      4  C   UNL     1       3.349   6.352  18.620  0.00  0.00    +0.000 A 
ATOM      5  C   UNL     1       4.152   6.359  17.451  0.00  0.00    +0.000 A 
ATOM      6  C   UNL     1       4.709   5.096  17.376  0.00  0.00    +0.000 A 
ATOM      7  N   UNL     1       4.208   4.424  18.452  0.00  0.00    +0.000 N 
ATOM      8  N   UNL     1       3.419   5.167  19.223  0.00  0.00    +0.000 NA
ATOM      9  H   UNL     1       2.646   8.273  18.556  0.00  0.00    +0.000 HD
ATOM     10  H   UNL     1       4.354   3.457  18.727  0.00  0.00    +0.000 HD
ENDROOT
BRANCH   1  19
ATOM     11  C   UNL     1      -1.115  12.628  22.872  0.00  0.00    +0.000 C 
ATOM     12  N   UNL     1      -1.042  12.124  21.509  0.00  0.00    +0.000 N 
ATOM     13  C   UNL     1      -1.679  12.850  20.501  0.00  0.00    +0.000 C 
ATOM     14  O   UNL     1      -2.376  13.843  20.719  0.00  0.00    +0.000 OA
ATOM     15  C   UNL     1      -1.575  12.301  19.095  0.00  0.00    +0.000 C 
ATOM     16  C   UNL     1      -0.230  11.654  18.847  0.00  0.00    +0.000 C 
ATOM     17  C   UNL     1       0.041  10.637  19.918  0.00  0.00    +0.000 A 
ATOM     18  C   UNL     1       0.738   9.458  19.625  0.00  0.00    +0.000 A 
ATOM     19  C   UNL     1       1.058   8.539  20.634  0.00  0.00    +0.000 A 
ATOM     20  C   UNL     1       0.723   8.832  21.958  0.00  0.00    +0.000 A 
ATOM     21  C   UNL     1       0.048  10.025  22.253  0.00  0.00    +0.000 A 
ATOM     22  C   UNL     1      -0.319  10.926  21.239  0.00  0.00    +0.000 A 
ENDBRANCH   1  19
BRANCH   6  23
ATOM     23  C   UNL     1       5.637   4.469  16.394  0.00  0.00    +0.000 C 
ATOM     24  C   UNL     1       6.873   5.324  16.111  0.00  0.00    +0.000 C 
ATOM     25  C   UNL     1       7.356   4.891  14.729  0.00  0.00    +0.000 C 
ATOM     26  C   UNL     1       6.203   4.127  14.079  0.00  0.00    +0.000 C 
ATOM     27  C   UNL     1       5.011   4.288  15.012  0.00  0.00    +0.000 C 
ENDBRANCH   6  23
TORSDOF 2
ENDMDL
