MODEL 1
REMARK VINA RESULT:      -8.5      0.000      0.000
REMARK  Name = 
REMARK  7 active torsions:
REMARK  status: ('A' for Active; 'I' for Inactive)
REMARK    1  A    between atoms: C_1  and  C_2
REMARK    2  A    between atoms: C_6  and  N_7
REMARK    3  A    between atoms: C_8  and  C_10
REMARK    4  A    between atoms: C_12  and  S_13
REMARK    5  A    between atoms: S_13  and  N_16
REMARK    6  A    between atoms: N_16  and  C_17
REMARK    7  A    between atoms: N_16  and  C_18
REMARK                            x       y       z     vdW  Elec       q    Type
REMARK                         _______ _______ _______ _____ _____    ______ ____
ROOT
ATOM      1  C   UNL     1       2.122   7.338  19.028  0.00  0.00    +0.000 A 
ATOM      2  C   UNL     1       2.542   6.332  18.123  0.00  0.00    +0.000 A 
ATOM      3  C   UNL     1       2.790   5.024  18.563  0.00  0.00    +0.000 A 
ATOM      4  C   UNL     1       2.667   4.721  19.920  0.00  0.00    +0.000 A 
ATOM      5  C   UNL     1       2.225   5.702  20.815  0.00  0.00    +0.000 A 
ATOM      6  C   UNL     1       1.935   7.001  20.374  0.00  0.00    +0.000 A 
ATOM      7 CL   UNL     1       1.325   8.097  21.564  0.00  0.00    +0.000 Cl
ENDROOT
BRANCH   1   9
ATOM      8  N   UNL     1       1.194   9.606  19.226  0.00  0.00    +0.000 N 
ATOM      9  C   UNL     1       1.891   8.700  18.448  0.00  0.00    +0.000 C 
ATOM     10  O   UNL     1       2.370   8.899  17.337  0.00  0.00    +0.000 OA
ATOM     11  H   UNL     1       0.817   9.299  20.110  0.00  0.00    +0.000 HD
BRANCH   8  17
ATOM     12  C   UNL     1       2.762  14.043  18.263  0.00  0.00    +0.000 C 
ATOM     13  C   UNL     1       1.603  13.104  18.380  0.00  0.00    +0.000 A 
ATOM     14  C   UNL     1       0.301  13.524  18.145  0.00  0.00    +0.000 A 
ATOM     15  C   UNL     1      -0.725  12.596  18.275  0.00  0.00    +0.000 A 
ATOM     16  C   UNL     1      -0.420  11.285  18.640  0.00  0.00    +0.000 A 
ATOM     17  C   UNL     1       0.909  10.937  18.859  0.00  0.00    +0.000 A 
ATOM     18  N   UNL     1       1.902  11.832  18.732  0.00  0.00    +0.000 NA
ENDBRANCH   8  17
ENDBRANCH   1   9
BRANCH   3  19
ATOM     19  S   UNL     1       3.518   3.816  17.452  0.00  0.00    +0.000 S 
ATOM     20  O   UNL     1       4.119   2.803  18.291  0.00  0.00    +0.000 OA
ATOM     21  O   UNL     1       2.474   3.459  16.510  0.00  0.00    +0.000 OA
BRANCH  19  22
ATOM     22  N   UNL     1       4.740   4.631  16.624  0.00  0.00    +0.000 N 
ATOM     23  C   UNL     1       4.932   4.457  15.180  0.00  0.00    +0.000 C 
BRANCH  22  24
ATOM     24  C   UNL     1       5.698   5.425  17.318  0.00  0.00    +0.000 A 
ATOM     25  C   UNL     1       6.514   4.860  18.299  0.00  0.00    +0.000 A 
ATOM     26  C   UNL     1       7.559   5.608  18.849  0.00  0.00    +0.000 A 
ATOM     27  C   UNL     1       7.786   6.908  18.404  0.00  0.00    +0.000 A 
ATOM     28  F   UNL     1       8.809   7.609  18.909  0.00  0.00    +0.000 F 
ATOM     29  C   UNL     1       6.979   7.480  17.427  0.00  0.00    +0.000 A 
ATOM     30  C   UNL     1       5.927   6.736  16.878  0.00  0.00    +0.000 A 
ENDBRANCH  22  24
ENDBRANCH  19  22
ENDBRANCH   3  19
TORSDOF 5
ENDMDL
MODEL 2
REMARK VINA RESULT:      -8.3      3.242      4.324
REMARK  Name = 
REMARK  7 active torsions:
REMARK  status: ('A' for Active; 'I' for Inactive)
REMARK    1  A    between atoms: C_1  and  C_2
REMARK    2  A    between atoms: C_6  and  N_7
REMARK    3  A    between atoms: C_8  and  C_10
REMARK    4  A    between atoms: C_12  and  S_13
REMARK    5  A    between atoms: S_13  and  N_16
REMARK    6  A    between atoms: N_16  and  C_17
REMARK    7  A    between atoms: N_16  and  C_18
REMARK                            x       y       z     vdW  Elec       q    Type
REMARK                         _______ _______ _______ _____ _____    ______ ____
ROOT
ATOM      1  C   UNL     1       3.010   4.873  19.960  0.00  0.00    +0.000 A 
ATOM      2  C   UNL     1       4.129   5.341  19.228  0.00  0.00    +0.000 A 
ATOM      3  C   UNL     1       5.155   4.467  18.841  0.00  0.00    +0.000 A 
ATOM      4  C   UNL     1       5.094   3.125  19.223  0.00  0.00    +0.000 A 
ATOM      5  C   UNL     1       3.978   2.649  19.920  0.00  0.00    +0.000 A 
ATOM      6  C   UNL     1       2.930   3.510  20.274  0.00  0.00    +0.000 A 
ATOM      7 CL   UNL     1       1.574   2.785  21.066  0.00  0.00    +0.000 Cl
ENDROOT
BRANCH   1   9
ATOM      8  N   UNL     1       2.317   7.225  20.142  0.00  0.00    +0.000 N 
ATOM      9  C   UNL     1       1.978   5.896  20.324  0.00  0.00    +0.000 C 
ATOM     10  O   UNL     1       0.906   5.459  20.727  0.00  0.00    +0.000 OA
ATOM     11  H   UNL     1       3.253   7.451  19.840  0.00  0.00    +0.000 HD
BRANCH   8  17
ATOM     12  C   UNL     1      -0.352   9.725  23.257  0.00  0.00    +0.000 C 
ATOM     13  C   UNL     1       0.159   9.574  21.858  0.00  0.00    +0.000 A 
ATOM     14  C   UNL     1      -0.194  10.466  20.855  0.00  0.00    +0.000 A 
ATOM     15  C   UNL     1       0.316  10.260  19.580  0.00  0.00    +0.000 A 
ATOM     16  C   UNL     1       1.156   9.171  19.345  0.00  0.00    +0.000 A 
ATOM     17  C   UNL     1       1.467   8.319  20.401  0.00  0.00    +0.000 A 
ATOM     18  N   UNL     1       0.975   8.517  21.634  0.00  0.00    +0.000 NA
ENDBRANCH   8  17
ENDBRANCH   1   9
BRANCH   3  19
ATOM     19  S   UNL     1       6.660   5.105  18.099  0.00  0.00    +0.000 S 
ATOM     20  O   UNL     1       7.126   6.161  18.972  0.00  0.00    +0.000 OA
ATOM     21  O   UNL     1       7.498   3.951  17.838  0.00  0.00    +0.000 OA
BRANCH  19  22
ATOM     22  N   UNL     1       6.195   5.783  16.627  0.00  0.00    +0.000 N 
ATOM     23  C   UNL     1       5.468   7.056  16.567  0.00  0.00    +0.000 C 
BRANCH  22  24
ATOM     24  C   UNL     1       6.390   5.085  15.400  0.00  0.00    +0.000 A 
ATOM     25  C   UNL     1       5.415   4.213  14.915  0.00  0.00    +0.000 A 
ATOM     26  C   UNL     1       5.546   3.668  13.634  0.00  0.00    +0.000 A 
ATOM     27  C   UNL     1       6.642   4.009  12.848  0.00  0.00    +0.000 A 
ATOM     28  F   UNL     1       6.747   3.512  11.608  0.00  0.00    +0.000 F 
ATOM     29  C   UNL     1       7.619   4.878  13.322  0.00  0.00    +0.000 A 
ATOM     30  C   UNL     1       7.494   5.421  14.606  0.00  0.00    +0.000 A 
ENDBRANCH  22  24
ENDBRANCH  19  22
ENDBRANCH   3  19
TORSDOF 5
ENDMDL
MODEL 3
REMARK VINA RESULT:      -8.3      2.874      3.943
REMARK  Name = 
REMARK  7 active torsions:
REMARK  status: ('A' for Active; 'I' for Inactive)
REMARK    1  A    between atoms: C_1  and  C_2
REMARK    2  A    between atoms: C_6  and  N_7
REMARK    3  A    between atoms: C_8  and  C_10
REMARK    4  A    between atoms: C_12  and  S_13
REMARK    5  A    between atoms: S_13  and  N_16
REMARK    6  A    between atoms: N_16  and  C_17
REMARK    7  A    between atoms: N_16  and  C_18
REMARK                            x       y       z     vdW  Elec       q    Type
REMARK                         _______ _______ _______ _____ _____    ______ ____
ROOT
ATOM      1  C   UNL     1       3.084   5.909  19.528  0.00  0.00    +0.000 A 
ATOM      2  C   UNL     1       4.401   6.080  19.033  0.00  0.00    +0.000 A 
ATOM      3  C   UNL     1       5.281   4.993  18.932  0.00  0.00    +0.000 A 
ATOM      4  C   UNL     1       4.868   3.733  19.370  0.00  0.00    +0.000 A 
ATOM      5  C   UNL     1       3.561   3.550  19.833  0.00  0.00    +0.000 A 
ATOM      6  C   UNL     1       2.663   4.625  19.897  0.00  0.00    +0.000 A 
ATOM      7 CL   UNL     1       1.055   4.253  20.414  0.00  0.00    +0.000 Cl
ENDROOT
BRANCH   1   9
ATOM      8  N   UNL     1       1.791   7.532  20.847  0.00  0.00    +0.000 N 
ATOM      9  C   UNL     1       2.234   7.140  19.596  0.00  0.00    +0.000 C 
ATOM     10  O   UNL     1       2.029   7.711  18.531  0.00  0.00    +0.000 OA
ATOM     11  H   UNL     1       1.999   6.946  21.641  0.00  0.00    +0.000 HD
BRANCH   8  17
ATOM     12  C   UNL     1      -0.396  11.487  19.219  0.00  0.00    +0.000 C 
ATOM     13  C   UNL     1      -0.071  10.603  20.382  0.00  0.00    +0.000 A 
ATOM     14  C   UNL     1      -0.514  10.899  21.665  0.00  0.00    +0.000 A 
ATOM     15  C   UNL     1      -0.171  10.033  22.696  0.00  0.00    +0.000 A 
ATOM     16  C   UNL     1       0.603   8.907  22.416  0.00  0.00    +0.000 A 
ATOM     17  C   UNL     1       1.009   8.676  21.106  0.00  0.00    +0.000 A 
ATOM     18  N   UNL     1       0.679   9.511  20.108  0.00  0.00    +0.000 NA
ENDBRANCH   8  17
ENDBRANCH   1   9
BRANCH   3  19
ATOM     19  S   UNL     1       7.003   5.257  18.502  0.00  0.00    +0.000 S 
ATOM     20  O   UNL     1       7.564   6.074  19.556  0.00  0.00    +0.000 OA
ATOM     21  O   UNL     1       7.553   3.943  18.226  0.00  0.00    +0.000 OA
BRANCH  19  22
ATOM     22  N   UNL     1       6.988   6.150  17.072  0.00  0.00    +0.000 N 
ATOM     23  C   UNL     1       7.229   7.597  17.072  0.00  0.00    +0.000 C 
BRANCH  22  24
ATOM     24  C   UNL     1       6.626   5.549  15.831  0.00  0.00    +0.000 A 
ATOM     25  C   UNL     1       7.582   5.339  14.837  0.00  0.00    +0.000 A 
ATOM     26  C   UNL     1       7.249   4.599  13.699  0.00  0.00    +0.000 A 
ATOM     27  C   UNL     1       5.969   4.068  13.571  0.00  0.00    +0.000 A 
ATOM     28  F   UNL     1       5.664   3.331  12.495  0.00  0.00    +0.000 F 
ATOM     29  C   UNL     1       5.009   4.272  14.556  0.00  0.00    +0.000 A 
ATOM     30  C   UNL     1       5.337   5.017  15.695  0.00  0.00    +0.000 A 
ENDBRANCH  22  24
ENDBRANCH  19  22
ENDBRANCH   3  19
TORSDOF 5
ENDMDL
MODEL 4
REMARK VINA RESULT:      -8.2      3.210      4.236
REMARK  Name = 
REMARK  7 active torsions:
REMARK  status: ('A' for Active; 'I' for Inactive)
REMARK    1  A    between atoms: C_1  and  C_2
REMARK    2  A    between atoms: C_6  and  N_7
REMARK    3  A    between atoms: C_8  and  C_10
REMARK    4  A    between atoms: C_12  and  S_13
REMARK    5  A    between atoms: S_13  and  N_16
REMARK    6  A    between atoms: N_16  and  C_17
REMARK    7  A    between atoms: N_16  and  C_18
REMARK                            x       y       z     vdW  Elec       q    Type
REMARK                         _______ _______ _______ _____ _____    ______ ____
ROOT
ATOM      1  C   UNL     1       2.465   5.909  19.144  0.00  0.00    +0.000 A 
ATOM      2  C   UNL     1       3.471   6.511  18.348  0.00  0.00    +0.000 A 
ATOM      3  C   UNL     1       4.153   5.775  17.368  0.00  0.00    +0.000 A 
ATOM      4  C   UNL     1       3.868   4.417  17.207  0.00  0.00    +0.000 A 
ATOM      5  C   UNL     1       2.857   3.822  17.969  0.00  0.00    +0.000 A 
ATOM      6  C   UNL     1       2.143   4.564  18.922  0.00  0.00    +0.000 A 
ATOM      7 CL   UNL     1       0.867   3.733  19.742  0.00  0.00    +0.000 Cl
ENDROOT
BRANCH   1   9
ATOM      8  N   UNL     1       1.590   8.108  19.808  0.00  0.00    +0.000 N 
ATOM      9  C   UNL     1       1.808   6.788  20.162  0.00  0.00    +0.000 C 
ATOM     10  O   UNL     1       1.492   6.248  21.216  0.00  0.00    +0.000 OA
ATOM     11  H   UNL     1       1.938   8.436  18.920  0.00  0.00    +0.000 HD
BRANCH   8  17
ATOM     12  C   UNL     1       0.293  12.674  20.546  0.00  0.00    +0.000 C 
ATOM     13  C   UNL     1       0.303  11.261  21.041  0.00  0.00    +0.000 A 
ATOM     14  C   UNL     1      -0.276  10.911  22.253  0.00  0.00    +0.000 A 
ATOM     15  C   UNL     1      -0.225   9.580  22.648  0.00  0.00    +0.000 A 
ATOM     16  C   UNL     1       0.403   8.645  21.825  0.00  0.00    +0.000 A 
ATOM     17  C   UNL     1       0.960   9.070  20.623  0.00  0.00    +0.000 A 
ATOM     18  N   UNL     1       0.912  10.356  20.240  0.00  0.00    +0.000 NA
ENDBRANCH   8  17
ENDBRANCH   1   9
BRANCH   3  19
ATOM     19  S   UNL     1       5.561   6.488  16.514  0.00  0.00    +0.000 S 
ATOM     20  O   UNL     1       5.055   7.009  15.263  0.00  0.00    +0.000 OA
ATOM     21  O   UNL     1       6.201   7.374  17.468  0.00  0.00    +0.000 OA
BRANCH  19  22
ATOM     22  N   UNL     1       6.600   5.201  16.187  0.00  0.00    +0.000 N 
ATOM     23  C   UNL     1       7.398   4.575  17.246  0.00  0.00    +0.000 C 
BRANCH  22  24
ATOM     24  C   UNL     1       6.825   4.756  14.851  0.00  0.00    +0.000 A 
ATOM     25  C   UNL     1       5.996   3.795  14.273  0.00  0.00    +0.000 A 
ATOM     26  C   UNL     1       6.125   3.493  12.914  0.00  0.00    +0.000 A 
ATOM     27  C   UNL     1       7.072   4.163  12.146  0.00  0.00    +0.000 A 
ATOM     28  F   UNL     1       7.169   3.897  10.837  0.00  0.00    +0.000 F 
ATOM     29  C   UNL     1       7.903   5.124  12.713  0.00  0.00    +0.000 A 
ATOM     30  C   UNL     1       7.781   5.424  14.074  0.00  0.00    +0.000 A 
ENDBRANCH  22  24
ENDBRANCH  19  22
ENDBRANCH   3  19
TORSDOF 5
ENDMDL
MODEL 5
REMARK VINA RESULT:      -8.2      3.165      4.164
REMARK  Name = 
REMARK  7 active torsions:
REMARK  status: ('A' for Active; 'I' for Inactive)
REMARK    1  A    between atoms: C_1  and  C_2
REMARK    2  A    between atoms: C_6  and  N_7
REMARK    3  A    between atoms: C_8  and  C_10
REMARK    4  A    between atoms: C_12  and  S_13
REMARK    5  A    between atoms: S_13  and  N_16
REMARK    6  A    between atoms: N_16  and  C_17
REMARK    7  A    between atoms: N_16  and  C_18
REMARK                            x       y       z     vdW  Elec       q    Type
REMARK                         _______ _______ _______ _____ _____    ______ ____
ROOT
ATOM      1  C   UNL     1       2.626   6.986  19.059  0.00  0.00    +0.000 A 
ATOM      2  C   UNL     1       3.578   7.270  18.050  0.00  0.00    +0.000 A 
ATOM      3  C   UNL     1       4.450   6.277  17.580  0.00  0.00    +0.000 A 
ATOM      4  C   UNL     1       4.409   5.002  18.148  0.00  0.00    +0.000 A 
ATOM      5  C   UNL     1       3.452   4.706  19.125  0.00  0.00    +0.000 A 
ATOM      6  C   UNL     1       2.550   5.684  19.569  0.00  0.00    +0.000 A 
ATOM      7 CL   UNL     1       1.368   5.170  20.722  0.00  0.00    +0.000 Cl
ENDROOT
BRANCH   1   9
ATOM      8  N   UNL     1       1.573   8.305  20.847  0.00  0.00    +0.000 N 
ATOM      9  C   UNL     1       1.751   8.124  19.487  0.00  0.00    +0.000 C 
ATOM     10  O   UNL     1       1.290   8.815  18.586  0.00  0.00    +0.000 OA
ATOM     11  H   UNL     1       1.979   7.635  21.483  0.00  0.00    +0.000 HD
BRANCH   8  17
ATOM     12  C   UNL     1       0.294  12.934  20.956  0.00  0.00    +0.000 C 
ATOM     13  C   UNL     1       0.149  11.562  21.539  0.00  0.00    +0.000 A 
ATOM     14  C   UNL     1      -0.693  11.315  22.614  0.00  0.00    +0.000 A 
ATOM     15  C   UNL     1      -0.773  10.017  23.103  0.00  0.00    +0.000 A 
ATOM     16  C   UNL     1      -0.010   9.012  22.508  0.00  0.00    +0.000 A 
ATOM     17  C   UNL     1       0.811   9.336  21.432  0.00  0.00    +0.000 A 
ATOM     18  N   UNL     1       0.890  10.590  20.959  0.00  0.00    +0.000 NA
ENDBRANCH   8  17
ENDBRANCH   1   9
BRANCH   3  19
ATOM     19  S   UNL     1       5.784   6.699  16.456  0.00  0.00    +0.000 S 
ATOM     20  O   UNL     1       5.158   7.116  15.220  0.00  0.00    +0.000 OA
ATOM     21  O   UNL     1       6.645   7.614  17.182  0.00  0.00    +0.000 OA
BRANCH  19  22
ATOM     22  N   UNL     1       6.625   5.264  16.182  0.00  0.00    +0.000 N 
ATOM     23  C   UNL     1       7.497   4.681  17.207  0.00  0.00    +0.000 C 
BRANCH  22  24
ATOM     24  C   UNL     1       6.609   4.632  14.904  0.00  0.00    +0.000 A 
ATOM     25  C   UNL     1       5.554   3.796  14.538  0.00  0.00    +0.000 A 
ATOM     26  C   UNL     1       5.468   3.320  13.226  0.00  0.00    +0.000 A 
ATOM     27  C   UNL     1       6.429   3.694  12.292  0.00  0.00    +0.000 A 
ATOM     28  F   UNL     1       6.324   3.264  11.028  0.00  0.00    +0.000 F 
ATOM     29  C   UNL     1       7.484   4.527  12.647  0.00  0.00    +0.000 A 
ATOM     30  C   UNL     1       7.577   5.001  13.961  0.00  0.00    +0.000 A 
ENDBRANCH  22  24
ENDBRANCH  19  22
ENDBRANCH   3  19
TORSDOF 5
ENDMDL
MODEL 6
REMARK VINA RESULT:      -8.2      2.919      3.448
REMARK  Name = 
REMARK  7 active torsions:
REMARK  status: ('A' for Active; 'I' for Inactive)
REMARK    1  A    between atoms: C_1  and  C_2
REMARK    2  A    between atoms: C_6  and  N_7
REMARK    3  A    between atoms: C_8  and  C_10
REMARK    4  A    between atoms: C_12  and  S_13
REMARK    5  A    between atoms: S_13  and  N_16
REMARK    6  A    between atoms: N_16  and  C_17
REMARK    7  A    between atoms: N_16  and  C_18
REMARK                            x       y       z     vdW  Elec       q    Type
REMARK                         _______ _______ _______ _____ _____    ______ ____
ROOT
ATOM      1  C   UNL     1       1.690   8.132  19.970  0.00  0.00    +0.000 A 
ATOM      2  C   UNL     1       1.801   6.782  20.387  0.00  0.00    +0.000 A 
ATOM      3  C   UNL     1       2.205   5.782  19.491  0.00  0.00    +0.000 A 
ATOM      4  C   UNL     1       2.454   6.113  18.158  0.00  0.00    +0.000 A 
ATOM      5  C   UNL     1       2.373   7.447  17.745  0.00  0.00    +0.000 A 
ATOM      6  C   UNL     1       2.011   8.459  18.646  0.00  0.00    +0.000 A 
ATOM      7 CL   UNL     1       2.023  10.075  18.031  0.00  0.00    +0.000 Cl
ENDROOT
BRANCH   1   9
ATOM      8  N   UNL     1       0.431  10.151  20.590  0.00  0.00    +0.000 N 
ATOM      9  C   UNL     1       1.246   9.114  21.010  0.00  0.00    +0.000 C 
ATOM     10  O   UNL     1       1.626   8.894  22.154  0.00  0.00    +0.000 OA
ATOM     11  H   UNL     1       0.226  10.240  19.607  0.00  0.00    +0.000 HD
BRANCH   8  17
ATOM     12  C   UNL     1       0.371  14.733  22.029  0.00  0.00    +0.000 C 
ATOM     13  C   UNL     1      -0.184  13.350  22.172  0.00  0.00    +0.000 A 
ATOM     14  C   UNL     1      -1.178  13.058  23.095  0.00  0.00    +0.000 A 
ATOM     15  C   UNL     1      -1.642  11.751  23.172  0.00  0.00    +0.000 A 
ATOM     16  C   UNL     1      -1.098  10.780  22.331  0.00  0.00    +0.000 A 
ATOM     17  C   UNL     1      -0.104  11.148  21.430  0.00  0.00    +0.000 A 
ATOM     18  N   UNL     1       0.345  12.411  21.354  0.00  0.00    +0.000 NA
ENDBRANCH   8  17
ENDBRANCH   1   9
BRANCH   3  19
ATOM     19  S   UNL     1       2.143   4.054  19.974  0.00  0.00    +0.000 S 
ATOM     20  O   UNL     1       1.889   4.039  21.398  0.00  0.00    +0.000 OA
ATOM     21  O   UNL     1       1.213   3.416  19.061  0.00  0.00    +0.000 OA
BRANCH  19  22
ATOM     22  N   UNL     1       3.688   3.442  19.690  0.00  0.00    +0.000 N 
ATOM     23  C   UNL     1       4.252   2.374  20.523  0.00  0.00    +0.000 C 
BRANCH  22  24
ATOM     24  C   UNL     1       4.541   4.021  18.707  0.00  0.00    +0.000 A 
ATOM     25  C   UNL     1       5.607   4.838  19.082  0.00  0.00    +0.000 A 
ATOM     26  C   UNL     1       6.531   5.260  18.122  0.00  0.00    +0.000 A 
ATOM     27  C   UNL     1       6.387   4.851  16.799  0.00  0.00    +0.000 A 
ATOM     28  F   UNL     1       7.294   5.228  15.888  0.00  0.00    +0.000 F 
ATOM     29  C   UNL     1       5.328   4.036  16.415  0.00  0.00    +0.000 A 
ATOM     30  C   UNL     1       4.397   3.617  17.373  0.00  0.00    +0.000 A 
ENDBRANCH  22  24
ENDBRANCH  19  22
ENDBRANCH   3  19
TORSDOF 5
ENDMDL
MODEL 7
REMARK VINA RESULT:      -8.1      3.126      4.220
REMARK  Name = 
REMARK  7 active torsions:
REMARK  status: ('A' for Active; 'I' for Inactive)
REMARK    1  A    between atoms: C_1  and  C_2
REMARK    2  A    between atoms: C_6  and  N_7
REMARK    3  A    between atoms: C_8  and  C_10
REMARK    4  A    between atoms: C_12  and  S_13
REMARK    5  A    between atoms: S_13  and  N_16
REMARK    6  A    between atoms: N_16  and  C_17
REMARK    7  A    between atoms: N_16  and  C_18
REMARK                            x       y       z     vdW  Elec       q    Type
REMARK                         _______ _______ _______ _____ _____    ______ ____
ROOT
ATOM      1  C   UNL     1       3.087   5.055  19.712  0.00  0.00    +0.000 A 
ATOM      2  C   UNL     1       4.368   5.494  19.297  0.00  0.00    +0.000 A 
ATOM      3  C   UNL     1       5.322   4.585  18.817  0.00  0.00    +0.000 A 
ATOM      4  C   UNL     1       5.020   3.221  18.792  0.00  0.00    +0.000 A 
ATOM      5  C   UNL     1       3.746   2.784  19.173  0.00  0.00    +0.000 A 
ATOM      6  C   UNL     1       2.775   3.693  19.614  0.00  0.00    +0.000 A 
ATOM      7 CL   UNL     1       1.218   3.035  19.982  0.00  0.00    +0.000 Cl
ENDROOT
BRANCH   1   9
ATOM      8  N   UNL     1       2.255   7.368  19.638  0.00  0.00    +0.000 N 
ATOM      9  C   UNL     1       2.151   6.113  20.211  0.00  0.00    +0.000 C 
ATOM     10  O   UNL     1       1.351   5.761  21.070  0.00  0.00    +0.000 OA
ATOM     11  H   UNL     1       2.989   7.536  18.966  0.00  0.00    +0.000 HD
BRANCH   8  17
ATOM     12  C   UNL     1      -0.365   9.754  22.880  0.00  0.00    +0.000 C 
ATOM     13  C   UNL     1       0.160   9.677  21.480  0.00  0.00    +0.000 A 
ATOM     14  C   UNL     1      -0.146  10.646  20.535  0.00  0.00    +0.000 A 
ATOM     15  C   UNL     1       0.375  10.506  19.255  0.00  0.00    +0.000 A 
ATOM     16  C   UNL     1       1.178   9.404  18.959  0.00  0.00    +0.000 A 
ATOM     17  C   UNL     1       1.442   8.473  19.959  0.00  0.00    +0.000 A 
ATOM     18  N   UNL     1       0.939   8.607  21.197  0.00  0.00    +0.000 NA
ENDBRANCH   8  17
ENDBRANCH   1   9
BRANCH   3  19
ATOM     19  S   UNL     1       7.004   5.121  18.492  0.00  0.00    +0.000 S 
ATOM     20  O   UNL     1       7.389   5.950  19.613  0.00  0.00    +0.000 OA
ATOM     21  O   UNL     1       7.755   3.919  18.181  0.00  0.00    +0.000 OA
BRANCH  19  22
ATOM     22  N   UNL     1       6.921   6.082  17.109  0.00  0.00    +0.000 N 
ATOM     23  C   UNL     1       7.084   7.538  17.178  0.00  0.00    +0.000 C 
BRANCH  22  24
ATOM     24  C   UNL     1       6.574   5.524  15.844  0.00  0.00    +0.000 A 
ATOM     25  C   UNL     1       7.549   5.305  14.871  0.00  0.00    +0.000 A 
ATOM     26  C   UNL     1       7.223   4.606  13.705  0.00  0.00    +0.000 A 
ATOM     27  C   UNL     1       5.930   4.122  13.529  0.00  0.00    +0.000 A 
ATOM     28  F   UNL     1       5.631   3.423  12.427  0.00  0.00    +0.000 F 
ATOM     29  C   UNL     1       4.951   4.335  14.494  0.00  0.00    +0.000 A 
ATOM     30  C   UNL     1       5.272   5.040  15.659  0.00  0.00    +0.000 A 
ENDBRANCH  22  24
ENDBRANCH  19  22
ENDBRANCH   3  19
TORSDOF 5
ENDMDL
MODEL 8
REMARK VINA RESULT:      -8.0      3.290      4.470
REMARK  Name = 
REMARK  7 active torsions:
REMARK  status: ('A' for Active; 'I' for Inactive)
REMARK    1  A    between atoms: C_1  and  C_2
REMARK    2  A    between atoms: C_6  and  N_7
REMARK    3  A    between atoms: C_8  and  C_10
REMARK    4  A    between atoms: C_12  and  S_13
REMARK    5  A    between atoms: S_13  and  N_16
REMARK    6  A    between atoms: N_16  and  C_17
REMARK    7  A    between atoms: N_16  and  C_18
REMARK                            x       y       z     vdW  Elec       q    Type
REMARK                         _______ _______ _______ _____ _____    ______ ____
ROOT
ATOM      1  C   UNL     1       2.523   5.956  18.995  0.00  0.00    +0.000 A 
ATOM      2  C   UNL     1       3.511   6.546  18.169  0.00  0.00    +0.000 A 
ATOM      3  C   UNL     1       4.246   5.774  17.258  0.00  0.00    +0.000 A 
ATOM      4  C   UNL     1       4.033   4.395  17.199  0.00  0.00    +0.000 A 
ATOM      5  C   UNL     1       3.040   3.809  17.991  0.00  0.00    +0.000 A 
ATOM      6  C   UNL     1       2.273   4.583  18.874  0.00  0.00    +0.000 A 
ATOM      7 CL   UNL     1       1.027   3.753  19.739  0.00  0.00    +0.000 Cl
ENDROOT
BRANCH   1   9
ATOM      8  N   UNL     1       1.656   8.192  19.535  0.00  0.00    +0.000 N 
ATOM      9  C   UNL     1       1.804   6.876  19.933  0.00  0.00    +0.000 C 
ATOM     10  O   UNL     1       1.383   6.368  20.967  0.00  0.00    +0.000 OA
ATOM     11  H   UNL     1       2.088   8.491  18.674  0.00  0.00    +0.000 HD
BRANCH   8  17
ATOM     12  C   UNL     1      -0.235   9.676  23.694  0.00  0.00    +0.000 C 
ATOM     13  C   UNL     1       0.051   9.967  22.254  0.00  0.00    +0.000 A 
ATOM     14  C   UNL     1      -0.334  11.163  21.664  0.00  0.00    +0.000 A 
ATOM     15  C   UNL     1      -0.036  11.362  20.322  0.00  0.00    +0.000 A 
ATOM     16  C   UNL     1       0.630  10.362  19.612  0.00  0.00    +0.000 A 
ATOM     17  C   UNL     1       0.984   9.189  20.272  0.00  0.00    +0.000 A 
ATOM     18  N   UNL     1       0.698   8.996  21.569  0.00  0.00    +0.000 NA
ENDBRANCH   8  17
ENDBRANCH   1   9
BRANCH   3  19
ATOM     19  S   UNL     1       5.630   6.492  16.370  0.00  0.00    +0.000 S 
ATOM     20  O   UNL     1       5.075   7.114  15.188  0.00  0.00    +0.000 OA
ATOM     21  O   UNL     1       6.359   7.288  17.340  0.00  0.00    +0.000 OA
BRANCH  19  22
ATOM     22  N   UNL     1       6.597   5.193  15.898  0.00  0.00    +0.000 N 
ATOM     23  C   UNL     1       7.471   4.505  16.854  0.00  0.00    +0.000 C 
BRANCH  22  24
ATOM     24  C   UNL     1       6.683   4.797  14.532  0.00  0.00    +0.000 A 
ATOM     25  C   UNL     1       7.681   5.311  13.704  0.00  0.00    +0.000 A 
ATOM     26  C   UNL     1       7.856   4.788  12.419  0.00  0.00    +0.000 A 
ATOM     27  C   UNL     1       7.040   3.749  11.980  0.00  0.00    +0.000 A 
ATOM     28  F   UNL     1       7.233   3.227  10.762  0.00  0.00    +0.000 F 
ATOM     29  C   UNL     1       6.043   3.229  12.799  0.00  0.00    +0.000 A 
ATOM     30  C   UNL     1       5.861   3.755  14.083  0.00  0.00    +0.000 A 
ENDBRANCH  22  24
ENDBRANCH  19  22
ENDBRANCH   3  19
TORSDOF 5
ENDMDL
MODEL 9
REMARK VINA RESULT:      -8.0      2.885      3.969
REMARK  Name = 
REMARK  7 active torsions:
REMARK  status: ('A' for Active; 'I' for Inactive)
REMARK    1  A    between atoms: C_1  and  C_2
REMARK    2  A    between atoms: C_6  and  N_7
REMARK    3  A    between atoms: C_8  and  C_10
REMARK    4  A    between atoms: C_12  and  S_13
REMARK    5  A    between atoms: S_13  and  N_16
REMARK    6  A    between atoms: N_16  and  C_17
REMARK    7  A    between atoms: N_16  and  C_18
REMARK                            x       y       z     vdW  Elec       q    Type
REMARK                         _______ _______ _______ _____ _____    ______ ____
ROOT
ATOM      1  C   UNL     1       2.575   7.038  18.959  0.00  0.00    +0.000 A 
ATOM      2  C   UNL     1       3.555   7.315  17.974  0.00  0.00    +0.000 A 
ATOM      3  C   UNL     1       4.392   6.301  17.485  0.00  0.00    +0.000 A 
ATOM      4  C   UNL     1       4.290   5.012  18.011  0.00  0.00    +0.000 A 
ATOM      5  C   UNL     1       3.305   4.725  18.963  0.00  0.00    +0.000 A 
ATOM      6  C   UNL     1       2.438   5.725  19.426  0.00  0.00    +0.000 A 
ATOM      7 CL   UNL     1       1.217   5.225  20.544  0.00  0.00    +0.000 Cl
ENDROOT
BRANCH   1   9
ATOM      8  N   UNL     1       1.297   9.072  18.436  0.00  0.00    +0.000 N 
ATOM      9  C   UNL     1       1.741   8.197  19.411  0.00  0.00    +0.000 C 
ATOM     10  O   UNL     1       1.502   8.251  20.612  0.00  0.00    +0.000 OA
ATOM     11  H   UNL     1       1.603   8.935  17.485  0.00  0.00    +0.000 HD
BRANCH   8  17
ATOM     12  C   UNL     1      -3.009  11.178  18.127  0.00  0.00    +0.000 C 
ATOM     13  C   UNL     1      -1.577  11.273  18.552  0.00  0.00    +0.000 A 
ATOM     14  C   UNL     1      -1.069  12.422  19.143  0.00  0.00    +0.000 A 
ATOM     15  C   UNL     1       0.271  12.437  19.508  0.00  0.00    +0.000 A 
ATOM     16  C   UNL     1       1.061  11.313  19.267  0.00  0.00    +0.000 A 
ATOM     17  C   UNL     1       0.481  10.197  18.670  0.00  0.00    +0.000 A 
ATOM     18  N   UNL     1      -0.814  10.180  18.318  0.00  0.00    +0.000 NA
ENDBRANCH   8  17
ENDBRANCH   1   9
BRANCH   3  19
ATOM     19  S   UNL     1       5.761   6.703  16.395  0.00  0.00    +0.000 S 
ATOM     20  O   UNL     1       5.173   7.119  15.141  0.00  0.00    +0.000 OA
ATOM     21  O   UNL     1       6.612   7.612  17.140  0.00  0.00    +0.000 OA
BRANCH  19  22
ATOM     22  N   UNL     1       6.594   5.257  16.152  0.00  0.00    +0.000 N 
ATOM     23  C   UNL     1       7.282   4.577  17.254  0.00  0.00    +0.000 C 
BRANCH  22  24
ATOM     24  C   UNL     1       6.755   4.710  14.846  0.00  0.00    +0.000 A 
ATOM     25  C   UNL     1       5.848   3.772  14.351  0.00  0.00    +0.000 A 
ATOM     26  C   UNL     1       5.922   3.372  13.014  0.00  0.00    +0.000 A 
ATOM     27  C   UNL     1       6.893   3.923  12.182  0.00  0.00    +0.000 A 
ATOM     28  F   UNL     1       6.939   3.564  10.892  0.00  0.00    +0.000 F 
ATOM     29  C   UNL     1       7.800   4.859  12.665  0.00  0.00    +0.000 A 
ATOM     30  C   UNL     1       7.733   5.257  14.006  0.00  0.00    +0.000 A 
ENDBRANCH  22  24
ENDBRANCH  19  22
ENDBRANCH   3  19
TORSDOF 5
ENDMDL
