MODEL 1
REMARK VINA RESULT:      -7.5      0.000      0.000
REMARK  Name = 
REMARK  8 active torsions:
REMARK  status: ('A' for Active; 'I' for Inactive)
REMARK    1  A    between atoms: C_1  and  C_2
REMARK    2  A    between atoms: C_2  and  C_3
REMARK    3  A    between atoms: C_7  and  N_8
REMARK    4  A    between atoms: C_13  and  C_14
REMARK    5  A    between atoms: C_14  and  N_15
REMARK    6  A    between atoms: C_17  and  C_18
REMARK    7  A    between atoms: C_18  and  C_19
REMARK    8  A    between atoms: C_24  and  C_25
REMARK                            x       y       z     vdW  Elec       q    Type
REMARK                         _______ _______ _______ _____ _____    ______ ____
ROOT
ATOM      1  N   UNL     1      -0.401  11.039  18.214  0.00  0.00    +0.000 N 
ATOM      2  C   UNL     1       0.342  10.292  19.269  0.00  0.00    +0.000 C 
ATOM      3  C   UNL     1      -0.112  10.967  20.530  0.00  0.00    +0.000 A 
ATOM      4  C   UNL     1      -0.522  12.254  20.188  0.00  0.00    +0.000 A 
ATOM      5  C   UNL     1      -1.191  13.091  21.063  0.00  0.00    +0.000 A 
ATOM      6  C   UNL     1      -1.419  12.628  22.367  0.00  0.00    +0.000 A 
ATOM      7  C   UNL     1      -0.996  11.328  22.720  0.00  0.00    +0.000 A 
ATOM      8  C   UNL     1      -0.342  10.474  21.816  0.00  0.00    +0.000 A 
ATOM      9  C   UNL     1      -0.517  12.363  18.711  0.00  0.00    +0.000 C 
ATOM     10  O   UNL     1      -0.793  13.383  18.103  0.00  0.00    +0.000 OA
ENDROOT
BRANCH   1  15
ATOM     11  C   UNL     1      -3.911  11.220  17.557  0.00  0.00    +0.000 A 
ATOM     12  C   UNL     1      -3.793  10.821  16.219  0.00  0.00    +0.000 A 
ATOM     13  C   UNL     1      -2.765   9.968  15.839  0.00  0.00    +0.000 A 
ATOM     14  C   UNL     1      -1.783   9.631  16.759  0.00  0.00    +0.000 A 
ATOM     15  C   UNL     1      -1.685  10.394  17.932  0.00  0.00    +0.000 A 
ATOM     16  C   UNL     1      -2.837  11.011  18.423  0.00  0.00    +0.000 A 
BRANCH  11  18
ATOM     17  C   UNL     1      -6.273  10.981  18.387  0.00  0.00    +0.000 C 
ATOM     18  C   UNL     1      -5.153  11.934  18.014  0.00  0.00    +0.000 C 
ENDBRANCH  11  18
ENDBRANCH   1  15
BRANCH   8  19
ATOM     19  C   UNL     1       0.003   9.058  22.241  0.00  0.00    +0.000 C 
ATOM     20  F   UNL     1       1.274   8.698  21.987  0.00  0.00    +0.000 F 
ATOM     21  F   UNL     1      -0.184   8.881  23.580  0.00  0.00    +0.000 F 
ATOM     22  F   UNL     1      -0.792   8.132  21.626  0.00  0.00    +0.000 F 
ENDBRANCH   8  19
BRANCH   6  23
ATOM     23  C   UNL     1      -2.134  13.500  23.376  0.00  0.00    +0.000 C 
BRANCH  23  24
ATOM     24  N   UNL     1      -3.502  13.912  22.955  0.00  0.00    +0.000 NA
ATOM     25  C   UNL     1      -4.360  12.710  22.806  0.00  0.00    +0.000 C 
ATOM     26  C   UNL     1      -5.861  13.012  22.662  0.00  0.00    +0.000 C 
ATOM     27  C   UNL     1      -6.273  13.921  23.822  0.00  0.00    +0.000 C 
ATOM     28  C   UNL     1      -5.419  15.182  23.823  0.00  0.00    +0.000 C 
ATOM     29  N   UNL     1      -3.997  14.866  23.962  0.00  0.00    +0.000 NA
ATOM     30  H   UNL     1      -3.796  14.583  24.924  0.00  0.00    +0.000 HD
BRANCH  26  31
ATOM     31  C   UNL     1      -6.175  13.584  21.264  0.00  0.00    +0.000 C 
ATOM     32  C   UNL     1      -7.646  13.916  21.066  0.00  0.00    +0.000 C 
ENDBRANCH  26  31
ENDBRANCH  23  24
ENDBRANCH   6  23
TORSDOF 6
ENDMDL
MODEL 2
REMARK VINA RESULT:      -7.3      0.583      1.024
REMARK  Name = 
REMARK  8 active torsions:
REMARK  status: ('A' for Active; 'I' for Inactive)
REMARK    1  A    between atoms: C_1  and  C_2
REMARK    2  A    between atoms: C_2  and  C_3
REMARK    3  A    between atoms: C_7  and  N_8
REMARK    4  A    between atoms: C_13  and  C_14
REMARK    5  A    between atoms: C_14  and  N_15
REMARK    6  A    between atoms: C_17  and  C_18
REMARK    7  A    between atoms: C_18  and  C_19
REMARK    8  A    between atoms: C_24  and  C_25
REMARK                            x       y       z     vdW  Elec       q    Type
REMARK                         _______ _______ _______ _____ _____    ______ ____
ROOT
ATOM      1  N   UNL     1      -0.445  11.062  18.290  0.00  0.00    +0.000 N 
ATOM      2  C   UNL     1       0.284  10.302  19.345  0.00  0.00    +0.000 C 
ATOM      3  C   UNL     1      -0.114  11.020  20.600  0.00  0.00    +0.000 A 
ATOM      4  C   UNL     1      -0.474  12.318  20.241  0.00  0.00    +0.000 A 
ATOM      5  C   UNL     1      -1.087  13.201  21.112  0.00  0.00    +0.000 A 
ATOM      6  C   UNL     1      -1.311  12.772  22.428  0.00  0.00    +0.000 A 
ATOM      7  C   UNL     1      -0.940  11.462  22.799  0.00  0.00    +0.000 A 
ATOM      8  C   UNL     1      -0.342  10.562  21.900  0.00  0.00    +0.000 A 
ATOM      9  C   UNL     1      -0.492  12.399  18.763  0.00  0.00    +0.000 C 
ATOM     10  O   UNL     1      -0.734  13.418  18.140  0.00  0.00    +0.000 OA
ENDROOT
BRANCH   1  15
ATOM     11  C   UNL     1      -3.954  11.389  17.684  0.00  0.00    +0.000 A 
ATOM     12  C   UNL     1      -3.877  10.954  16.355  0.00  0.00    +0.000 A 
ATOM     13  C   UNL     1      -2.896  10.046  15.979  0.00  0.00    +0.000 A 
ATOM     14  C   UNL     1      -1.914   9.685  16.892  0.00  0.00    +0.000 A 
ATOM     15  C   UNL     1      -1.762  10.470  18.044  0.00  0.00    +0.000 A 
ATOM     16  C   UNL     1      -2.875  11.151  18.538  0.00  0.00    +0.000 A 
BRANCH  11  18
ATOM     17  C   UNL     1      -6.417  11.331  18.189  0.00  0.00    +0.000 C 
ATOM     18  C   UNL     1      -5.153  12.170  18.145  0.00  0.00    +0.000 C 
ENDBRANCH  11  18
ENDBRANCH   1  15
BRANCH   8  19
ATOM     19  C   UNL     1      -0.052   9.140  22.346  0.00  0.00    +0.000 C 
ATOM     20  F   UNL     1      -0.819   8.207  21.753  0.00  0.00    +0.000 F 
ATOM     21  F   UNL     1       1.241   8.792  22.088  0.00  0.00    +0.000 F 
ATOM     22  F   UNL     1      -0.221   8.983  23.693  0.00  0.00    +0.000 F 
ENDBRANCH   8  19
BRANCH   6  23
ATOM     23  C   UNL     1      -1.966  13.695  23.434  0.00  0.00    +0.000 C 
BRANCH  23  24
ATOM     24  N   UNL     1      -3.262  14.267  22.971  0.00  0.00    +0.000 NA
ATOM     25  C   UNL     1      -4.382  13.598  23.678  0.00  0.00    +0.000 C 
ATOM     26  C   UNL     1      -5.745  14.290  23.511  0.00  0.00    +0.000 C 
ATOM     27  C   UNL     1      -5.575  15.764  23.886  0.00  0.00    +0.000 C 
ATOM     28  C   UNL     1      -4.488  16.397  23.027  0.00  0.00    +0.000 C 
ATOM     29  N   UNL     1      -3.203  15.720  23.206  0.00  0.00    +0.000 NA
ATOM     30  H   UNL     1      -2.801  15.969  24.113  0.00  0.00    +0.000 HD
BRANCH  26  31
ATOM     31  C   UNL     1      -6.311  14.055  22.095  0.00  0.00    +0.000 C 
ATOM     32  C   UNL     1      -6.432  12.583  21.732  0.00  0.00    +0.000 C 
ENDBRANCH  26  31
ENDBRANCH  23  24
ENDBRANCH   6  23
TORSDOF 6
ENDMDL
MODEL 3
REMARK VINA RESULT:      -7.3      3.372      7.707
REMARK  Name = 
REMARK  8 active torsions:
REMARK  status: ('A' for Active; 'I' for Inactive)
REMARK    1  A    between atoms: C_1  and  C_2
REMARK    2  A    between atoms: C_2  and  C_3
REMARK    3  A    between atoms: C_7  and  N_8
REMARK    4  A    between atoms: C_13  and  C_14
REMARK    5  A    between atoms: C_14  and  N_15
REMARK    6  A    between atoms: C_17  and  C_18
REMARK    7  A    between atoms: C_18  and  C_19
REMARK    8  A    between atoms: C_24  and  C_25
REMARK                            x       y       z     vdW  Elec       q    Type
REMARK                         _______ _______ _______ _____ _____    ______ ____
ROOT
ATOM      1  N   UNL     1      -2.045  11.849  19.014  0.00  0.00    +0.000 N 
ATOM      2  C   UNL     1      -1.904  10.944  20.190  0.00  0.00    +0.000 C 
ATOM      3  C   UNL     1      -0.726  10.095  19.810  0.00  0.00    +0.000 A 
ATOM      4  C   UNL     1      -0.642  10.099  18.419  0.00  0.00    +0.000 A 
ATOM      5  C   UNL     1       0.442   9.589  17.726  0.00  0.00    +0.000 A 
ATOM      6  C   UNL     1       1.476   9.001  18.469  0.00  0.00    +0.000 A 
ATOM      7  C   UNL     1       1.389   8.986  19.877  0.00  0.00    +0.000 A 
ATOM      8  C   UNL     1       0.298   9.532  20.575  0.00  0.00    +0.000 A 
ATOM      9  C   UNL     1      -1.625  11.077  17.900  0.00  0.00    +0.000 C 
ATOM     10  O   UNL     1      -1.818  11.285  16.714  0.00  0.00    +0.000 OA
ENDROOT
BRANCH   1  15
ATOM     11  C   UNL     1      -0.092  14.014  21.086  0.00  0.00    +0.000 A 
ATOM     12  C   UNL     1       1.108  13.762  20.408  0.00  0.00    +0.000 A 
ATOM     13  C   UNL     1       1.086  13.454  19.054  0.00  0.00    +0.000 A 
ATOM     14  C   UNL     1      -0.131  13.261  18.417  0.00  0.00    +0.000 A 
ATOM     15  C   UNL     1      -1.272  13.078  19.213  0.00  0.00    +0.000 A 
ATOM     16  C   UNL     1      -1.299  13.657  20.482  0.00  0.00    +0.000 A 
BRANCH  11  18
ATOM     17  C   UNL     1      -1.140  14.016  23.372  0.00  0.00    +0.000 C 
ATOM     18  C   UNL     1      -0.057  14.586  22.476  0.00  0.00    +0.000 C 
ENDBRANCH  11  18
ENDBRANCH   1  15
BRANCH   8  19
ATOM     19  C   UNL     1       0.317   9.559  22.093  0.00  0.00    +0.000 C 
ATOM     20  F   UNL     1      -0.641   8.814  22.672  0.00  0.00    +0.000 F 
ATOM     21  F   UNL     1       1.505   9.103  22.583  0.00  0.00    +0.000 F 
ATOM     22  F   UNL     1       0.173  10.827  22.582  0.00  0.00    +0.000 F 
ENDBRANCH   8  19
BRANCH   6  23
ATOM     23  C   UNL     1       2.682   8.412  17.770  0.00  0.00    +0.000 C 
BRANCH  23  24
ATOM     24  N   UNL     1       3.088   7.077  18.291  0.00  0.00    +0.000 NA
ATOM     25  C   UNL     1       1.997   6.098  18.058  0.00  0.00    +0.000 C 
ATOM     26  C   UNL     1       2.398   4.631  18.281  0.00  0.00    +0.000 C 
ATOM     27  C   UNL     1       3.658   4.355  17.457  0.00  0.00    +0.000 C 
ATOM     28  C   UNL     1       4.760   5.330  17.850  0.00  0.00    +0.000 C 
ATOM     29  N   UNL     1       4.352   6.717  17.626  0.00  0.00    +0.000 NA
ATOM     30  H   UNL     1       4.358   6.925  16.625  0.00  0.00    +0.000 HD
BRANCH  26  31
ATOM     31  C   UNL     1       2.543   4.324  19.786  0.00  0.00    +0.000 C 
ATOM     32  C   UNL     1       1.263   4.555  20.574  0.00  0.00    +0.000 C 
ENDBRANCH  26  31
ENDBRANCH  23  24
ENDBRANCH   6  23
TORSDOF 6
ENDMDL
MODEL 4
REMARK VINA RESULT:      -7.2      0.732      1.116
REMARK  Name = 
REMARK  8 active torsions:
REMARK  status: ('A' for Active; 'I' for Inactive)
REMARK    1  A    between atoms: C_1  and  C_2
REMARK    2  A    between atoms: C_2  and  C_3
REMARK    3  A    between atoms: C_7  and  N_8
REMARK    4  A    between atoms: C_13  and  C_14
REMARK    5  A    between atoms: C_14  and  N_15
REMARK    6  A    between atoms: C_17  and  C_18
REMARK    7  A    between atoms: C_18  and  C_19
REMARK    8  A    between atoms: C_24  and  C_25
REMARK                            x       y       z     vdW  Elec       q    Type
REMARK                         _______ _______ _______ _____ _____    ______ ____
ROOT
ATOM      1  N   UNL     1      -0.494  11.477  18.647  0.00  0.00    +0.000 N 
ATOM      2  C   UNL     1       0.258  10.768  19.722  0.00  0.00    +0.000 C 
ATOM      3  C   UNL     1      -0.357  11.325  20.973  0.00  0.00    +0.000 A 
ATOM      4  C   UNL     1      -0.891  12.572  20.655  0.00  0.00    +0.000 A 
ATOM      5  C   UNL     1      -1.711  13.284  21.512  0.00  0.00    +0.000 A 
ATOM      6  C   UNL     1      -1.972  12.733  22.775  0.00  0.00    +0.000 A 
ATOM      7  C   UNL     1      -1.425  11.475  23.105  0.00  0.00    +0.000 A 
ATOM      8  C   UNL     1      -0.615  10.746  22.217  0.00  0.00    +0.000 A 
ATOM      9  C   UNL     1      -0.798  12.754  19.188  0.00  0.00    +0.000 C 
ATOM     10  O   UNL     1      -1.149  13.764  18.604  0.00  0.00    +0.000 OA
ENDROOT
BRANCH   1  15
ATOM     11  C   UNL     1      -3.835  11.304  17.383  0.00  0.00    +0.000 A 
ATOM     12  C   UNL     1      -3.459  10.744  16.156  0.00  0.00    +0.000 A 
ATOM     13  C   UNL     1      -2.337   9.929  16.081  0.00  0.00    +0.000 A 
ATOM     14  C   UNL     1      -1.519   9.790  17.193  0.00  0.00    +0.000 A 
ATOM     15  C   UNL     1      -1.672  10.706  18.245  0.00  0.00    +0.000 A 
ATOM     16  C   UNL     1      -2.923  11.292  18.440  0.00  0.00    +0.000 A 
BRANCH  11  18
ATOM     17  C   UNL     1      -6.150  11.174  18.358  0.00  0.00    +0.000 C 
ATOM     18  C   UNL     1      -5.173  11.975  17.517  0.00  0.00    +0.000 C 
ENDBRANCH  11  18
ENDBRANCH   1  15
BRANCH   8  19
ATOM     19  C   UNL     1      -0.137   9.359  22.607  0.00  0.00    +0.000 C 
ATOM     20  F   UNL     1      -0.170   9.113  23.929  0.00  0.00    +0.000 F 
ATOM     21  F   UNL     1      -0.893   8.388  22.020  0.00  0.00    +0.000 F 
ATOM     22  F   UNL     1       1.148   9.129  22.202  0.00  0.00    +0.000 F 
ENDBRANCH   8  19
BRANCH   6  23
ATOM     23  C   UNL     1      -2.851  13.469  23.765  0.00  0.00    +0.000 C 
BRANCH  23  24
ATOM     24  N   UNL     1      -4.224  13.748  23.259  0.00  0.00    +0.000 NA
ATOM     25  C   UNL     1      -4.583  12.754  22.218  0.00  0.00    +0.000 C 
ATOM     26  C   UNL     1      -6.070  12.750  21.826  0.00  0.00    +0.000 C 
ATOM     27  C   UNL     1      -6.896  12.622  23.109  0.00  0.00    +0.000 C 
ATOM     28  C   UNL     1      -6.545  13.753  24.068  0.00  0.00    +0.000 C 
ATOM     29  N   UNL     1      -5.126  13.732  24.423  0.00  0.00    +0.000 NA
ATOM     30  H   UNL     1      -4.940  12.963  25.071  0.00  0.00    +0.000 HD
BRANCH  26  31
ATOM     31  C   UNL     1      -6.416  13.985  20.968  0.00  0.00    +0.000 C 
ATOM     32  C   UNL     1      -5.262  14.453  20.095  0.00  0.00    +0.000 C 
ENDBRANCH  26  31
ENDBRANCH  23  24
ENDBRANCH   6  23
TORSDOF 6
ENDMDL
MODEL 5
REMARK VINA RESULT:      -7.1      0.692      1.421
REMARK  Name = 
REMARK  8 active torsions:
REMARK  status: ('A' for Active; 'I' for Inactive)
REMARK    1  A    between atoms: C_1  and  C_2
REMARK    2  A    between atoms: C_2  and  C_3
REMARK    3  A    between atoms: C_7  and  N_8
REMARK    4  A    between atoms: C_13  and  C_14
REMARK    5  A    between atoms: C_14  and  N_15
REMARK    6  A    between atoms: C_17  and  C_18
REMARK    7  A    between atoms: C_18  and  C_19
REMARK    8  A    between atoms: C_24  and  C_25
REMARK                            x       y       z     vdW  Elec       q    Type
REMARK                         _______ _______ _______ _____ _____    ______ ____
ROOT
ATOM      1  N   UNL     1      -0.443  11.138  18.329  0.00  0.00    +0.000 N 
ATOM      2  C   UNL     1       0.300  10.387  19.380  0.00  0.00    +0.000 C 
ATOM      3  C   UNL     1      -0.148  11.062  20.644  0.00  0.00    +0.000 A 
ATOM      4  C   UNL     1      -0.556  12.351  20.304  0.00  0.00    +0.000 A 
ATOM      5  C   UNL     1      -1.221  13.189  21.182  0.00  0.00    +0.000 A 
ATOM      6  C   UNL     1      -1.446  12.724  22.486  0.00  0.00    +0.000 A 
ATOM      7  C   UNL     1      -1.026  11.424  22.836  0.00  0.00    +0.000 A 
ATOM      8  C   UNL     1      -0.376  10.568  21.930  0.00  0.00    +0.000 A 
ATOM      9  C   UNL     1      -0.555  12.462  18.828  0.00  0.00    +0.000 C 
ATOM     10  O   UNL     1      -0.830  13.483  18.221  0.00  0.00    +0.000 OA
ENDROOT
BRANCH   1  15
ATOM     11  C   UNL     1      -3.935  11.332  17.581  0.00  0.00    +0.000 A 
ATOM     12  C   UNL     1      -3.793  10.865  16.268  0.00  0.00    +0.000 A 
ATOM     13  C   UNL     1      -2.769   9.980  15.956  0.00  0.00    +0.000 A 
ATOM     14  C   UNL     1      -1.813   9.676  16.915  0.00  0.00    +0.000 A 
ATOM     15  C   UNL     1      -1.731  10.497  18.049  0.00  0.00    +0.000 A 
ATOM     16  C   UNL     1      -2.884  11.153  18.481  0.00  0.00    +0.000 A 
BRANCH  11  18
ATOM     17  C   UNL     1      -6.350  11.169  18.263  0.00  0.00    +0.000 C 
ATOM     18  C   UNL     1      -5.176  12.085  17.973  0.00  0.00    +0.000 C 
ENDBRANCH  11  18
ENDBRANCH   1  15
BRANCH   8  19
ATOM     19  C   UNL     1      -0.034   9.151  22.352  0.00  0.00    +0.000 C 
ATOM     20  F   UNL     1       1.228   8.778  22.069  0.00  0.00    +0.000 F 
ATOM     21  F   UNL     1      -0.190   8.980  23.695  0.00  0.00    +0.000 F 
ATOM     22  F   UNL     1      -0.852   8.230  21.760  0.00  0.00    +0.000 F 
ENDBRANCH   8  19
BRANCH   6  23
ATOM     23  C   UNL     1      -2.156  13.598  23.499  0.00  0.00    +0.000 C 
BRANCH  23  24
ATOM     24  N   UNL     1      -3.616  13.747  23.247  0.00  0.00    +0.000 NA
ATOM     25  C   UNL     1      -3.872  15.024  22.537  0.00  0.00    +0.000 C 
ATOM     26  C   UNL     1      -5.292  15.161  21.962  0.00  0.00    +0.000 C 
ATOM     27  C   UNL     1      -5.580  13.919  21.115  0.00  0.00    +0.000 C 
ATOM     28  C   UNL     1      -5.409  12.663  21.960  0.00  0.00    +0.000 C 
ATOM     29  N   UNL     1      -4.050  12.558  22.493  0.00  0.00    +0.000 NA
ATOM     30  H   UNL     1      -3.403  12.291  21.748  0.00  0.00    +0.000 HD
BRANCH  26  31
ATOM     31  C   UNL     1      -6.318  15.417  23.085  0.00  0.00    +0.000 C 
ATOM     32  C   UNL     1      -5.788  16.318  24.190  0.00  0.00    +0.000 C 
ENDBRANCH  26  31
ENDBRANCH  23  24
ENDBRANCH   6  23
TORSDOF 6
ENDMDL
MODEL 6
REMARK VINA RESULT:      -7.1      3.616      7.803
REMARK  Name = 
REMARK  8 active torsions:
REMARK  status: ('A' for Active; 'I' for Inactive)
REMARK    1  A    between atoms: C_1  and  C_2
REMARK    2  A    between atoms: C_2  and  C_3
REMARK    3  A    between atoms: C_7  and  N_8
REMARK    4  A    between atoms: C_13  and  C_14
REMARK    5  A    between atoms: C_14  and  N_15
REMARK    6  A    between atoms: C_17  and  C_18
REMARK    7  A    between atoms: C_18  and  C_19
REMARK    8  A    between atoms: C_24  and  C_25
REMARK                            x       y       z     vdW  Elec       q    Type
REMARK                         _______ _______ _______ _____ _____    ______ ____
ROOT
ATOM      1  N   UNL     1      -1.967  12.107  19.023  0.00  0.00    +0.000 N 
ATOM      2  C   UNL     1      -1.947  11.289  20.269  0.00  0.00    +0.000 C 
ATOM      3  C   UNL     1      -0.830  10.322  20.008  0.00  0.00    +0.000 A 
ATOM      4  C   UNL     1      -0.692  10.209  18.626  0.00  0.00    +0.000 A 
ATOM      5  C   UNL     1       0.371   9.561  18.023  0.00  0.00    +0.000 A 
ATOM      6  C   UNL     1       1.323   8.953  18.854  0.00  0.00    +0.000 A 
ATOM      7  C   UNL     1       1.182   9.057  20.254  0.00  0.00    +0.000 A 
ATOM      8  C   UNL     1       0.113   9.742  20.858  0.00  0.00    +0.000 A 
ATOM      9  C   UNL     1      -1.570  11.218  17.991  0.00  0.00    +0.000 C 
ATOM     10  O   UNL     1      -1.700  11.346  16.785  0.00  0.00    +0.000 OA
ENDROOT
BRANCH   1  15
ATOM     11  C   UNL     1       0.157  14.211  20.986  0.00  0.00    +0.000 A 
ATOM     12  C   UNL     1       1.330  13.839  20.315  0.00  0.00    +0.000 A 
ATOM     13  C   UNL     1       1.275  13.473  18.976  0.00  0.00    +0.000 A 
ATOM     14  C   UNL     1       0.041  13.343  18.354  0.00  0.00    +0.000 A 
ATOM     15  C   UNL     1      -1.104  13.282  19.162  0.00  0.00    +0.000 A 
ATOM     16  C   UNL     1      -1.077  13.919  20.404  0.00  0.00    +0.000 A 
BRANCH  11  18
ATOM     17  C   UNL     1      -0.933  14.485  23.236  0.00  0.00    +0.000 C 
ATOM     18  C   UNL     1       0.246  14.840  22.348  0.00  0.00    +0.000 C 
ENDBRANCH  11  18
ENDBRANCH   1  15
BRANCH   8  19
ATOM     19  C   UNL     1       0.076   9.888  22.369  0.00  0.00    +0.000 C 
ATOM     20  F   UNL     1      -0.118  11.148  22.799  0.00  0.00    +0.000 F 
ATOM     21  F   UNL     1      -0.923   9.138  22.917  0.00  0.00    +0.000 F 
ATOM     22  F   UNL     1       1.233   9.453  22.953  0.00  0.00    +0.000 F 
ENDBRANCH   8  19
BRANCH   6  23
ATOM     23  C   UNL     1       2.503   8.217  18.256  0.00  0.00    +0.000 C 
BRANCH  23  24
ATOM     24  N   UNL     1       2.443   6.739  18.435  0.00  0.00    +0.000 NA
ATOM     25  C   UNL     1       3.461   6.091  17.571  0.00  0.00    +0.000 C 
ATOM     26  C   UNL     1       3.701   4.603  17.875  0.00  0.00    +0.000 C 
ATOM     27  C   UNL     1       3.990   4.468  19.372  0.00  0.00    +0.000 C 
ATOM     28  C   UNL     1       2.837   5.052  20.178  0.00  0.00    +0.000 C 
ATOM     29  N   UNL     1       2.632   6.467  19.870  0.00  0.00    +0.000 NA
ATOM     30  H   UNL     1       3.373   7.028  20.296  0.00  0.00    +0.000 HD
BRANCH  26  31
ATOM     31  C   UNL     1       2.522   3.742  17.374  0.00  0.00    +0.000 C 
ATOM     32  C   UNL     1       2.676   2.264  17.700  0.00  0.00    +0.000 C 
ENDBRANCH  26  31
ENDBRANCH  23  24
ENDBRANCH   6  23
TORSDOF 6
ENDMDL
MODEL 7
REMARK VINA RESULT:      -7.1      3.535      7.769
REMARK  Name = 
REMARK  8 active torsions:
REMARK  status: ('A' for Active; 'I' for Inactive)
REMARK    1  A    between atoms: C_1  and  C_2
REMARK    2  A    between atoms: C_2  and  C_3
REMARK    3  A    between atoms: C_7  and  N_8
REMARK    4  A    between atoms: C_13  and  C_14
REMARK    5  A    between atoms: C_14  and  N_15
REMARK    6  A    between atoms: C_17  and  C_18
REMARK    7  A    between atoms: C_18  and  C_19
REMARK    8  A    between atoms: C_24  and  C_25
REMARK                            x       y       z     vdW  Elec       q    Type
REMARK                         _______ _______ _______ _____ _____    ______ ____
ROOT
ATOM      1  N   UNL     1      -1.324  13.127  19.688  0.00  0.00    +0.000 N 
ATOM      2  C   UNL     1      -1.826  12.559  18.405  0.00  0.00    +0.000 C 
ATOM      3  C   UNL     1      -0.829  11.476  18.113  0.00  0.00    +0.000 A 
ATOM      4  C   UNL     1       0.353  11.811  18.770  0.00  0.00    +0.000 A 
ATOM      5  C   UNL     1       1.424  10.943  18.891  0.00  0.00    +0.000 A 
ATOM      6  C   UNL     1       1.317   9.685  18.280  0.00  0.00    +0.000 A 
ATOM      7  C   UNL     1       0.125   9.345  17.606  0.00  0.00    +0.000 A 
ATOM      8  C   UNL     1      -0.968  10.224  17.511  0.00  0.00    +0.000 A 
ATOM      9  C   UNL     1       0.088  12.990  19.627  0.00  0.00    +0.000 C 
ATOM     10  O   UNL     1       0.936  13.546  20.301  0.00  0.00    +0.000 OA
ENDROOT
BRANCH   1  15
ATOM     11  C   UNL     1      -1.067  11.145  22.654  0.00  0.00    +0.000 A 
ATOM     12  C   UNL     1      -1.412  12.193  23.517  0.00  0.00    +0.000 A 
ATOM     13  C   UNL     1      -2.262  13.200  23.078  0.00  0.00    +0.000 A 
ATOM     14  C   UNL     1      -2.651  13.233  21.747  0.00  0.00    +0.000 A 
ATOM     15  C   UNL     1      -1.938  12.445  20.830  0.00  0.00    +0.000 A 
ATOM     16  C   UNL     1      -1.326  11.279  21.289  0.00  0.00    +0.000 A 
BRANCH  11  18
ATOM     17  C   UNL     1      -0.259   8.810  22.186  0.00  0.00    +0.000 C 
ATOM     18  C   UNL     1      -0.356   9.937  23.197  0.00  0.00    +0.000 C 
ENDBRANCH  11  18
ENDBRANCH   1  15
BRANCH   8  19
ATOM     19  C   UNL     1      -2.250   9.755  16.848  0.00  0.00    +0.000 C 
ATOM     20  F   UNL     1      -2.078   8.779  15.938  0.00  0.00    +0.000 F 
ATOM     21  F   UNL     1      -3.136   9.270  17.764  0.00  0.00    +0.000 F 
ATOM     22  F   UNL     1      -2.896  10.774  16.206  0.00  0.00    +0.000 F 
ENDBRANCH   8  19
BRANCH   6  23
ATOM     23  C   UNL     1       2.458   8.693  18.364  0.00  0.00    +0.000 C 
BRANCH  23  24
ATOM     24  N   UNL     1       2.027   7.305  18.690  0.00  0.00    +0.000 NA
ATOM     25  C   UNL     1       2.907   6.333  17.996  0.00  0.00    +0.000 C 
ATOM     26  C   UNL     1       2.756   4.880  18.475  0.00  0.00    +0.000 C 
ATOM     27  C   UNL     1       2.908   4.868  19.999  0.00  0.00    +0.000 C 
ATOM     28  C   UNL     1       1.885   5.802  20.631  0.00  0.00    +0.000 C 
ATOM     29  N   UNL     1       2.052   7.177  20.157  0.00  0.00    +0.000 NA
ATOM     30  H   UNL     1       2.880   7.596  20.588  0.00  0.00    +0.000 HD
BRANCH  26  31
ATOM     31  C   UNL     1       1.437   4.267  17.963  0.00  0.00    +0.000 C 
ATOM     32  C   UNL     1       1.148   2.891  18.543  0.00  0.00    +0.000 C 
ENDBRANCH  26  31
ENDBRANCH  23  24
ENDBRANCH   6  23
TORSDOF 6
ENDMDL
MODEL 8
REMARK VINA RESULT:      -7.0      3.784      6.002
REMARK  Name = 
REMARK  8 active torsions:
REMARK  status: ('A' for Active; 'I' for Inactive)
REMARK    1  A    between atoms: C_1  and  C_2
REMARK    2  A    between atoms: C_2  and  C_3
REMARK    3  A    between atoms: C_7  and  N_8
REMARK    4  A    between atoms: C_13  and  C_14
REMARK    5  A    between atoms: C_14  and  N_15
REMARK    6  A    between atoms: C_17  and  C_18
REMARK    7  A    between atoms: C_18  and  C_19
REMARK    8  A    between atoms: C_24  and  C_25
REMARK                            x       y       z     vdW  Elec       q    Type
REMARK                         _______ _______ _______ _____ _____    ______ ____
ROOT
ATOM      1  N   UNL     1       2.509   7.521  19.388  0.00  0.00    +0.000 N 
ATOM      2  C   UNL     1       2.168   8.279  20.625  0.00  0.00    +0.000 C 
ATOM      3  C   UNL     1       1.036   9.153  20.173  0.00  0.00    +0.000 A 
ATOM      4  C   UNL     1       1.159   9.313  18.794  0.00  0.00    +0.000 A 
ATOM      5  C   UNL     1       0.176   9.890  18.009  0.00  0.00    +0.000 A 
ATOM      6  C   UNL     1      -0.973  10.373  18.650  0.00  0.00    +0.000 A 
ATOM      7  C   UNL     1      -1.098  10.222  20.048  0.00  0.00    +0.000 A 
ATOM      8  C   UNL     1      -0.107   9.610  20.834  0.00  0.00    +0.000 A 
ATOM      9  C   UNL     1       2.236   8.415  18.320  0.00  0.00    +0.000 C 
ATOM     10  O   UNL     1       2.610   8.353  17.161  0.00  0.00    +0.000 OA
ENDROOT
BRANCH   1  15
ATOM     11  C   UNL     1       2.259   4.060  18.522  0.00  0.00    +0.000 A 
ATOM     12  C   UNL     1       2.243   3.615  19.851  0.00  0.00    +0.000 A 
ATOM     13  C   UNL     1       1.702   4.421  20.844  0.00  0.00    +0.000 A 
ATOM     14  C   UNL     1       1.310   5.716  20.535  0.00  0.00    +0.000 A 
ATOM     15  C   UNL     1       1.751   6.269  19.324  0.00  0.00    +0.000 A 
ATOM     16  C   UNL     1       2.018   5.409  18.257  0.00  0.00    +0.000 A 
BRANCH  11  18
ATOM     17  C   UNL     1       3.273   1.836  17.932  0.00  0.00    +0.000 C 
ATOM     18  C   UNL     1       2.611   3.101  17.420  0.00  0.00    +0.000 C 
ENDBRANCH  11  18
ENDBRANCH   1  15
BRANCH   8  19
ATOM     19  C   UNL     1      -0.350   9.402  22.318  0.00  0.00    +0.000 C 
ATOM     20  F   UNL     1       0.760   9.461  23.075  0.00  0.00    +0.000 F 
ATOM     21  F   UNL     1      -1.204  10.340  22.818  0.00  0.00    +0.000 F 
ATOM     22  F   UNL     1      -0.932   8.192  22.575  0.00  0.00    +0.000 F 
ENDBRANCH   8  19
BRANCH   6  23
ATOM     23  C   UNL     1      -2.080  11.028  17.850  0.00  0.00    +0.000 C 
BRANCH  23  24
ATOM     24  N   UNL     1      -3.360  11.172  18.599  0.00  0.00    +0.000 NA
ATOM     25  C   UNL     1      -3.521  12.578  19.044  0.00  0.00    +0.000 C 
ATOM     26  C   UNL     1      -4.924  12.924  19.568  0.00  0.00    +0.000 C 
ATOM     27  C   UNL     1      -5.943  12.494  18.509  0.00  0.00    +0.000 C 
ATOM     28  C   UNL     1      -5.781  11.011  18.204  0.00  0.00    +0.000 C 
ATOM     29  N   UNL     1      -4.437  10.711  17.707  0.00  0.00    +0.000 NA
ATOM     30  H   UNL     1      -4.339  11.043  16.745  0.00  0.00    +0.000 HD
BRANCH  26  31
ATOM     31  C   UNL     1      -5.158  12.307  20.962  0.00  0.00    +0.000 C 
ATOM     32  C   UNL     1      -4.096  12.697  21.979  0.00  0.00    +0.000 C 
ENDBRANCH  26  31
ENDBRANCH  23  24
ENDBRANCH   6  23
TORSDOF 6
ENDMDL
MODEL 9
REMARK VINA RESULT:      -7.0      3.404      7.426
REMARK  Name = 
REMARK  8 active torsions:
REMARK  status: ('A' for Active; 'I' for Inactive)
REMARK    1  A    between atoms: C_1  and  C_2
REMARK    2  A    between atoms: C_2  and  C_3
REMARK    3  A    between atoms: C_7  and  N_8
REMARK    4  A    between atoms: C_13  and  C_14
REMARK    5  A    between atoms: C_14  and  N_15
REMARK    6  A    between atoms: C_17  and  C_18
REMARK    7  A    between atoms: C_18  and  C_19
REMARK    8  A    between atoms: C_24  and  C_25
REMARK                            x       y       z     vdW  Elec       q    Type
REMARK                         _______ _______ _______ _____ _____    ______ ____
ROOT
ATOM      1  N   UNL     1      -0.216  14.140  20.385  0.00  0.00    +0.000 N 
ATOM      2  C   UNL     1      -0.734  13.481  19.152  0.00  0.00    +0.000 C 
ATOM      3  C   UNL     1      -0.376  12.041  19.376  0.00  0.00    +0.000 A 
ATOM      4  C   UNL     1       0.701  12.012  20.259  0.00  0.00    +0.000 A 
ATOM      5  C   UNL     1       1.165  10.848  20.847  0.00  0.00    +0.000 A 
ATOM      6  C   UNL     1       0.541   9.643  20.495  0.00  0.00    +0.000 A 
ATOM      7  C   UNL     1      -0.545   9.667  19.594  0.00  0.00    +0.000 A 
ATOM      8  C   UNL     1      -1.027  10.857  19.022  0.00  0.00    +0.000 A 
ATOM      9  C   UNL     1       0.931  13.389  20.753  0.00  0.00    +0.000 C 
ATOM     10  O   UNL     1       1.831  13.698  21.514  0.00  0.00    +0.000 OA
ENDROOT
BRANCH   1  15
ATOM     11  C   UNL     1      -3.457  13.249  21.606  0.00  0.00    +0.000 A 
ATOM     12  C   UNL     1      -2.968  12.395  22.603  0.00  0.00    +0.000 A 
ATOM     13  C   UNL     1      -1.734  12.647  23.187  0.00  0.00    +0.000 A 
ATOM     14  C   UNL     1      -0.934  13.662  22.680  0.00  0.00    +0.000 A 
ATOM     15  C   UNL     1      -1.253  14.188  21.420  0.00  0.00    +0.000 A 
ATOM     16  C   UNL     1      -2.583  14.152  21.000  0.00  0.00    +0.000 A 
BRANCH  11  18
ATOM     17  C   UNL     1      -5.842  12.848  22.298  0.00  0.00    +0.000 C 
ATOM     18  C   UNL     1      -4.885  13.125  21.154  0.00  0.00    +0.000 C 
ENDBRANCH  11  18
ENDBRANCH   1  15
BRANCH   8  19
ATOM     19  C   UNL     1      -2.256  10.815  18.131  0.00  0.00    +0.000 C 
ATOM     20  F   UNL     1      -2.693   9.574  17.849  0.00  0.00    +0.000 F 
ATOM     21  F   UNL     1      -3.307  11.470  18.702  0.00  0.00    +0.000 F 
ATOM     22  F   UNL     1      -2.038  11.431  16.931  0.00  0.00    +0.000 F 
ENDBRANCH   8  19
BRANCH   6  23
ATOM     23  C   UNL     1       1.010   8.334  21.093  0.00  0.00    +0.000 C 
BRANCH  23  24
ATOM     24  N   UNL     1       2.055   7.643  20.286  0.00  0.00    +0.000 NA
ATOM     25  C   UNL     1       1.808   6.180  20.300  0.00  0.00    +0.000 C 
ATOM     26  C   UNL     1       2.634   5.384  19.275  0.00  0.00    +0.000 C 
ATOM     27  C   UNL     1       2.429   6.029  17.902  0.00  0.00    +0.000 C 
ATOM     28  C   UNL     1       2.820   7.500  17.954  0.00  0.00    +0.000 C 
ATOM     29  N   UNL     1       2.019   8.232  18.937  0.00  0.00    +0.000 NA
ATOM     30  H   UNL     1       1.071   8.372  18.579  0.00  0.00    +0.000 HD
BRANCH  26  31
ATOM     31  C   UNL     1       4.109   5.284  19.717  0.00  0.00    +0.000 C 
ATOM     32  C   UNL     1       4.925   4.318  18.872  0.00  0.00    +0.000 C 
ENDBRANCH  26  31
ENDBRANCH  23  24
ENDBRANCH   6  23
TORSDOF 6
ENDMDL
