MODEL 1
REMARK VINA RESULT:      -7.6      0.000      0.000
REMARK  Name = 
REMARK  8 active torsions:
REMARK  status: ('A' for Active; 'I' for Inactive)
REMARK    1  A    between atoms: C_1  and  C_2
REMARK    2  A    between atoms: C_2  and  C_3
REMARK    3  A    between atoms: C_2  and  C_6
REMARK    4  A    between atoms: C_3  and  C_4
REMARK    5  A    between atoms: C_4  and  N_5
REMARK    6  A    between atoms: C_10  and  N_11
REMARK    7  A    between atoms: C_16  and  C_17
REMARK    8  A    between atoms: C_21  and  C_22
REMARK                            x       y       z     vdW  Elec       q    Type
REMARK                         _______ _______ _______ _____ _____    ______ ____
ROOT
ATOM      1  N   UNL     1       3.842   4.983  19.154  0.00  0.00    +0.000 N 
ATOM      2  C   UNL     1       5.202   5.546  19.352  0.00  0.00    +0.000 C 
ATOM      3  C   UNL     1       5.843   5.289  18.020  0.00  0.00    +0.000 A 
ATOM      4  C   UNL     1       5.211   4.171  17.467  0.00  0.00    +0.000 A 
ATOM      5  C   UNL     1       5.426   3.739  16.171  0.00  0.00    +0.000 A 
ATOM      6  C   UNL     1       6.323   4.477  15.396  0.00  0.00    +0.000 A 
ATOM      7  C   UNL     1       6.956   5.623  15.936  0.00  0.00    +0.000 A 
ATOM      8  C   UNL     1       6.729   6.049  17.264  0.00  0.00    +0.000 A 
ATOM      9  C   UNL     1       4.024   3.867  18.300  0.00  0.00    +0.000 C 
ATOM     10  O   UNL     1       3.274   2.931  18.091  0.00  0.00    +0.000 OA
ENDROOT
BRANCH   1  15
ATOM     11  C   UNL     1       2.089   8.165  19.393  0.00  0.00    +0.000 A 
ATOM     12  C   UNL     1       2.590   8.724  18.208  0.00  0.00    +0.000 A 
ATOM     13  C   UNL     1       3.064   7.913  17.182  0.00  0.00    +0.000 A 
ATOM     14  C   UNL     1       3.159   6.542  17.370  0.00  0.00    +0.000 A 
ATOM     15  C   UNL     1       2.935   6.013  18.648  0.00  0.00    +0.000 A 
ATOM     16  C   UNL     1       2.234   6.782  19.586  0.00  0.00    +0.000 A 
BRANCH  11  18
ATOM     17  C   UNL     1       0.600  10.170  20.006  0.00  0.00    +0.000 C 
ATOM     18  C   UNL     1       1.472   9.008  20.501  0.00  0.00    +0.000 C 
BRANCH  18  19
ATOM     19  C   UNL     1       0.714   8.136  21.526  0.00  0.00    +0.000 C 
BRANCH  19  20
ATOM     20  C   UNL     1      -0.309   8.905  22.369  0.00  0.00    +0.000 C 
BRANCH  20  21
ATOM     21  N   UNL     1       0.360   9.579  23.476  0.00  0.00    +0.000 NA
ATOM     22  H   UNL     1       0.233  10.586  23.388  0.00  0.00    +0.000 HD
ATOM     23  H   UNL     1       1.365   9.418  23.400  0.00  0.00    +0.000 HD
ENDBRANCH  20  21
ENDBRANCH  19  20
ENDBRANCH  18  19
ENDBRANCH  11  18
ENDBRANCH   1  15
BRANCH   6  24
ATOM     24  C   UNL     1       6.545   4.162  13.964  0.00  0.00    +0.000 C 
ATOM     25  N   UNL     1       6.010   2.999  13.485  0.00  0.00    +0.000 N 
ATOM     26  O   UNL     1       7.204   4.901  13.242  0.00  0.00    +0.000 OA
ATOM     27  H   UNL     1       5.617   2.275  14.071  0.00  0.00    +0.000 HD
ATOM     28  H   UNL     1       6.235   2.746  12.536  0.00  0.00    +0.000 HD
ENDBRANCH   6  24
BRANCH   8  29
ATOM     29  C   UNL     1       7.359   7.332  17.745  0.00  0.00    +0.000 C 
ATOM     30  F   UNL     1       8.222   7.892  16.854  0.00  0.00    +0.000 F 
ATOM     31  F   UNL     1       6.431   8.292  18.006  0.00  0.00    +0.000 F 
ATOM     32  F   UNL     1       8.067   7.169  18.895  0.00  0.00    +0.000 F 
ENDBRANCH   8  29
TORSDOF 7
ENDMDL
MODEL 2
REMARK VINA RESULT:      -7.5      0.833      1.044
REMARK  Name = 
REMARK  8 active torsions:
REMARK  status: ('A' for Active; 'I' for Inactive)
REMARK    1  A    between atoms: C_1  and  C_2
REMARK    2  A    between atoms: C_2  and  C_3
REMARK    3  A    between atoms: C_2  and  C_6
REMARK    4  A    between atoms: C_3  and  C_4
REMARK    5  A    between atoms: C_4  and  N_5
REMARK    6  A    between atoms: C_10  and  N_11
REMARK    7  A    between atoms: C_16  and  C_17
REMARK    8  A    between atoms: C_21  and  C_22
REMARK                            x       y       z     vdW  Elec       q    Type
REMARK                         _______ _______ _______ _____ _____    ______ ____
ROOT
ATOM      1  N   UNL     1       3.982   4.871  19.034  0.00  0.00    +0.000 N 
ATOM      2  C   UNL     1       5.325   5.460  19.267  0.00  0.00    +0.000 C 
ATOM      3  C   UNL     1       5.980   5.284  17.929  0.00  0.00    +0.000 A 
ATOM      4  C   UNL     1       5.382   4.176  17.320  0.00  0.00    +0.000 A 
ATOM      5  C   UNL     1       5.615   3.812  16.005  0.00  0.00    +0.000 A 
ATOM      6  C   UNL     1       6.496   4.610  15.272  0.00  0.00    +0.000 A 
ATOM      7  C   UNL     1       7.094   5.745  15.870  0.00  0.00    +0.000 A 
ATOM      8  C   UNL     1       6.850   6.103  17.216  0.00  0.00    +0.000 A 
ATOM      9  C   UNL     1       4.199   3.801  18.129  0.00  0.00    +0.000 C 
ATOM     10  O   UNL     1       3.475   2.856  17.871  0.00  0.00    +0.000 OA
ENDROOT
BRANCH   1  15
ATOM     11  C   UNL     1       1.890   7.811  19.520  0.00  0.00    +0.000 A 
ATOM     12  C   UNL     1       2.488   8.609  18.533  0.00  0.00    +0.000 A 
ATOM     13  C   UNL     1       3.180   8.032  17.472  0.00  0.00    +0.000 A 
ATOM     14  C   UNL     1       3.390   6.662  17.445  0.00  0.00    +0.000 A 
ATOM     15  C   UNL     1       3.050   5.899  18.571  0.00  0.00    +0.000 A 
ATOM     16  C   UNL     1       2.152   6.432  19.504  0.00  0.00    +0.000 A 
BRANCH  11  18
ATOM     17  C   UNL     1       1.776   8.535  21.985  0.00  0.00    +0.000 C 
ATOM     18  C   UNL     1       1.044   8.393  20.644  0.00  0.00    +0.000 C 
BRANCH  18  19
ATOM     19  C   UNL     1       0.378   9.722  20.226  0.00  0.00    +0.000 C 
BRANCH  19  20
ATOM     20  C   UNL     1       0.246  10.741  21.363  0.00  0.00    +0.000 C 
BRANCH  20  21
ATOM     21  N   UNL     1       1.126  11.879  21.121  0.00  0.00    +0.000 NA
ATOM     22  H   UNL     1       1.436  12.265  22.011  0.00  0.00    +0.000 HD
ATOM     23  H   UNL     1       0.589  12.620  20.669  0.00  0.00    +0.000 HD
ENDBRANCH  20  21
ENDBRANCH  19  20
ENDBRANCH  18  19
ENDBRANCH  11  18
ENDBRANCH   1  15
BRANCH   6  24
ATOM     24  C   UNL     1       6.734   4.370  13.828  0.00  0.00    +0.000 C 
ATOM     25  N   UNL     1       6.183   3.246  13.279  0.00  0.00    +0.000 N 
ATOM     26  O   UNL     1       7.418   5.133  13.158  0.00  0.00    +0.000 OA
ATOM     27  H   UNL     1       5.767   2.499  13.818  0.00  0.00    +0.000 HD
ATOM     28  H   UNL     1       6.418   3.040  12.320  0.00  0.00    +0.000 HD
ENDBRANCH   6  24
BRANCH   8  29
ATOM     29  C   UNL     1       7.442   7.377  17.760  0.00  0.00    +0.000 C 
ATOM     30  F   UNL     1       8.313   7.989  16.912  0.00  0.00    +0.000 F 
ATOM     31  F   UNL     1       6.488   8.308  18.037  0.00  0.00    +0.000 F 
ATOM     32  F   UNL     1       8.126   7.183  18.920  0.00  0.00    +0.000 F 
ENDBRANCH   8  29
TORSDOF 7
ENDMDL
MODEL 3
REMARK VINA RESULT:      -7.5      1.156      1.580
REMARK  Name = 
REMARK  8 active torsions:
REMARK  status: ('A' for Active; 'I' for Inactive)
REMARK    1  A    between atoms: C_1  and  C_2
REMARK    2  A    between atoms: C_2  and  C_3
REMARK    3  A    between atoms: C_2  and  C_6
REMARK    4  A    between atoms: C_3  and  C_4
REMARK    5  A    between atoms: C_4  and  N_5
REMARK    6  A    between atoms: C_10  and  N_11
REMARK    7  A    between atoms: C_16  and  C_17
REMARK    8  A    between atoms: C_21  and  C_22
REMARK                            x       y       z     vdW  Elec       q    Type
REMARK                         _______ _______ _______ _____ _____    ______ ____
ROOT
ATOM      1  N   UNL     1       3.906   4.961  19.028  0.00  0.00    +0.000 N 
ATOM      2  C   UNL     1       5.265   5.519  19.252  0.00  0.00    +0.000 C 
ATOM      3  C   UNL     1       5.923   5.281  17.925  0.00  0.00    +0.000 A 
ATOM      4  C   UNL     1       5.297   4.171  17.348  0.00  0.00    +0.000 A 
ATOM      5  C   UNL     1       5.528   3.756  16.048  0.00  0.00    +0.000 A 
ATOM      6  C   UNL     1       6.436   4.504  15.296  0.00  0.00    +0.000 A 
ATOM      7  C   UNL     1       7.063   5.642  15.860  0.00  0.00    +0.000 A 
ATOM      8  C   UNL     1       6.820   6.050  17.192  0.00  0.00    +0.000 A 
ATOM      9  C   UNL     1       4.099   3.857  18.161  0.00  0.00    +0.000 C 
ATOM     10  O   UNL     1       3.350   2.925  17.929  0.00  0.00    +0.000 OA
ENDROOT
BRANCH   1  15
ATOM     11  C   UNL     1       1.900   7.976  19.401  0.00  0.00    +0.000 A 
ATOM     12  C   UNL     1       2.526   8.722  18.391  0.00  0.00    +0.000 A 
ATOM     13  C   UNL     1       3.206   8.089  17.354  0.00  0.00    +0.000 A 
ATOM     14  C   UNL     1       3.375   6.713  17.376  0.00  0.00    +0.000 A 
ATOM     15  C   UNL     1       3.008   6.000  18.525  0.00  0.00    +0.000 A 
ATOM     16  C   UNL     1       2.121   6.590  19.433  0.00  0.00    +0.000 A 
BRANCH  11  18
ATOM     17  C   UNL     1       1.678   8.526  21.903  0.00  0.00    +0.000 C 
ATOM     18  C   UNL     1       1.065   8.621  20.499  0.00  0.00    +0.000 C 
BRANCH  18  19
ATOM     19  C   UNL     1       0.690  10.078  20.149  0.00  0.00    +0.000 C 
BRANCH  19  20
ATOM     20  C   UNL     1      -0.625  10.218  19.376  0.00  0.00    +0.000 C 
BRANCH  20  21
ATOM     21  N   UNL     1      -0.413  10.999  18.163  0.00  0.00    +0.000 NA
ATOM     22  H   UNL     1      -0.895  10.556  17.383  0.00  0.00    +0.000 HD
ATOM     23  H   UNL     1       0.580  10.976  17.926  0.00  0.00    +0.000 HD
ENDBRANCH  20  21
ENDBRANCH  19  20
ENDBRANCH  18  19
ENDBRANCH  11  18
ENDBRANCH   1  15
BRANCH   6  24
ATOM     24  C   UNL     1       6.677   4.209  13.863  0.00  0.00    +0.000 C 
ATOM     25  N   UNL     1       6.105   3.080  13.348  0.00  0.00    +0.000 N 
ATOM     26  O   UNL     1       7.381   4.934  13.171  0.00  0.00    +0.000 OA
ATOM     27  H   UNL     1       5.669   2.361  13.911  0.00  0.00    +0.000 HD
ATOM     28  H   UNL     1       6.340   2.836  12.399  0.00  0.00    +0.000 HD
ENDBRANCH   6  24
BRANCH   8  29
ATOM     29  C   UNL     1       7.445   7.325  17.698  0.00  0.00    +0.000 C 
ATOM     30  F   UNL     1       8.160   7.172  18.846  0.00  0.00    +0.000 F 
ATOM     31  F   UNL     1       8.311   7.863  16.798  0.00  0.00    +0.000 F 
ATOM     32  F   UNL     1       6.524   8.291  17.959  0.00  0.00    +0.000 F 
ENDBRANCH   8  29
TORSDOF 7
ENDMDL
MODEL 4
REMARK VINA RESULT:      -7.4      3.585      4.542
REMARK  Name = 
REMARK  8 active torsions:
REMARK  status: ('A' for Active; 'I' for Inactive)
REMARK    1  A    between atoms: C_1  and  C_2
REMARK    2  A    between atoms: C_2  and  C_3
REMARK    3  A    between atoms: C_2  and  C_6
REMARK    4  A    between atoms: C_3  and  C_4
REMARK    5  A    between atoms: C_4  and  N_5
REMARK    6  A    between atoms: C_10  and  N_11
REMARK    7  A    between atoms: C_16  and  C_17
REMARK    8  A    between atoms: C_21  and  C_22
REMARK                            x       y       z     vdW  Elec       q    Type
REMARK                         _______ _______ _______ _____ _____    ______ ____
ROOT
ATOM      1  N   UNL     1       2.181   6.853  17.864  0.00  0.00    +0.000 N 
ATOM      2  C   UNL     1       2.004   5.408  18.159  0.00  0.00    +0.000 C 
ATOM      3  C   UNL     1       3.423   4.946  18.318  0.00  0.00    +0.000 A 
ATOM      4  C   UNL     1       4.223   5.797  17.549  0.00  0.00    +0.000 A 
ATOM      5  C   UNL     1       5.606   5.779  17.582  0.00  0.00    +0.000 A 
ATOM      6  C   UNL     1       6.208   4.854  18.437  0.00  0.00    +0.000 A 
ATOM      7  C   UNL     1       5.411   3.999  19.236  0.00  0.00    +0.000 A 
ATOM      8  C   UNL     1       3.998   4.026  19.188  0.00  0.00    +0.000 A 
ATOM      9  C   UNL     1       3.378   6.933  17.109  0.00  0.00    +0.000 C 
ATOM     10  O   UNL     1       3.779   7.839  16.401  0.00  0.00    +0.000 OA
ENDROOT
BRANCH   1  15
ATOM     11  C   UNL     1       0.923   9.491  20.035  0.00  0.00    +0.000 A 
ATOM     12  C   UNL     1       0.597   8.671  21.125  0.00  0.00    +0.000 A 
ATOM     13  C   UNL     1       1.215   7.437  21.299  0.00  0.00    +0.000 A 
ATOM     14  C   UNL     1       2.073   6.948  20.326  0.00  0.00    +0.000 A 
ATOM     15  C   UNL     1       2.173   7.628  19.104  0.00  0.00    +0.000 A 
ATOM     16  C   UNL     1       1.756   8.963  19.036  0.00  0.00    +0.000 A 
BRANCH  11  18
ATOM     17  C   UNL     1       1.365  11.950  19.425  0.00  0.00    +0.000 C 
ATOM     18  C   UNL     1       0.344  10.888  19.857  0.00  0.00    +0.000 C 
BRANCH  18  19
ATOM     19  C   UNL     1      -0.885  10.882  18.923  0.00  0.00    +0.000 C 
BRANCH  19  20
ATOM     20  C   UNL     1      -1.345  12.275  18.483  0.00  0.00    +0.000 C 
BRANCH  20  21
ATOM     21  N   UNL     1      -1.677  12.268  17.062  0.00  0.00    +0.000 NA
ATOM     22  H   UNL     1      -2.016  11.345  16.796  0.00  0.00    +0.000 HD
ATOM     23  H   UNL     1      -0.822  12.416  16.524  0.00  0.00    +0.000 HD
ENDBRANCH  20  21
ENDBRANCH  19  20
ENDBRANCH  18  19
ENDBRANCH  11  18
ENDBRANCH   1  15
BRANCH   6  24
ATOM     24  C   UNL     1       7.678   4.823  18.627  0.00  0.00    +0.000 C 
ATOM     25  N   UNL     1       8.194   5.540  19.669  0.00  0.00    +0.000 N 
ATOM     26  O   UNL     1       8.407   4.200  17.865  0.00  0.00    +0.000 OA
ATOM     27  H   UNL     1       7.663   6.208  20.212  0.00  0.00    +0.000 HD
ATOM     28  H   UNL     1       9.198   5.587  19.744  0.00  0.00    +0.000 HD
ENDBRANCH   6  24
BRANCH   8  29
ATOM     29  C   UNL     1       3.211   3.158  20.135  0.00  0.00    +0.000 C 
ATOM     30  F   UNL     1       2.531   3.853  21.088  0.00  0.00    +0.000 F 
ATOM     31  F   UNL     1       2.273   2.414  19.489  0.00  0.00    +0.000 F 
ATOM     32  F   UNL     1       3.995   2.273  20.809  0.00  0.00    +0.000 F 
ENDBRANCH   8  29
TORSDOF 7
ENDMDL
MODEL 5
REMARK VINA RESULT:      -7.4      7.271      9.872
REMARK  Name = 
REMARK  8 active torsions:
REMARK  status: ('A' for Active; 'I' for Inactive)
REMARK    1  A    between atoms: C_1  and  C_2
REMARK    2  A    between atoms: C_2  and  C_3
REMARK    3  A    between atoms: C_2  and  C_6
REMARK    4  A    between atoms: C_3  and  C_4
REMARK    5  A    between atoms: C_4  and  N_5
REMARK    6  A    between atoms: C_10  and  N_11
REMARK    7  A    between atoms: C_16  and  C_17
REMARK    8  A    between atoms: C_21  and  C_22
REMARK                            x       y       z     vdW  Elec       q    Type
REMARK                         _______ _______ _______ _____ _____    ______ ____
ROOT
ATOM      1  N   UNL     1      -0.312  11.171  18.323  0.00  0.00    +0.000 N 
ATOM      2  C   UNL     1       0.435  10.382  19.336  0.00  0.00    +0.000 C 
ATOM      3  C   UNL     1       0.071  11.085  20.610  0.00  0.00    +0.000 A 
ATOM      4  C   UNL     1      -0.218  12.413  20.279  0.00  0.00    +0.000 A 
ATOM      5  C   UNL     1      -0.752  13.322  21.176  0.00  0.00    +0.000 A 
ATOM      6  C   UNL     1      -1.008  12.862  22.469  0.00  0.00    +0.000 A 
ATOM      7  C   UNL     1      -0.738  11.515  22.813  0.00  0.00    +0.000 A 
ATOM      8  C   UNL     1      -0.188  10.600  21.887  0.00  0.00    +0.000 A 
ATOM      9  C   UNL     1      -0.289  12.504  18.802  0.00  0.00    +0.000 C 
ATOM     10  O   UNL     1      -0.504  13.540  18.198  0.00  0.00    +0.000 OA
ENDROOT
BRANCH   1  15
ATOM     11  C   UNL     1      -3.938  11.405  18.091  0.00  0.00    +0.000 A 
ATOM     12  C   UNL     1      -4.059  10.881  16.796  0.00  0.00    +0.000 A 
ATOM     13  C   UNL     1      -3.069  10.061  16.262  0.00  0.00    +0.000 A 
ATOM     14  C   UNL     1      -1.892   9.851  16.964  0.00  0.00    +0.000 A 
ATOM     15  C   UNL     1      -1.645  10.604  18.120  0.00  0.00    +0.000 A 
ATOM     16  C   UNL     1      -2.722  11.222  18.768  0.00  0.00    +0.000 A 
BRANCH  11  18
ATOM     17  C   UNL     1      -6.418  11.555  18.753  0.00  0.00    +0.000 C 
ATOM     18  C   UNL     1      -5.038  12.226  18.750  0.00  0.00    +0.000 C 
BRANCH  18  19
ATOM     19  C   UNL     1      -4.635  12.684  20.168  0.00  0.00    +0.000 C 
BRANCH  19  20
ATOM     20  C   UNL     1      -5.821  12.975  21.094  0.00  0.00    +0.000 C 
BRANCH  20  21
ATOM     21  N   UNL     1      -5.613  12.339  22.390  0.00  0.00    +0.000 NA
ATOM     22  H   UNL     1      -5.384  11.356  22.254  0.00  0.00    +0.000 HD
ATOM     23  H   UNL     1      -6.493  12.350  22.907  0.00  0.00    +0.000 HD
ENDBRANCH  20  21
ENDBRANCH  19  20
ENDBRANCH  18  19
ENDBRANCH  11  18
ENDBRANCH   1  15
BRANCH   6  24
ATOM     24  C   UNL     1      -1.676  13.723  23.475  0.00  0.00    +0.000 C 
ATOM     25  N   UNL     1      -3.042  13.701  23.514  0.00  0.00    +0.000 N 
ATOM     26  O   UNL     1      -1.032  14.445  24.226  0.00  0.00    +0.000 OA
ATOM     27  H   UNL     1      -3.620  13.267  22.807  0.00  0.00    +0.000 HD
ATOM     28  H   UNL     1      -3.495  14.350  24.138  0.00  0.00    +0.000 HD
ENDBRANCH   6  24
BRANCH   8  29
ATOM     29  C   UNL     1      -0.016   9.157  22.289  0.00  0.00    +0.000 C 
ATOM     30  F   UNL     1      -0.863   8.301  21.654  0.00  0.00    +0.000 F 
ATOM     31  F   UNL     1       1.236   8.696  22.022  0.00  0.00    +0.000 F 
ATOM     32  F   UNL     1      -0.215   8.957  23.620  0.00  0.00    +0.000 F 
ENDBRANCH   8  29
TORSDOF 7
ENDMDL
MODEL 6
REMARK VINA RESULT:      -7.2      7.669     10.213
REMARK  Name = 
REMARK  8 active torsions:
REMARK  status: ('A' for Active; 'I' for Inactive)
REMARK    1  A    between atoms: C_1  and  C_2
REMARK    2  A    between atoms: C_2  and  C_3
REMARK    3  A    between atoms: C_2  and  C_6
REMARK    4  A    between atoms: C_3  and  C_4
REMARK    5  A    between atoms: C_4  and  N_5
REMARK    6  A    between atoms: C_10  and  N_11
REMARK    7  A    between atoms: C_16  and  C_17
REMARK    8  A    between atoms: C_21  and  C_22
REMARK                            x       y       z     vdW  Elec       q    Type
REMARK                         _______ _______ _______ _____ _____    ______ ____
ROOT
ATOM      1  N   UNL     1      -0.408  11.610  18.825  0.00  0.00    +0.000 N 
ATOM      2  C   UNL     1       0.379  10.895  19.863  0.00  0.00    +0.000 C 
ATOM      3  C   UNL     1      -0.291  11.344  21.128  0.00  0.00    +0.000 A 
ATOM      4  C   UNL     1      -0.847  12.603  20.876  0.00  0.00    +0.000 A 
ATOM      5  C   UNL     1      -1.685  13.256  21.762  0.00  0.00    +0.000 A 
ATOM      6  C   UNL     1      -1.975  12.602  22.960  0.00  0.00    +0.000 A 
ATOM      7  C   UNL     1      -1.436  11.319  23.221  0.00  0.00    +0.000 A 
ATOM      8  C   UNL     1      -0.577  10.666  22.308  0.00  0.00    +0.000 A 
ATOM      9  C   UNL     1      -0.760  12.849  19.417  0.00  0.00    +0.000 C 
ATOM     10  O   UNL     1      -1.142  13.874  18.881  0.00  0.00    +0.000 OA
ENDROOT
BRANCH   1  15
ATOM     11  C   UNL     1      -3.877  11.115  17.836  0.00  0.00    +0.000 A 
ATOM     12  C   UNL     1      -3.615  10.556  16.577  0.00  0.00    +0.000 A 
ATOM     13  C   UNL     1      -2.397   9.940  16.309  0.00  0.00    +0.000 A 
ATOM     14  C   UNL     1      -1.379   9.980  17.250  0.00  0.00    +0.000 A 
ATOM     15  C   UNL     1      -1.534  10.786  18.386  0.00  0.00    +0.000 A 
ATOM     16  C   UNL     1      -2.822  11.190  18.759  0.00  0.00    +0.000 A 
BRANCH  11  18
ATOM     17  C   UNL     1      -6.353  10.683  18.380  0.00  0.00    +0.000 C 
ATOM     18  C   UNL     1      -5.228  11.713  18.204  0.00  0.00    +0.000 C 
BRANCH  18  19
ATOM     19  C   UNL     1      -5.125  12.643  19.433  0.00  0.00    +0.000 C 
BRANCH  19  20
ATOM     20  C   UNL     1      -6.274  12.489  20.434  0.00  0.00    +0.000 C 
BRANCH  20  21
ATOM     21  N   UNL     1      -5.747  12.192  21.761  0.00  0.00    +0.000 NA
ATOM     22  H   UNL     1      -4.739  12.056  21.705  0.00  0.00    +0.000 HD
ATOM     23  H   UNL     1      -6.131  11.301  22.076  0.00  0.00    +0.000 HD
ENDBRANCH  20  21
ENDBRANCH  19  20
ENDBRANCH  18  19
ENDBRANCH  11  18
ENDBRANCH   1  15
BRANCH   6  24
ATOM     24  C   UNL     1      -2.944  13.166  23.931  0.00  0.00    +0.000 C 
ATOM     25  N   UNL     1      -4.018  12.392  24.270  0.00  0.00    +0.000 N 
ATOM     26  O   UNL     1      -2.804  14.291  24.393  0.00  0.00    +0.000 OA
ATOM     27  H   UNL     1      -4.275  11.540  23.789  0.00  0.00    +0.000 HD
ATOM     28  H   UNL     1      -4.718  12.810  24.862  0.00  0.00    +0.000 HD
ENDBRANCH   6  24
BRANCH   8  29
ATOM     29  C   UNL     1      -0.116   9.262  22.604  0.00  0.00    +0.000 C 
ATOM     30  F   UNL     1      -0.107   8.950  23.929  0.00  0.00    +0.000 F 
ATOM     31  F   UNL     1      -0.910   8.327  22.014  0.00  0.00    +0.000 F 
ATOM     32  F   UNL     1       1.146   9.020  22.157  0.00  0.00    +0.000 F 
ENDBRANCH   8  29
TORSDOF 7
ENDMDL
MODEL 7
REMARK VINA RESULT:      -7.2      3.575      4.571
REMARK  Name = 
REMARK  8 active torsions:
REMARK  status: ('A' for Active; 'I' for Inactive)
REMARK    1  A    between atoms: C_1  and  C_2
REMARK    2  A    between atoms: C_2  and  C_3
REMARK    3  A    between atoms: C_2  and  C_6
REMARK    4  A    between atoms: C_3  and  C_4
REMARK    5  A    between atoms: C_4  and  N_5
REMARK    6  A    between atoms: C_10  and  N_11
REMARK    7  A    between atoms: C_16  and  C_17
REMARK    8  A    between atoms: C_21  and  C_22
REMARK                            x       y       z     vdW  Elec       q    Type
REMARK                         _______ _______ _______ _____ _____    ______ ____
ROOT
ATOM      1  N   UNL     1       2.213   6.924  17.735  0.00  0.00    +0.000 N 
ATOM      2  C   UNL     1       2.001   5.502  18.107  0.00  0.00    +0.000 C 
ATOM      3  C   UNL     1       3.407   5.018  18.304  0.00  0.00    +0.000 A 
ATOM      4  C   UNL     1       4.232   5.807  17.496  0.00  0.00    +0.000 A 
ATOM      5  C   UNL     1       5.614   5.759  17.542  0.00  0.00    +0.000 A 
ATOM      6  C   UNL     1       6.188   4.870  18.453  0.00  0.00    +0.000 A 
ATOM      7  C   UNL     1       5.366   4.078  19.291  0.00  0.00    +0.000 A 
ATOM      8  C   UNL     1       3.955   4.135  19.229  0.00  0.00    +0.000 A 
ATOM      9  C   UNL     1       3.416   6.935  16.987  0.00  0.00    +0.000 C 
ATOM     10  O   UNL     1       3.844   7.791  16.233  0.00  0.00    +0.000 OA
ENDROOT
BRANCH   1  15
ATOM     11  C   UNL     1       1.032   9.735  19.725  0.00  0.00    +0.000 A 
ATOM     12  C   UNL     1       0.643   8.994  20.850  0.00  0.00    +0.000 A 
ATOM     13  C   UNL     1       1.196   7.743  21.107  0.00  0.00    +0.000 A 
ATOM     14  C   UNL     1       2.053   7.162  20.184  0.00  0.00    +0.000 A 
ATOM     15  C   UNL     1       2.213   7.767  18.930  0.00  0.00    +0.000 A 
ATOM     16  C   UNL     1       1.862   9.114  18.778  0.00  0.00    +0.000 A 
BRANCH  11  18
ATOM     17  C   UNL     1      -0.871  11.438  20.020  0.00  0.00    +0.000 C 
ATOM     18  C   UNL     1       0.526  11.145  19.456  0.00  0.00    +0.000 C 
BRANCH  18  19
ATOM     19  C   UNL     1       1.546  12.213  19.907  0.00  0.00    +0.000 C 
BRANCH  19  20
ATOM     20  C   UNL     1       1.979  13.176  18.796  0.00  0.00    +0.000 C 
BRANCH  20  21
ATOM     21  N   UNL     1       2.429  12.425  17.630  0.00  0.00    +0.000 NA
ATOM     22  H   UNL     1       3.239  12.886  17.220  0.00  0.00    +0.000 HD
ATOM     23  H   UNL     1       1.700  12.457  16.916  0.00  0.00    +0.000 HD
ENDBRANCH  20  21
ENDBRANCH  19  20
ENDBRANCH  18  19
ENDBRANCH  11  18
ENDBRANCH   1  15
BRANCH   6  24
ATOM     24  C   UNL     1       7.656   4.816  18.656  0.00  0.00    +0.000 C 
ATOM     25  N   UNL     1       8.170   5.508  19.717  0.00  0.00    +0.000 N 
ATOM     26  O   UNL     1       8.385   4.198  17.890  0.00  0.00    +0.000 OA
ATOM     27  H   UNL     1       7.642   6.172  20.267  0.00  0.00    +0.000 HD
ATOM     28  H   UNL     1       9.173   5.540  19.803  0.00  0.00    +0.000 HD
ENDBRANCH   6  24
BRANCH   8  29
ATOM     29  C   UNL     1       3.141   3.338  20.216  0.00  0.00    +0.000 C 
ATOM     30  F   UNL     1       2.108   2.651  19.655  0.00  0.00    +0.000 F 
ATOM     31  F   UNL     1       3.890   2.406  20.864  0.00  0.00    +0.000 F 
ATOM     32  F   UNL     1       2.586   4.116  21.185  0.00  0.00    +0.000 F 
ENDBRANCH   8  29
TORSDOF 7
ENDMDL
MODEL 8
REMARK VINA RESULT:      -7.2      7.252      9.884
REMARK  Name = 
REMARK  8 active torsions:
REMARK  status: ('A' for Active; 'I' for Inactive)
REMARK    1  A    between atoms: C_1  and  C_2
REMARK    2  A    between atoms: C_2  and  C_3
REMARK    3  A    between atoms: C_2  and  C_6
REMARK    4  A    between atoms: C_3  and  C_4
REMARK    5  A    between atoms: C_4  and  N_5
REMARK    6  A    between atoms: C_10  and  N_11
REMARK    7  A    between atoms: C_16  and  C_17
REMARK    8  A    between atoms: C_21  and  C_22
REMARK                            x       y       z     vdW  Elec       q    Type
REMARK                         _______ _______ _______ _____ _____    ______ ____
ROOT
ATOM      1  N   UNL     1      -0.297  11.141  18.308  0.00  0.00    +0.000 N 
ATOM      2  C   UNL     1       0.448  10.361  19.330  0.00  0.00    +0.000 C 
ATOM      3  C   UNL     1       0.081  11.076  20.597  0.00  0.00    +0.000 A 
ATOM      4  C   UNL     1      -0.206  12.401  20.254  0.00  0.00    +0.000 A 
ATOM      5  C   UNL     1      -0.742  13.318  21.141  0.00  0.00    +0.000 A 
ATOM      6  C   UNL     1      -1.000  12.870  22.437  0.00  0.00    +0.000 A 
ATOM      7  C   UNL     1      -0.732  11.526  22.794  0.00  0.00    +0.000 A 
ATOM      8  C   UNL     1      -0.180  10.602  21.878  0.00  0.00    +0.000 A 
ATOM      9  C   UNL     1      -0.274  12.479  18.775  0.00  0.00    +0.000 C 
ATOM     10  O   UNL     1      -0.486  13.509  18.162  0.00  0.00    +0.000 OA
ENDROOT
BRANCH   1  15
ATOM     11  C   UNL     1      -3.923  11.372  18.087  0.00  0.00    +0.000 A 
ATOM     12  C   UNL     1      -4.047  10.851  16.791  0.00  0.00    +0.000 A 
ATOM     13  C   UNL     1      -3.058  10.033  16.253  0.00  0.00    +0.000 A 
ATOM     14  C   UNL     1      -1.878   9.823  16.950  0.00  0.00    +0.000 A 
ATOM     15  C   UNL     1      -1.629  10.573  18.108  0.00  0.00    +0.000 A 
ATOM     16  C   UNL     1      -2.705  11.189  18.760  0.00  0.00    +0.000 A 
BRANCH  11  18
ATOM     17  C   UNL     1      -6.391  11.497  18.800  0.00  0.00    +0.000 C 
ATOM     18  C   UNL     1      -5.022  12.190  18.751  0.00  0.00    +0.000 C 
BRANCH  18  19
ATOM     19  C   UNL     1      -4.597  12.688  20.149  0.00  0.00    +0.000 C 
BRANCH  19  20
ATOM     20  C   UNL     1      -5.046  14.117  20.470  0.00  0.00    +0.000 C 
BRANCH  20  21
ATOM     21  N   UNL     1      -3.888  14.998  20.563  0.00  0.00    +0.000 NA
ATOM     22  H   UNL     1      -3.964  15.575  21.399  0.00  0.00    +0.000 HD
ATOM     23  H   UNL     1      -3.903  15.646  19.775  0.00  0.00    +0.000 HD
ENDBRANCH  20  21
ENDBRANCH  19  20
ENDBRANCH  18  19
ENDBRANCH  11  18
ENDBRANCH   1  15
BRANCH   6  24
ATOM     24  C   UNL     1      -1.670  13.740  23.435  0.00  0.00    +0.000 C 
ATOM     25  N   UNL     1      -3.036  13.750  23.444  0.00  0.00    +0.000 N 
ATOM     26  O   UNL     1      -1.026  14.443  24.203  0.00  0.00    +0.000 OA
ATOM     27  H   UNL     1      -3.609  13.333  22.722  0.00  0.00    +0.000 HD
ATOM     28  H   UNL     1      -3.488  14.405  24.062  0.00  0.00    +0.000 HD
ENDBRANCH   6  24
BRANCH   8  29
ATOM     29  C   UNL     1      -0.011   9.163  22.293  0.00  0.00    +0.000 C 
ATOM     30  F   UNL     1      -0.223   8.942  23.619  0.00  0.00    +0.000 F 
ATOM     31  F   UNL     1      -0.874   8.337  21.642  0.00  0.00    +0.000 F 
ATOM     32  F   UNL     1       1.237   8.686  22.032  0.00  0.00    +0.000 F 
ENDBRANCH   8  29
TORSDOF 7
ENDMDL
MODEL 9
REMARK VINA RESULT:      -7.1      7.157      9.908
REMARK  Name = 
REMARK  8 active torsions:
REMARK  status: ('A' for Active; 'I' for Inactive)
REMARK    1  A    between atoms: C_1  and  C_2
REMARK    2  A    between atoms: C_2  and  C_3
REMARK    3  A    between atoms: C_2  and  C_6
REMARK    4  A    between atoms: C_3  and  C_4
REMARK    5  A    between atoms: C_4  and  N_5
REMARK    6  A    between atoms: C_10  and  N_11
REMARK    7  A    between atoms: C_16  and  C_17
REMARK    8  A    between atoms: C_21  and  C_22
REMARK                            x       y       z     vdW  Elec       q    Type
REMARK                         _______ _______ _______ _____ _____    ______ ____
ROOT
ATOM      1  N   UNL     1      -0.256  11.018  18.275  0.00  0.00    +0.000 N 
ATOM      2  C   UNL     1       0.463  10.220  19.301  0.00  0.00    +0.000 C 
ATOM      3  C   UNL     1       0.125  10.957  20.563  0.00  0.00    +0.000 A 
ATOM      4  C   UNL     1      -0.117  12.288  20.211  0.00  0.00    +0.000 A 
ATOM      5  C   UNL     1      -0.618  13.230  21.092  0.00  0.00    +0.000 A 
ATOM      6  C   UNL     1      -0.889  12.801  22.393  0.00  0.00    +0.000 A 
ATOM      7  C   UNL     1      -0.667  11.451  22.759  0.00  0.00    +0.000 A 
ATOM      8  C   UNL     1      -0.150  10.501  21.848  0.00  0.00    +0.000 A 
ATOM      9  C   UNL     1      -0.186  12.358  18.732  0.00  0.00    +0.000 C 
ATOM     10  O   UNL     1      -0.364  13.390  18.111  0.00  0.00    +0.000 OA
ENDROOT
BRANCH   1  15
ATOM     11  C   UNL     1      -3.885  11.314  18.302  0.00  0.00    +0.000 A 
ATOM     12  C   UNL     1      -4.093  10.970  16.959  0.00  0.00    +0.000 A 
ATOM     13  C   UNL     1      -3.151  10.220  16.260  0.00  0.00    +0.000 A 
ATOM     14  C   UNL     1      -1.937   9.907  16.853  0.00  0.00    +0.000 A 
ATOM     15  C   UNL     1      -1.608  10.495  18.082  0.00  0.00    +0.000 A 
ATOM     16  C   UNL     1      -2.633  11.031  18.872  0.00  0.00    +0.000 A 
BRANCH  11  18
ATOM     17  C   UNL     1      -4.348  12.988  20.198  0.00  0.00    +0.000 C 
ATOM     18  C   UNL     1      -4.929  12.049  19.132  0.00  0.00    +0.000 C 
BRANCH  18  19
ATOM     19  C   UNL     1      -5.954  12.781  18.239  0.00  0.00    +0.000 C 
BRANCH  19  20
ATOM     20  C   UNL     1      -7.414  12.431  18.545  0.00  0.00    +0.000 C 
BRANCH  20  21
ATOM     21  N   UNL     1      -7.489  11.137  19.214  0.00  0.00    +0.000 NA
ATOM     22  H   UNL     1      -8.426  10.753  19.109  0.00  0.00    +0.000 HD
ATOM     23  H   UNL     1      -7.357  11.277  20.216  0.00  0.00    +0.000 HD
ENDBRANCH  20  21
ENDBRANCH  19  20
ENDBRANCH  18  19
ENDBRANCH  11  18
ENDBRANCH   1  15
BRANCH   6  24
ATOM     24  C   UNL     1      -1.526  13.701  23.385  0.00  0.00    +0.000 C 
ATOM     25  N   UNL     1      -2.876  13.587  23.562  0.00  0.00    +0.000 N 
ATOM     26  O   UNL     1      -0.873  14.533  24.003  0.00  0.00    +0.000 OA
ATOM     27  H   UNL     1      -3.482  13.050  22.956  0.00  0.00    +0.000 HD
ATOM     28  H   UNL     1      -3.318  14.257  24.172  0.00  0.00    +0.000 HD
ENDBRANCH   6  24
BRANCH   8  29
ATOM     29  C   UNL     1      -0.030   9.061  22.274  0.00  0.00    +0.000 C 
ATOM     30  F   UNL     1       1.195   8.515  22.038  0.00  0.00    +0.000 F 
ATOM     31  F   UNL     1      -0.250   8.900  23.607  0.00  0.00    +0.000 F 
ATOM     32  F   UNL     1      -0.924   8.252  21.644  0.00  0.00    +0.000 F 
ENDBRANCH   8  29
TORSDOF 7
ENDMDL
