MODEL 1
REMARK VINA RESULT:      -8.5      0.000      0.000
REMARK  Name = 
REMARK  4 active torsions:
REMARK  status: ('A' for Active; 'I' for Inactive)
REMARK    1  A    between atoms: C_2  and  C_14
REMARK    2  A    between atoms: N_3  and  C_4
REMARK    3  A    between atoms: N_17  and  C_18
REMARK    4  A    between atoms: C_18  and  C_19
REMARK                            x       y       z     vdW  Elec       q    Type
REMARK                         _______ _______ _______ _____ _____    ______ ____
ROOT
ATOM      1  O   UNL     1       7.486   9.031  17.082  0.00  0.00    +0.000 OA
ATOM      2  C   UNL     1       7.887   8.348  18.015  0.00  0.00    +0.000 C 
ATOM      3  N   UNL     1       8.806   8.756  18.969  0.00  0.00    +0.000 N 
ATOM      4  H   UNL     1       9.220   8.035  19.543  0.00  0.00    +0.000 HD
ENDROOT
BRANCH   3   5
ATOM      5  C   UNL     1       9.307  10.068  19.136  0.00  0.00    +0.000 A 
ATOM      6  C   UNL     1       9.384  10.692  20.405  0.00  0.00    +0.000 A 
ATOM      7  C   UNL     1       9.870  11.997  20.562  0.00  0.00    +0.000 A 
ATOM      8  C   UNL     1      10.271  12.640  19.422  0.00  0.00    +0.000 A 
ATOM      9  N   UNL     1      10.770  13.926  19.262  0.00  0.00    +0.000 N 
ATOM     10  C   UNL     1      11.030  14.141  17.903  0.00  0.00    +0.000 A 
ATOM     11  O   UNL     1      11.461  15.162  17.398  0.00  0.00    +0.000 OA
ATOM     12  N   UNL     1      10.692  12.952  17.236  0.00  0.00    +0.000 N 
ATOM     13  C   UNL     1      10.223  12.032  18.169  0.00  0.00    +0.000 A 
ATOM     14  C   UNL     1       9.761  10.745  17.992  0.00  0.00    +0.000 A 
ATOM     15  H   UNL     1      10.913  14.617  19.981  0.00  0.00    +0.000 HD
ATOM     16  H   UNL     1      10.771  12.833  16.241  0.00  0.00    +0.000 HD
ENDBRANCH   3   5
BRANCH   2  17
ATOM     17  C   UNL     1       7.405   6.986  18.175  0.00  0.00    +0.000 A 
ATOM     18  C   UNL     1       7.957   6.002  19.030  0.00  0.00    +0.000 A 
ATOM     19  N   UNL     1       7.349   4.818  18.923  0.00  0.00    +0.000 NA
ATOM     20  N   UNL     1       6.396   5.034  17.995  0.00  0.00    +0.000 N 
ATOM     21  C   UNL     1       6.385   6.320  17.525  0.00  0.00    +0.000 A 
BRANCH  20  22
ATOM     22  C   UNL     1       5.556   3.930  17.545  0.00  0.00    +0.000 C 
BRANCH  22  23
ATOM     23  C   UNL     1       4.170   4.040  18.127  0.00  0.00    +0.000 A 
ATOM     24  C   UNL     1       3.251   4.913  17.516  0.00  0.00    +0.000 A 
ATOM     25  C   UNL     1       1.926   4.975  17.947  0.00  0.00    +0.000 A 
ATOM     26  C   UNL     1       1.495   4.159  18.989  0.00  0.00    +0.000 A 
ATOM     27  C   UNL     1       2.397   3.305  19.621  0.00  0.00    +0.000 A 
ATOM     28  C   UNL     1       3.729   3.252  19.202  0.00  0.00    +0.000 A 
ATOM     29 CL   UNL     1       4.788   2.193  20.064  0.00  0.00    +0.000 Cl
ENDBRANCH  22  23
ENDBRANCH  20  22
ENDBRANCH   2  17
TORSDOF 4
ENDMDL
MODEL 2
REMARK VINA RESULT:      -8.3      1.138      1.507
REMARK  Name = 
REMARK  4 active torsions:
REMARK  status: ('A' for Active; 'I' for Inactive)
REMARK    1  A    between atoms: C_2  and  C_14
REMARK    2  A    between atoms: N_3  and  C_4
REMARK    3  A    between atoms: N_17  and  C_18
REMARK    4  A    between atoms: C_18  and  C_19
REMARK                            x       y       z     vdW  Elec       q    Type
REMARK                         _______ _______ _______ _____ _____    ______ ____
ROOT
ATOM      1  O   UNL     1       7.535   9.146  17.050  0.00  0.00    +0.000 OA
ATOM      2  C   UNL     1       7.893   8.451  17.991  0.00  0.00    +0.000 C 
ATOM      3  N   UNL     1       8.812   8.824  18.959  0.00  0.00    +0.000 N 
ATOM      4  H   UNL     1       9.186   8.089  19.542  0.00  0.00    +0.000 HD
ENDROOT
BRANCH   3   5
ATOM      5  C   UNL     1       9.363  10.115  19.131  0.00  0.00    +0.000 A 
ATOM      6  C   UNL     1       9.455  10.735  20.401  0.00  0.00    +0.000 A 
ATOM      7  C   UNL     1       9.990  12.020  20.563  0.00  0.00    +0.000 A 
ATOM      8  C   UNL     1      10.424  12.647  19.427  0.00  0.00    +0.000 A 
ATOM      9  N   UNL     1      10.974  13.914  19.273  0.00  0.00    +0.000 N 
ATOM     10  C   UNL     1      11.252  14.119  17.916  0.00  0.00    +0.000 A 
ATOM     11  O   UNL     1      11.726  15.123  17.415  0.00  0.00    +0.000 OA
ATOM     12  N   UNL     1      10.873  12.945  17.245  0.00  0.00    +0.000 N 
ATOM     13  C   UNL     1      10.362  12.044  18.174  0.00  0.00    +0.000 A 
ATOM     14  C   UNL     1       9.850  10.775  17.991  0.00  0.00    +0.000 A 
ATOM     15  H   UNL     1      11.140  14.597  19.993  0.00  0.00    +0.000 HD
ATOM     16  H   UNL     1      10.954  12.824  16.250  0.00  0.00    +0.000 HD
ENDBRANCH   3   5
BRANCH   2  17
ATOM     17  C   UNL     1       7.354   7.109  18.146  0.00  0.00    +0.000 A 
ATOM     18  C   UNL     1       7.921   6.068  18.919  0.00  0.00    +0.000 A 
ATOM     19  N   UNL     1       7.244   4.921  18.825  0.00  0.00    +0.000 NA
ATOM     20  N   UNL     1       6.231   5.219  17.987  0.00  0.00    +0.000 N 
ATOM     21  C   UNL     1       6.249   6.521  17.563  0.00  0.00    +0.000 A 
BRANCH  20  22
ATOM     22  C   UNL     1       5.299   4.176  17.573  0.00  0.00    +0.000 C 
BRANCH  22  23
ATOM     23  C   UNL     1       4.253   3.943  18.633  0.00  0.00    +0.000 A 
ATOM     24  C   UNL     1       4.388   2.826  19.478  0.00  0.00    +0.000 A 
ATOM     25  C   UNL     1       3.509   2.621  20.542  0.00  0.00    +0.000 A 
ATOM     26  C   UNL     1       2.487   3.533  20.785  0.00  0.00    +0.000 A 
ATOM     27  C   UNL     1       2.324   4.633  19.944  0.00  0.00    +0.000 A 
ATOM     28  C   UNL     1       3.193   4.833  18.868  0.00  0.00    +0.000 A 
ATOM     29 CL   UNL     1       2.897   6.201  17.855  0.00  0.00    +0.000 Cl
ENDBRANCH  22  23
ENDBRANCH  20  22
ENDBRANCH   2  17
TORSDOF 4
ENDMDL
MODEL 3
REMARK VINA RESULT:      -8.3      1.974      2.630
REMARK  Name = 
REMARK  4 active torsions:
REMARK  status: ('A' for Active; 'I' for Inactive)
REMARK    1  A    between atoms: C_2  and  C_14
REMARK    2  A    between atoms: N_3  and  C_4
REMARK    3  A    between atoms: N_17  and  C_18
REMARK    4  A    between atoms: C_18  and  C_19
REMARK                            x       y       z     vdW  Elec       q    Type
REMARK                         _______ _______ _______ _____ _____    ______ ____
ROOT
ATOM      1  O   UNL     1       8.995  10.142  19.986  0.00  0.00    +0.000 OA
ATOM      2  C   UNL     1       8.978   9.865  18.794  0.00  0.00    +0.000 C 
ATOM      3  N   UNL     1       9.506  10.650  17.782  0.00  0.00    +0.000 N 
ATOM      4  H   UNL     1       9.230  10.423  16.836  0.00  0.00    +0.000 HD
ENDROOT
BRANCH   3   5
ATOM      5  C   UNL     1      10.299  11.807  17.952  0.00  0.00    +0.000 A 
ATOM      6  C   UNL     1      11.551  11.776  18.615  0.00  0.00    +0.000 A 
ATOM      7  C   UNL     1      12.326  12.930  18.792  0.00  0.00    +0.000 A 
ATOM      8  C   UNL     1      11.811  14.094  18.288  0.00  0.00    +0.000 A 
ATOM      9  N   UNL     1      12.333  15.381  18.328  0.00  0.00    +0.000 N 
ATOM     10  C   UNL     1      11.438  16.247  17.687  0.00  0.00    +0.000 A 
ATOM     11  O   UNL     1      11.566  17.450  17.549  0.00  0.00    +0.000 OA
ATOM     12  N   UNL     1      10.364  15.460  17.242  0.00  0.00    +0.000 N 
ATOM     13  C   UNL     1      10.593  14.139  17.614  0.00  0.00    +0.000 A 
ATOM     14  C   UNL     1       9.818  13.014  17.417  0.00  0.00    +0.000 A 
ATOM     15  H   UNL     1      13.197  15.674  18.755  0.00  0.00    +0.000 HD
ATOM     16  H   UNL     1       9.568  15.833  16.755  0.00  0.00    +0.000 HD
ENDBRANCH   3   5
BRANCH   2  17
ATOM     17  C   UNL     1       8.351   8.631  18.347  0.00  0.00    +0.000 A 
ATOM     18  C   UNL     1       7.426   8.505  17.283  0.00  0.00    +0.000 A 
ATOM     19  N   UNL     1       6.965   7.260  17.138  0.00  0.00    +0.000 NA
ATOM     20  N   UNL     1       7.594   6.574  18.113  0.00  0.00    +0.000 N 
ATOM     21  C   UNL     1       8.442   7.351  18.856  0.00  0.00    +0.000 A 
BRANCH  20  22
ATOM     22  C   UNL     1       7.284   5.165  18.325  0.00  0.00    +0.000 C 
BRANCH  22  23
ATOM     23  C   UNL     1       5.797   4.929  18.266  0.00  0.00    +0.000 A 
ATOM     24  C   UNL     1       5.006   5.349  19.351  0.00  0.00    +0.000 A 
ATOM     25  C   UNL     1       3.614   5.253  19.303  0.00  0.00    +0.000 A 
ATOM     26  C   UNL     1       2.991   4.745  18.167  0.00  0.00    +0.000 A 
ATOM     27  C   UNL     1       3.761   4.303  17.092  0.00  0.00    +0.000 A 
ATOM     28  C   UNL     1       5.155   4.384  17.143  0.00  0.00    +0.000 A 
ATOM     29 CL   UNL     1       6.032   3.780  15.782  0.00  0.00    +0.000 Cl
ENDBRANCH  22  23
ENDBRANCH  20  22
ENDBRANCH   2  17
TORSDOF 4
ENDMDL
MODEL 4
REMARK VINA RESULT:      -8.2      3.908      9.842
REMARK  Name = 
REMARK  4 active torsions:
REMARK  status: ('A' for Active; 'I' for Inactive)
REMARK    1  A    between atoms: C_2  and  C_14
REMARK    2  A    between atoms: N_3  and  C_4
REMARK    3  A    between atoms: N_17  and  C_18
REMARK    4  A    between atoms: C_18  and  C_19
REMARK                            x       y       z     vdW  Elec       q    Type
REMARK                         _______ _______ _______ _____ _____    ______ ____
ROOT
ATOM      1  O   UNL     1       7.837   9.913  17.708  0.00  0.00    +0.000 OA
ATOM      2  C   UNL     1       8.606   9.529  18.579  0.00  0.00    +0.000 C 
ATOM      3  N   UNL     1       8.716   8.224  19.031  0.00  0.00    +0.000 N 
ATOM      4  H   UNL     1       9.217   8.081  19.897  0.00  0.00    +0.000 HD
ENDROOT
BRANCH   3   5
ATOM      5  C   UNL     1       8.095   7.089  18.461  0.00  0.00    +0.000 A 
ATOM      6  C   UNL     1       7.939   5.874  19.172  0.00  0.00    +0.000 A 
ATOM      7  C   UNL     1       7.335   4.749  18.596  0.00  0.00    +0.000 A 
ATOM      8  C   UNL     1       6.898   4.884  17.306  0.00  0.00    +0.000 A 
ATOM      9  N   UNL     1       6.288   3.951  16.478  0.00  0.00    +0.000 N 
ATOM     10  C   UNL     1       6.034   4.551  15.238  0.00  0.00    +0.000 A 
ATOM     11  O   UNL     1       5.522   4.023  14.267  0.00  0.00    +0.000 OA
ATOM     12  N   UNL     1       6.490   5.876  15.331  0.00  0.00    +0.000 N 
ATOM     13  C   UNL     1       7.023   6.078  16.600  0.00  0.00    +0.000 A 
ATOM     14  C   UNL     1       7.603   7.203  17.150  0.00  0.00    +0.000 A 
ATOM     15  H   UNL     1       6.069   2.993  16.698  0.00  0.00    +0.000 HD
ATOM     16  H   UNL     1       6.440   6.534  14.572  0.00  0.00    +0.000 HD
ENDBRANCH   3   5
BRANCH   2  17
ATOM     17  C   UNL     1       9.488  10.480  19.236  0.00  0.00    +0.000 A 
ATOM     18  C   UNL     1       9.353  10.962  20.560  0.00  0.00    +0.000 A 
ATOM     19  N   UNL     1      10.272  11.878  20.877  0.00  0.00    +0.000 NA
ATOM     20  N   UNL     1      11.008  11.990  19.753  0.00  0.00    +0.000 N 
ATOM     21  C   UNL     1      10.582  11.165  18.747  0.00  0.00    +0.000 A 
BRANCH  20  22
ATOM     22  C   UNL     1      12.085  12.972  19.684  0.00  0.00    +0.000 C 
BRANCH  22  23
ATOM     23  C   UNL     1      11.592  14.267  19.092  0.00  0.00    +0.000 A 
ATOM     24  C   UNL     1      11.042  15.234  19.953  0.00  0.00    +0.000 A 
ATOM     25  C   UNL     1      10.668  16.490  19.474  0.00  0.00    +0.000 A 
ATOM     26  C   UNL     1      10.846  16.803  18.130  0.00  0.00    +0.000 A 
ATOM     27  C   UNL     1      11.367  15.849  17.258  0.00  0.00    +0.000 A 
ATOM     28  C   UNL     1      11.729  14.585  17.731  0.00  0.00    +0.000 A 
ATOM     29 CL   UNL     1      12.333  13.450  16.576  0.00  0.00    +0.000 Cl
ENDBRANCH  22  23
ENDBRANCH  20  22
ENDBRANCH   2  17
TORSDOF 4
ENDMDL
MODEL 5
REMARK VINA RESULT:      -8.2      5.907      7.421
REMARK  Name = 
REMARK  4 active torsions:
REMARK  status: ('A' for Active; 'I' for Inactive)
REMARK    1  A    between atoms: C_2  and  C_14
REMARK    2  A    between atoms: N_3  and  C_4
REMARK    3  A    between atoms: N_17  and  C_18
REMARK    4  A    between atoms: C_18  and  C_19
REMARK                            x       y       z     vdW  Elec       q    Type
REMARK                         _______ _______ _______ _____ _____    ______ ____
ROOT
ATOM      1  O   UNL     1       2.277   9.028  17.290  0.00  0.00    +0.000 OA
ATOM      2  C   UNL     1       1.976   8.594  18.394  0.00  0.00    +0.000 C 
ATOM      3  N   UNL     1       1.264   9.287  19.360  0.00  0.00    +0.000 N 
ATOM      4  H   UNL     1       1.279   8.909  20.297  0.00  0.00    +0.000 HD
ENDROOT
BRANCH   3   5
ATOM      5  C   UNL     1       0.617  10.532  19.185  0.00  0.00    +0.000 A 
ATOM      6  C   UNL     1      -0.764  10.631  18.887  0.00  0.00    +0.000 A 
ATOM      7  C   UNL     1      -1.396  11.868  18.702  0.00  0.00    +0.000 A 
ATOM      8  C   UNL     1      -0.608  12.981  18.828  0.00  0.00    +0.000 A 
ATOM      9  N   UNL     1      -0.943  14.321  18.683  0.00  0.00    +0.000 N 
ATOM     10  C   UNL     1       0.204  15.095  18.897  0.00  0.00    +0.000 A 
ATOM     11  O   UNL     1       0.283  16.309  18.835  0.00  0.00    +0.000 OA
ATOM     12  N   UNL     1       1.246  14.199  19.189  0.00  0.00    +0.000 N 
ATOM     13  C   UNL     1       0.746  12.902  19.144  0.00  0.00    +0.000 A 
ATOM     14  C   UNL     1       1.387  11.696  19.342  0.00  0.00    +0.000 A 
ATOM     15  H   UNL     1      -1.845  14.701  18.447  0.00  0.00    +0.000 HD
ATOM     16  H   UNL     1       2.190  14.489  19.375  0.00  0.00    +0.000 HD
ENDBRANCH   3   5
BRANCH   2  17
ATOM     17  C   UNL     1       2.389   7.254  18.782  0.00  0.00    +0.000 A 
ATOM     18  C   UNL     1       2.243   6.678  20.066  0.00  0.00    +0.000 A 
ATOM     19  N   UNL     1       2.771   5.454  20.151  0.00  0.00    +0.000 NA
ATOM     20  N   UNL     1       3.261   5.234  18.914  0.00  0.00    +0.000 N 
ATOM     21  C   UNL     1       3.046   6.280  18.057  0.00  0.00    +0.000 A 
BRANCH  20  22
ATOM     22  C   UNL     1       3.995   4.006  18.631  0.00  0.00    +0.000 C 
BRANCH  22  23
ATOM     23  C   UNL     1       5.078   4.253  17.612  0.00  0.00    +0.000 A 
ATOM     24  C   UNL     1       4.850   3.861  16.280  0.00  0.00    +0.000 A 
ATOM     25  C   UNL     1       5.773   4.161  15.277  0.00  0.00    +0.000 A 
ATOM     26  C   UNL     1       6.932   4.865  15.587  0.00  0.00    +0.000 A 
ATOM     27  C   UNL     1       7.185   5.241  16.906  0.00  0.00    +0.000 A 
ATOM     28  C   UNL     1       6.271   4.929  17.915  0.00  0.00    +0.000 A 
ATOM     29 CL   UNL     1       6.679   5.400  19.527  0.00  0.00    +0.000 Cl
ENDBRANCH  22  23
ENDBRANCH  20  22
ENDBRANCH   2  17
TORSDOF 4
ENDMDL
MODEL 6
REMARK VINA RESULT:      -8.2      6.540      9.372
REMARK  Name = 
REMARK  4 active torsions:
REMARK  status: ('A' for Active; 'I' for Inactive)
REMARK    1  A    between atoms: C_2  and  C_14
REMARK    2  A    between atoms: N_3  and  C_4
REMARK    3  A    between atoms: N_17  and  C_18
REMARK    4  A    between atoms: C_18  and  C_19
REMARK                            x       y       z     vdW  Elec       q    Type
REMARK                         _______ _______ _______ _____ _____    ______ ____
ROOT
ATOM      1  O   UNL     1       2.049   7.778  20.575  0.00  0.00    +0.000 OA
ATOM      2  C   UNL     1       1.707   8.361  19.555  0.00  0.00    +0.000 C 
ATOM      3  N   UNL     1       2.182   8.093  18.281  0.00  0.00    +0.000 N 
ATOM      4  H   UNL     1       1.995   8.784  17.569  0.00  0.00    +0.000 HD
ENDROOT
BRANCH   3   5
ATOM      5  C   UNL     1       3.001   7.002  17.910  0.00  0.00    +0.000 A 
ATOM      6  C   UNL     1       2.575   5.657  18.041  0.00  0.00    +0.000 A 
ATOM      7  C   UNL     1       3.398   4.580  17.683  0.00  0.00    +0.000 A 
ATOM      8  C   UNL     1       4.638   4.895  17.197  0.00  0.00    +0.000 A 
ATOM      9  N   UNL     1       5.664   4.054  16.785  0.00  0.00    +0.000 N 
ATOM     10  C   UNL     1       6.750   4.839  16.377  0.00  0.00    +0.000 A 
ATOM     11  O   UNL     1       7.824   4.437  15.970  0.00  0.00    +0.000 OA
ATOM     12  N   UNL     1       6.359   6.179  16.535  0.00  0.00    +0.000 N 
ATOM     13  C   UNL     1       5.064   6.212  17.041  0.00  0.00    +0.000 A 
ATOM     14  C   UNL     1       4.268   7.288  17.374  0.00  0.00    +0.000 A 
ATOM     15  H   UNL     1       5.664   3.047  16.787  0.00  0.00    +0.000 HD
ATOM     16  H   UNL     1       6.958   6.959  16.324  0.00  0.00    +0.000 HD
ENDBRANCH   3   5
BRANCH   2  17
ATOM     17  C   UNL     1       0.739   9.444  19.631  0.00  0.00    +0.000 A 
ATOM     18  C   UNL     1      -0.041   9.786  20.761  0.00  0.00    +0.000 A 
ATOM     19  N   UNL     1      -0.894  10.785  20.523  0.00  0.00    +0.000 NA
ATOM     20  N   UNL     1      -0.666  11.095  19.230  0.00  0.00    +0.000 N 
ATOM     21  C   UNL     1       0.311  10.325  18.658  0.00  0.00    +0.000 A 
BRANCH  20  22
ATOM     22  C   UNL     1      -1.478  12.112  18.572  0.00  0.00    +0.000 C 
BRANCH  22  23
ATOM     23  C   UNL     1      -2.946  11.805  18.724  0.00  0.00    +0.000 A 
ATOM     24  C   UNL     1      -3.693  12.537  19.665  0.00  0.00    +0.000 A 
ATOM     25  C   UNL     1      -5.074  12.369  19.771  0.00  0.00    +0.000 A 
ATOM     26  C   UNL     1      -5.732  11.474  18.933  0.00  0.00    +0.000 A 
ATOM     27  C   UNL     1      -5.005  10.723  18.011  0.00  0.00    +0.000 A 
ATOM     28  C   UNL     1      -3.619  10.878  17.912  0.00  0.00    +0.000 A 
ATOM     29 CL   UNL     1      -2.791   9.882  16.768  0.00  0.00    +0.000 Cl
ENDBRANCH  22  23
ENDBRANCH  20  22
ENDBRANCH   2  17
TORSDOF 4
ENDMDL
MODEL 7
REMARK VINA RESULT:      -8.1      6.452      9.048
REMARK  Name = 
REMARK  4 active torsions:
REMARK  status: ('A' for Active; 'I' for Inactive)
REMARK    1  A    between atoms: C_2  and  C_14
REMARK    2  A    between atoms: N_3  and  C_4
REMARK    3  A    between atoms: N_17  and  C_18
REMARK    4  A    between atoms: C_18  and  C_19
REMARK                            x       y       z     vdW  Elec       q    Type
REMARK                         _______ _______ _______ _____ _____    ______ ____
ROOT
ATOM      1  O   UNL     1       1.984  10.468  17.842  0.00  0.00    +0.000 OA
ATOM      2  C   UNL     1       1.616   9.419  18.351  0.00  0.00    +0.000 C 
ATOM      3  N   UNL     1       0.379   9.204  18.937  0.00  0.00    +0.000 N 
ATOM      4  H   UNL     1       0.284   8.380  19.515  0.00  0.00    +0.000 HD
ENDROOT
BRANCH   3   5
ATOM      5  C   UNL     1      -0.726  10.085  18.900  0.00  0.00    +0.000 A 
ATOM      6  C   UNL     1      -0.862  11.166  19.805  0.00  0.00    +0.000 A 
ATOM      7  C   UNL     1      -1.966  12.029  19.770  0.00  0.00    +0.000 A 
ATOM      8  C   UNL     1      -2.909  11.774  18.811  0.00  0.00    +0.000 A 
ATOM      9  N   UNL     1      -4.103  12.435  18.550  0.00  0.00    +0.000 N 
ATOM     10  C   UNL     1      -4.739  11.801  17.475  0.00  0.00    +0.000 A 
ATOM     11  O   UNL     1      -5.812  12.103  16.985  0.00  0.00    +0.000 OA
ATOM     12  N   UNL     1      -3.901  10.747  17.076  0.00  0.00    +0.000 N 
ATOM     13  C   UNL     1      -2.779  10.730  17.899  0.00  0.00    +0.000 A 
ATOM     14  C   UNL     1      -1.696   9.875  17.906  0.00  0.00    +0.000 A 
ATOM     15  H   UNL     1      -4.482  13.226  19.044  0.00  0.00    +0.000 HD
ATOM     16  H   UNL     1      -4.123  10.116  16.325  0.00  0.00    +0.000 HD
ENDBRANCH   3   5
BRANCH   2  17
ATOM     17  C   UNL     1       2.516   8.277  18.387  0.00  0.00    +0.000 A 
ATOM     18  C   UNL     1       3.434   7.909  17.375  0.00  0.00    +0.000 A 
ATOM     19  N   UNL     1       4.086   6.776  17.650  0.00  0.00    +0.000 NA
ATOM     20  N   UNL     1       3.589   6.407  18.847  0.00  0.00    +0.000 N 
ATOM     21  C   UNL     1       2.653   7.281  19.333  0.00  0.00    +0.000 A 
BRANCH  20  22
ATOM     22  C   UNL     1       4.012   5.149  19.454  0.00  0.00    +0.000 C 
BRANCH  22  23
ATOM     23  C   UNL     1       2.867   4.171  19.508  0.00  0.00    +0.000 A 
ATOM     24  C   UNL     1       2.133   4.061  20.704  0.00  0.00    +0.000 A 
ATOM     25  C   UNL     1       0.999   3.250  20.776  0.00  0.00    +0.000 A 
ATOM     26  C   UNL     1       0.576   2.545  19.654  0.00  0.00    +0.000 A 
ATOM     27  C   UNL     1       1.305   2.624  18.468  0.00  0.00    +0.000 A 
ATOM     28  C   UNL     1       2.449   3.422  18.396  0.00  0.00    +0.000 A 
ATOM     29 CL   UNL     1       3.313   3.435  16.900  0.00  0.00    +0.000 Cl
ENDBRANCH  22  23
ENDBRANCH  20  22
ENDBRANCH   2  17
TORSDOF 4
ENDMDL
MODEL 8
REMARK VINA RESULT:      -8.1      3.934      9.766
REMARK  Name = 
REMARK  4 active torsions:
REMARK  status: ('A' for Active; 'I' for Inactive)
REMARK    1  A    between atoms: C_2  and  C_14
REMARK    2  A    between atoms: N_3  and  C_4
REMARK    3  A    between atoms: N_17  and  C_18
REMARK    4  A    between atoms: C_18  and  C_19
REMARK                            x       y       z     vdW  Elec       q    Type
REMARK                         _______ _______ _______ _____ _____    ______ ____
ROOT
ATOM      1  O   UNL     1       7.938   9.969  17.606  0.00  0.00    +0.000 OA
ATOM      2  C   UNL     1       8.660   9.594  18.520  0.00  0.00    +0.000 C 
ATOM      3  N   UNL     1       8.718   8.300  19.015  0.00  0.00    +0.000 N 
ATOM      4  H   UNL     1       9.178   8.172  19.905  0.00  0.00    +0.000 HD
ENDROOT
BRANCH   3   5
ATOM      5  C   UNL     1       8.094   7.164  18.451  0.00  0.00    +0.000 A 
ATOM      6  C   UNL     1       7.990   5.935  19.148  0.00  0.00    +0.000 A 
ATOM      7  C   UNL     1       7.381   4.808  18.578  0.00  0.00    +0.000 A 
ATOM      8  C   UNL     1       6.887   4.957  17.311  0.00  0.00    +0.000 A 
ATOM      9  N   UNL     1       6.258   4.026  16.493  0.00  0.00    +0.000 N 
ATOM     10  C   UNL     1       5.941   4.642  15.276  0.00  0.00    +0.000 A 
ATOM     11  O   UNL     1       5.397   4.121  14.319  0.00  0.00    +0.000 OA
ATOM     12  N   UNL     1       6.377   5.973  15.372  0.00  0.00    +0.000 N 
ATOM     13  C   UNL     1       6.960   6.164  16.621  0.00  0.00    +0.000 A 
ATOM     14  C   UNL     1       7.544   7.290  17.165  0.00  0.00    +0.000 A 
ATOM     15  H   UNL     1       6.067   3.061  16.706  0.00  0.00    +0.000 HD
ATOM     16  H   UNL     1       6.283   6.642  14.627  0.00  0.00    +0.000 HD
ENDBRANCH   3   5
BRANCH   2  17
ATOM     17  C   UNL     1       9.537  10.543  19.186  0.00  0.00    +0.000 A 
ATOM     18  C   UNL     1       9.456  10.940  20.542  0.00  0.00    +0.000 A 
ATOM     19  N   UNL     1      10.353  11.876  20.865  0.00  0.00    +0.000 NA
ATOM     20  N   UNL     1      11.020  12.087  19.713  0.00  0.00    +0.000 N 
ATOM     21  C   UNL     1      10.573  11.303  18.682  0.00  0.00    +0.000 A 
BRANCH  20  22
ATOM     22  C   UNL     1      12.050  13.118  19.647  0.00  0.00    +0.000 C 
BRANCH  22  23
ATOM     23  C   UNL     1      11.529  14.350  18.952  0.00  0.00    +0.000 A 
ATOM     24  C   UNL     1      11.763  14.494  17.572  0.00  0.00    +0.000 A 
ATOM     25  C   UNL     1      11.213  15.560  16.859  0.00  0.00    +0.000 A 
ATOM     26  C   UNL     1      10.414  16.493  17.511  0.00  0.00    +0.000 A 
ATOM     27  C   UNL     1      10.190  16.379  18.882  0.00  0.00    +0.000 A 
ATOM     28  C   UNL     1      10.752  15.321  19.603  0.00  0.00    +0.000 A 
ATOM     29 CL   UNL     1      10.454  15.276  21.304  0.00  0.00    +0.000 Cl
ENDBRANCH  22  23
ENDBRANCH  20  22
ENDBRANCH   2  17
TORSDOF 4
ENDMDL
MODEL 9
REMARK VINA RESULT:      -8.0      6.276      8.460
REMARK  Name = 
REMARK  4 active torsions:
REMARK  status: ('A' for Active; 'I' for Inactive)
REMARK    1  A    between atoms: C_2  and  C_14
REMARK    2  A    between atoms: N_3  and  C_4
REMARK    3  A    between atoms: N_17  and  C_18
REMARK    4  A    between atoms: C_18  and  C_19
REMARK                            x       y       z     vdW  Elec       q    Type
REMARK                         _______ _______ _______ _____ _____    ______ ____
ROOT
ATOM      1  O   UNL     1       2.132  10.048  17.374  0.00  0.00    +0.000 OA
ATOM      2  C   UNL     1       1.887   9.155  18.174  0.00  0.00    +0.000 C 
ATOM      3  N   UNL     1       0.820   9.142  19.058  0.00  0.00    +0.000 N 
ATOM      4  H   UNL     1       0.859   8.468  19.811  0.00  0.00    +0.000 HD
ENDROOT
BRANCH   3   5
ATOM      5  C   UNL     1      -0.257  10.058  19.078  0.00  0.00    +0.000 A 
ATOM      6  C   UNL     1      -1.183  10.158  18.012  0.00  0.00    +0.000 A 
ATOM      7  C   UNL     1      -2.241  11.077  18.032  0.00  0.00    +0.000 A 
ATOM      8  C   UNL     1      -2.336  11.874  19.140  0.00  0.00    +0.000 A 
ATOM      9  N   UNL     1      -3.253  12.876  19.432  0.00  0.00    +0.000 N 
ATOM     10  C   UNL     1      -2.938  13.421  20.683  0.00  0.00    +0.000 A 
ATOM     11  O   UNL     1      -3.521  14.329  21.248  0.00  0.00    +0.000 OA
ATOM     12  N   UNL     1      -1.818  12.719  21.157  0.00  0.00    +0.000 N 
ATOM     13  C   UNL     1      -1.447  11.772  20.208  0.00  0.00    +0.000 A 
ATOM     14  C   UNL     1      -0.405  10.868  20.216  0.00  0.00    +0.000 A 
ATOM     15  H   UNL     1      -4.013  13.193  18.853  0.00  0.00    +0.000 HD
ATOM     16  H   UNL     1      -1.372  12.916  22.038  0.00  0.00    +0.000 HD
ENDBRANCH   3   5
BRANCH   2  17
ATOM     17  C   UNL     1       2.763   7.997  18.257  0.00  0.00    +0.000 A 
ATOM     18  C   UNL     1       3.728   7.612  17.295  0.00  0.00    +0.000 A 
ATOM     19  N   UNL     1       4.344   6.468  17.603  0.00  0.00    +0.000 NA
ATOM     20  N   UNL     1       3.777   6.108  18.772  0.00  0.00    +0.000 N 
ATOM     21  C   UNL     1       2.832   6.999  19.208  0.00  0.00    +0.000 A 
BRANCH  20  22
ATOM     22  C   UNL     1       4.144   4.844  19.399  0.00  0.00    +0.000 C 
BRANCH  22  23
ATOM     23  C   UNL     1       2.934   3.964  19.579  0.00  0.00    +0.000 A 
ATOM     24  C   UNL     1       2.386   3.829  20.868  0.00  0.00    +0.000 A 
ATOM     25  C   UNL     1       1.205   3.115  21.074  0.00  0.00    +0.000 A 
ATOM     26  C   UNL     1       0.548   2.533  19.995  0.00  0.00    +0.000 A 
ATOM     27  C   UNL     1       1.088   2.637  18.714  0.00  0.00    +0.000 A 
ATOM     28  C   UNL     1       2.278   3.339  18.506  0.00  0.00    +0.000 A 
ATOM     29 CL   UNL     1       2.897   3.389  16.894  0.00  0.00    +0.000 Cl
ENDBRANCH  22  23
ENDBRANCH  20  22
ENDBRANCH   2  17
TORSDOF 4
ENDMDL
