MODEL 1
REMARK VINA RESULT:      -8.9      0.000      0.000
REMARK  Name = 
REMARK  4 active torsions:
REMARK  status: ('A' for Active; 'I' for Inactive)
REMARK    1  A    between atoms: C_2  and  C_3
REMARK    2  A    between atoms: C_3  and  C_4
REMARK    3  A    between atoms: N_14  and  C_15
REMARK    4  A    between atoms: C_19  and  C_20
REMARK                            x       y       z     vdW  Elec       q    Type
REMARK                         _______ _______ _______ _____ _____    ______ ____
ROOT
ATOM      1  O   UNL     1       2.552   8.787  17.147  0.00  0.00    +0.000 OA
ATOM      2  C   UNL     1       2.111   8.500  18.259  0.00  0.00    +0.000 C 
ATOM      3  N   UNL     1       2.029   7.223  18.799  0.00  0.00    +0.000 N 
ATOM      4  H   UNL     1       1.568   7.133  19.698  0.00  0.00    +0.000 HD
ENDROOT
BRANCH   3   5
ATOM      5  C   UNL     1       2.511   6.023  18.221  0.00  0.00    +0.000 A 
ATOM      6  C   UNL     1       1.741   4.863  18.112  0.00  0.00    +0.000 A 
ATOM      7  C   UNL     1       2.272   3.701  17.554  0.00  0.00    +0.000 A 
ATOM      8  C   UNL     1       3.574   3.694  17.056  0.00  0.00    +0.000 A 
ATOM      9  C   UNL     1       4.353   4.856  17.094  0.00  0.00    +0.000 A 
ATOM     10  C   UNL     1       3.820   6.007  17.709  0.00  0.00    +0.000 A 
BRANCH   9  11
ATOM     11  C   UNL     1       5.675   4.899  16.466  0.00  0.00    +0.000 A 
ATOM     12  N   UNL     1       6.785   4.310  16.866  0.00  0.00    +0.000 NA
ATOM     13  N   UNL     1       7.776   4.700  15.998  0.00  0.00    +0.000 NA
ATOM     14  N   UNL     1       7.300   5.512  15.069  0.00  0.00    +0.000 NA
ATOM     15  N   UNL     1       5.999   5.640  15.354  0.00  0.00    +0.000 N 
ATOM     16  H   UNL     1       5.425   6.240  14.781  0.00  0.00    +0.000 HD
ENDBRANCH   9  11
ENDBRANCH   3   5
BRANCH   2  17
ATOM     17  C   UNL     1       1.620   9.600  19.191  0.00  0.00    +0.000 C 
BRANCH  17  18
ATOM     18  C   UNL     1       0.201  10.068  18.967  0.00  0.00    +0.000 A 
ATOM     19  C   UNL     1      -0.396  10.914  19.913  0.00  0.00    +0.000 A 
ATOM     20  C   UNL     1      -1.676  11.431  19.705  0.00  0.00    +0.000 A 
ATOM     21  C   UNL     1      -2.387  11.129  18.536  0.00  0.00    +0.000 A 
ATOM     22  C   UNL     1      -1.805  10.279  17.581  0.00  0.00    +0.000 A 
ATOM     23  C   UNL     1      -0.510   9.779  17.794  0.00  0.00    +0.000 A 
ATOM     24  C   UNL     1      -2.510   9.946  16.287  0.00  0.00    +0.000 C 
ATOM     25  C   UNL     1      -4.008  10.241  16.323  0.00  0.00    +0.000 C 
ATOM     26  C   UNL     1      -4.262  11.625  16.906  0.00  0.00    +0.000 C 
ATOM     27  C   UNL     1      -3.778  11.687  18.353  0.00  0.00    +0.000 C 
ENDBRANCH  17  18
ENDBRANCH   2  17
TORSDOF 4
ENDMDL
MODEL 2
REMARK VINA RESULT:      -8.7      0.783      1.971
REMARK  Name = 
REMARK  4 active torsions:
REMARK  status: ('A' for Active; 'I' for Inactive)
REMARK    1  A    between atoms: C_2  and  C_3
REMARK    2  A    between atoms: C_3  and  C_4
REMARK    3  A    between atoms: N_14  and  C_15
REMARK    4  A    between atoms: C_19  and  C_20
REMARK                            x       y       z     vdW  Elec       q    Type
REMARK                         _______ _______ _______ _____ _____    ______ ____
ROOT
ATOM      1  O   UNL     1       2.374   8.672  17.094  0.00  0.00    +0.000 OA
ATOM      2  C   UNL     1       2.054   8.455  18.262  0.00  0.00    +0.000 C 
ATOM      3  N   UNL     1       2.081   7.221  18.899  0.00  0.00    +0.000 N 
ATOM      4  H   UNL     1       1.713   7.184  19.843  0.00  0.00    +0.000 HD
ENDROOT
BRANCH   3   5
ATOM      5  C   UNL     1       2.558   5.999  18.365  0.00  0.00    +0.000 A 
ATOM      6  C   UNL     1       1.718   4.945  17.996  0.00  0.00    +0.000 A 
ATOM      7  C   UNL     1       2.242   3.754  17.496  0.00  0.00    +0.000 A 
ATOM      8  C   UNL     1       3.617   3.614  17.316  0.00  0.00    +0.000 A 
ATOM      9  C   UNL     1       4.483   4.671  17.618  0.00  0.00    +0.000 A 
ATOM     10  C   UNL     1       3.942   5.849  18.173  0.00  0.00    +0.000 A 
BRANCH   9  11
ATOM     11  C   UNL     1       5.913   4.584  17.321  0.00  0.00    +0.000 A 
ATOM     12  N   UNL     1       6.510   4.695  16.149  0.00  0.00    +0.000 NA
ATOM     13  N   UNL     1       7.848   4.470  16.362  0.00  0.00    +0.000 NA
ATOM     14  N   UNL     1       8.091   4.230  17.640  0.00  0.00    +0.000 NA
ATOM     15  N   UNL     1       6.897   4.298  18.238  0.00  0.00    +0.000 N 
ATOM     16  H   UNL     1       6.831   4.124  19.230  0.00  0.00    +0.000 HD
ENDBRANCH   9  11
ENDBRANCH   3   5
BRANCH   2  17
ATOM     17  C   UNL     1       1.607   9.604  19.156  0.00  0.00    +0.000 C 
BRANCH  17  18
ATOM     18  C   UNL     1       0.229  10.159  18.875  0.00  0.00    +0.000 A 
ATOM     19  C   UNL     1      -0.465   9.719  17.739  0.00  0.00    +0.000 A 
ATOM     20  C   UNL     1      -1.770  10.148  17.486  0.00  0.00    +0.000 A 
ATOM     21  C   UNL     1      -2.420  11.016  18.372  0.00  0.00    +0.000 A 
ATOM     22  C   UNL     1      -1.737  11.469  19.512  0.00  0.00    +0.000 A 
ATOM     23  C   UNL     1      -0.431  11.018  19.765  0.00  0.00    +0.000 A 
ATOM     24  C   UNL     1      -2.400  12.378  20.521  0.00  0.00    +0.000 C 
ATOM     25  C   UNL     1      -3.648  13.070  19.979  0.00  0.00    +0.000 C 
ATOM     26  C   UNL     1      -4.545  12.067  19.267  0.00  0.00    +0.000 C 
ATOM     27  C   UNL     1      -3.823  11.477  18.057  0.00  0.00    +0.000 C 
ENDBRANCH  17  18
ENDBRANCH   2  17
TORSDOF 4
ENDMDL
MODEL 3
REMARK VINA RESULT:      -8.6      4.456      8.349
REMARK  Name = 
REMARK  4 active torsions:
REMARK  status: ('A' for Active; 'I' for Inactive)
REMARK    1  A    between atoms: C_2  and  C_3
REMARK    2  A    between atoms: C_3  and  C_4
REMARK    3  A    between atoms: N_14  and  C_15
REMARK    4  A    between atoms: C_19  and  C_20
REMARK                            x       y       z     vdW  Elec       q    Type
REMARK                         _______ _______ _______ _____ _____    ______ ____
ROOT
ATOM      1  O   UNL     1       0.171  11.874  18.510  0.00  0.00    +0.000 OA
ATOM      2  C   UNL     1      -0.174  10.826  19.055  0.00  0.00    +0.000 C 
ATOM      3  N   UNL     1      -1.402  10.196  18.905  0.00  0.00    +0.000 N 
ATOM      4  H   UNL     1      -1.573   9.379  19.480  0.00  0.00    +0.000 HD
ENDROOT
BRANCH   3   5
ATOM      5  C   UNL     1      -2.456  10.581  18.039  0.00  0.00    +0.000 A 
ATOM      6  C   UNL     1      -3.486  11.443  18.423  0.00  0.00    +0.000 A 
ATOM      7  C   UNL     1      -4.511  11.772  17.537  0.00  0.00    +0.000 A 
ATOM      8  C   UNL     1      -4.499  11.276  16.235  0.00  0.00    +0.000 A 
ATOM      9  C   UNL     1      -3.450  10.459  15.799  0.00  0.00    +0.000 A 
ATOM     10  C   UNL     1      -2.450  10.092  16.722  0.00  0.00    +0.000 A 
BRANCH   9  11
ATOM     11  C   UNL     1      -3.359  10.030  14.402  0.00  0.00    +0.000 A 
ATOM     12  N   UNL     1      -2.279   9.694  13.722  0.00  0.00    +0.000 NA
ATOM     13  N   UNL     1      -2.684   9.436  12.435  0.00  0.00    +0.000 NA
ATOM     14  N   UNL     1      -3.991   9.599  12.308  0.00  0.00    +0.000 NA
ATOM     15  N   UNL     1      -4.413   9.968  13.522  0.00  0.00    +0.000 N 
ATOM     16  H   UNL     1      -5.392  10.172  13.664  0.00  0.00    +0.000 HD
ENDBRANCH   9  11
ENDBRANCH   3   5
BRANCH   2  17
ATOM     17  C   UNL     1       0.795  10.085  19.966  0.00  0.00    +0.000 C 
BRANCH  17  18
ATOM     18  C   UNL     1       1.506   8.902  19.350  0.00  0.00    +0.000 A 
ATOM     19  C   UNL     1       2.038   9.023  18.059  0.00  0.00    +0.000 A 
ATOM     20  C   UNL     1       2.769   7.980  17.485  0.00  0.00    +0.000 A 
ATOM     21  C   UNL     1       3.000   6.795  18.195  0.00  0.00    +0.000 A 
ATOM     22  C   UNL     1       2.470   6.657  19.488  0.00  0.00    +0.000 A 
ATOM     23  C   UNL     1       1.750   7.719  20.061  0.00  0.00    +0.000 A 
ATOM     24  C   UNL     1       2.716   5.416  20.314  0.00  0.00    +0.000 C 
ATOM     25  C   UNL     1       3.185   4.224  19.485  0.00  0.00    +0.000 C 
ATOM     26  C   UNL     1       4.296   4.644  18.531  0.00  0.00    +0.000 C 
ATOM     27  C   UNL     1       3.775   5.680  17.536  0.00  0.00    +0.000 C 
ENDBRANCH  17  18
ENDBRANCH   2  17
TORSDOF 4
ENDMDL
MODEL 4
REMARK VINA RESULT:      -8.6      1.717      2.494
REMARK  Name = 
REMARK  4 active torsions:
REMARK  status: ('A' for Active; 'I' for Inactive)
REMARK    1  A    between atoms: C_2  and  C_3
REMARK    2  A    between atoms: C_3  and  C_4
REMARK    3  A    between atoms: N_14  and  C_15
REMARK    4  A    between atoms: C_19  and  C_20
REMARK                            x       y       z     vdW  Elec       q    Type
REMARK                         _______ _______ _______ _____ _____    ______ ____
ROOT
ATOM      1  O   UNL     1       2.219   8.188  19.253  0.00  0.00    +0.000 OA
ATOM      2  C   UNL     1       2.015   7.454  20.220  0.00  0.00    +0.000 C 
ATOM      3  N   UNL     1       2.119   6.069  20.227  0.00  0.00    +0.000 N 
ATOM      4  H   UNL     1       1.843   5.593  21.079  0.00  0.00    +0.000 HD
ENDROOT
BRANCH   3   5
ATOM      5  C   UNL     1       2.559   5.244  19.164  0.00  0.00    +0.000 A 
ATOM      6  C   UNL     1       1.690   4.506  18.356  0.00  0.00    +0.000 A 
ATOM      7  C   UNL     1       2.179   3.691  17.336  0.00  0.00    +0.000 A 
ATOM      8  C   UNL     1       3.548   3.634  17.080  0.00  0.00    +0.000 A 
ATOM      9  C   UNL     1       4.442   4.407  17.829  0.00  0.00    +0.000 A 
ATOM     10  C   UNL     1       3.937   5.184  18.891  0.00  0.00    +0.000 A 
BRANCH   9  11
ATOM     11  C   UNL     1       5.866   4.451  17.493  0.00  0.00    +0.000 A 
ATOM     12  N   UNL     1       6.417   4.597  16.303  0.00  0.00    +0.000 NA
ATOM     13  N   UNL     1       7.776   4.507  16.482  0.00  0.00    +0.000 NA
ATOM     14  N   UNL     1       8.075   4.314  17.755  0.00  0.00    +0.000 NA
ATOM     15  N   UNL     1       6.896   4.278  18.386  0.00  0.00    +0.000 N 
ATOM     16  H   UNL     1       6.873   4.117  19.383  0.00  0.00    +0.000 HD
ENDBRANCH   9  11
ENDBRANCH   3   5
BRANCH   2  17
ATOM     17  C   UNL     1       1.638   8.055  21.567  0.00  0.00    +0.000 C 
BRANCH  17  18
ATOM     18  C   UNL     1       0.582   9.135  21.535  0.00  0.00    +0.000 A 
ATOM     19  C   UNL     1       0.194   9.746  22.736  0.00  0.00    +0.000 A 
ATOM     20  C   UNL     1      -0.720  10.801  22.741  0.00  0.00    +0.000 A 
ATOM     21  C   UNL     1      -1.260  11.283  21.541  0.00  0.00    +0.000 A 
ATOM     22  C   UNL     1      -0.885  10.678  20.330  0.00  0.00    +0.000 A 
ATOM     23  C   UNL     1       0.049   9.629  20.337  0.00  0.00    +0.000 A 
ATOM     24  C   UNL     1      -1.408  11.178  19.003  0.00  0.00    +0.000 C 
ATOM     25  C   UNL     1      -2.651  12.054  19.137  0.00  0.00    +0.000 C 
ATOM     26  C   UNL     1      -2.453  13.095  20.231  0.00  0.00    +0.000 C 
ATOM     27  C   UNL     1      -2.264  12.410  21.583  0.00  0.00    +0.000 C 
ENDBRANCH  17  18
ENDBRANCH   2  17
TORSDOF 4
ENDMDL
MODEL 5
REMARK VINA RESULT:      -8.6      3.929      8.694
REMARK  Name = 
REMARK  4 active torsions:
REMARK  status: ('A' for Active; 'I' for Inactive)
REMARK    1  A    between atoms: C_2  and  C_3
REMARK    2  A    between atoms: C_3  and  C_4
REMARK    3  A    between atoms: N_14  and  C_15
REMARK    4  A    between atoms: C_19  and  C_20
REMARK                            x       y       z     vdW  Elec       q    Type
REMARK                         _______ _______ _______ _____ _____    ______ ____
ROOT
ATOM      1  O   UNL     1      -0.381   8.653  21.529  0.00  0.00    +0.000 OA
ATOM      2  C   UNL     1       0.708   8.717  20.961  0.00  0.00    +0.000 C 
ATOM      3  N   UNL     1       1.095   9.689  20.048  0.00  0.00    +0.000 N 
ATOM      4  H   UNL     1       1.998   9.566  19.602  0.00  0.00    +0.000 HD
ENDROOT
BRANCH   3   5
ATOM      5  C   UNL     1       0.357  10.833  19.660  0.00  0.00    +0.000 A 
ATOM      6  C   UNL     1       0.690  12.131  20.056  0.00  0.00    +0.000 A 
ATOM      7  C   UNL     1      -0.085  13.221  19.663  0.00  0.00    +0.000 A 
ATOM      8  C   UNL     1      -1.186  13.034  18.829  0.00  0.00    +0.000 A 
ATOM      9  C   UNL     1      -1.513  11.755  18.364  0.00  0.00    +0.000 A 
ATOM     10  C   UNL     1      -0.752  10.658  18.814  0.00  0.00    +0.000 A 
BRANCH   9  11
ATOM     11  C   UNL     1      -2.590  11.558  17.392  0.00  0.00    +0.000 A 
ATOM     12  N   UNL     1      -3.891  11.543  17.611  0.00  0.00    +0.000 NA
ATOM     13  N   UNL     1      -4.492  11.254  16.410  0.00  0.00    +0.000 NA
ATOM     14  N   UNL     1      -3.591  11.097  15.454  0.00  0.00    +0.000 NA
ATOM     15  N   UNL     1      -2.412  11.283  16.057  0.00  0.00    +0.000 N 
ATOM     16  H   UNL     1      -1.562  11.190  15.520  0.00  0.00    +0.000 HD
ENDBRANCH   9  11
ENDBRANCH   3   5
BRANCH   2  17
ATOM     17  C   UNL     1       1.787   7.685  21.262  0.00  0.00    +0.000 C 
BRANCH  17  18
ATOM     18  C   UNL     1       1.941   6.577  20.245  0.00  0.00    +0.000 A 
ATOM     19  C   UNL     1       2.617   6.842  19.046  0.00  0.00    +0.000 A 
ATOM     20  C   UNL     1       2.849   5.827  18.115  0.00  0.00    +0.000 A 
ATOM     21  C   UNL     1       2.425   4.516  18.368  0.00  0.00    +0.000 A 
ATOM     22  C   UNL     1       1.742   4.236  19.563  0.00  0.00    +0.000 A 
ATOM     23  C   UNL     1       1.530   5.262  20.499  0.00  0.00    +0.000 A 
ATOM     24  C   UNL     1       1.292   2.835  19.904  0.00  0.00    +0.000 C 
ATOM     25  C   UNL     1       1.255   1.902  18.696  0.00  0.00    +0.000 C 
ATOM     26  C   UNL     1       2.538   2.031  17.886  0.00  0.00    +0.000 C 
ATOM     27  C   UNL     1       2.672   3.448  17.330  0.00  0.00    +0.000 C 
ENDBRANCH  17  18
ENDBRANCH   2  17
TORSDOF 4
ENDMDL
MODEL 6
REMARK VINA RESULT:      -8.6      1.378      1.565
REMARK  Name = 
REMARK  4 active torsions:
REMARK  status: ('A' for Active; 'I' for Inactive)
REMARK    1  A    between atoms: C_2  and  C_3
REMARK    2  A    between atoms: C_3  and  C_4
REMARK    3  A    between atoms: N_14  and  C_15
REMARK    4  A    between atoms: C_19  and  C_20
REMARK                            x       y       z     vdW  Elec       q    Type
REMARK                         _______ _______ _______ _____ _____    ______ ____
ROOT
ATOM      1  O   UNL     1       2.317   8.526  17.569  0.00  0.00    +0.000 OA
ATOM      2  C   UNL     1       1.936   8.581  18.738  0.00  0.00    +0.000 C 
ATOM      3  N   UNL     1       1.968   7.539  19.655  0.00  0.00    +0.000 N 
ATOM      4  H   UNL     1       1.545   7.711  20.561  0.00  0.00    +0.000 HD
ENDROOT
BRANCH   3   5
ATOM      5  C   UNL     1       2.517   6.248  19.457  0.00  0.00    +0.000 A 
ATOM      6  C   UNL     1       1.738   5.094  19.339  0.00  0.00    +0.000 A 
ATOM      7  C   UNL     1       2.331   3.845  19.167  0.00  0.00    +0.000 A 
ATOM      8  C   UNL     1       3.717   3.734  19.068  0.00  0.00    +0.000 A 
ATOM      9  C   UNL     1       4.524   4.876  19.121  0.00  0.00    +0.000 A 
ATOM     10  C   UNL     1       3.912   6.126  19.349  0.00  0.00    +0.000 A 
BRANCH   9  11
ATOM     11  C   UNL     1       5.968   4.791  18.896  0.00  0.00    +0.000 A 
ATOM     12  N   UNL     1       6.941   5.217  19.679  0.00  0.00    +0.000 NA
ATOM     13  N   UNL     1       8.119   4.980  19.015  0.00  0.00    +0.000 NA
ATOM     14  N   UNL     1       7.895   4.411  17.842  0.00  0.00    +0.000 NA
ATOM     15  N   UNL     1       6.565   4.292  17.763  0.00  0.00    +0.000 N 
ATOM     16  H   UNL     1       6.153   3.897  16.930  0.00  0.00    +0.000 HD
ENDBRANCH   9  11
ENDBRANCH   3   5
BRANCH   2  17
ATOM     17  C   UNL     1       1.398   9.888  19.304  0.00  0.00    +0.000 C 
BRANCH  17  18
ATOM     18  C   UNL     1      -0.027  10.230  18.932  0.00  0.00    +0.000 A 
ATOM     19  C   UNL     1      -0.799  10.993  19.819  0.00  0.00    +0.000 A 
ATOM     20  C   UNL     1      -2.093  11.396  19.479  0.00  0.00    +0.000 A 
ATOM     21  C   UNL     1      -2.642  11.058  18.236  0.00  0.00    +0.000 A 
ATOM     22  C   UNL     1      -1.883  10.288  17.338  0.00  0.00    +0.000 A 
ATOM     23  C   UNL     1      -0.577   9.904  17.685  0.00  0.00    +0.000 A 
ATOM     24  C   UNL     1      -2.410   9.923  15.970  0.00  0.00    +0.000 C 
ATOM     25  C   UNL     1      -3.924  10.078  15.847  0.00  0.00    +0.000 C 
ATOM     26  C   UNL     1      -4.369  11.419  16.417  0.00  0.00    +0.000 C 
ATOM     27  C   UNL     1      -4.051  11.489  17.910  0.00  0.00    +0.000 C 
ENDBRANCH  17  18
ENDBRANCH   2  17
TORSDOF 4
ENDMDL
MODEL 7
REMARK VINA RESULT:      -8.6      1.263      2.171
REMARK  Name = 
REMARK  4 active torsions:
REMARK  status: ('A' for Active; 'I' for Inactive)
REMARK    1  A    between atoms: C_2  and  C_3
REMARK    2  A    between atoms: C_3  and  C_4
REMARK    3  A    between atoms: N_14  and  C_15
REMARK    4  A    between atoms: C_19  and  C_20
REMARK                            x       y       z     vdW  Elec       q    Type
REMARK                         _______ _______ _______ _____ _____    ______ ____
ROOT
ATOM      1  O   UNL     1       1.143   8.767  20.121  0.00  0.00    +0.000 OA
ATOM      2  C   UNL     1       1.423   9.248  19.023  0.00  0.00    +0.000 C 
ATOM      3  N   UNL     1       2.151   8.621  18.021  0.00  0.00    +0.000 N 
ATOM      4  H   UNL     1       2.371   9.173  17.199  0.00  0.00    +0.000 HD
ENDROOT
BRANCH   3   5
ATOM      5  C   UNL     1       2.635   7.290  18.026  0.00  0.00    +0.000 A 
ATOM      6  C   UNL     1       1.875   6.200  18.460  0.00  0.00    +0.000 A 
ATOM      7  C   UNL     1       2.408   4.912  18.465  0.00  0.00    +0.000 A 
ATOM      8  C   UNL     1       3.701   4.687  17.995  0.00  0.00    +0.000 A 
ATOM      9  C   UNL     1       4.468   5.746  17.497  0.00  0.00    +0.000 A 
ATOM     10  C   UNL     1       3.934   7.049  17.548  0.00  0.00    +0.000 A 
BRANCH   9  11
ATOM     11  C   UNL     1       5.778   5.507  16.888  0.00  0.00    +0.000 A 
ATOM     12  N   UNL     1       6.378   6.210  15.947  0.00  0.00    +0.000 NA
ATOM     13  N   UNL     1       7.552   5.560  15.653  0.00  0.00    +0.000 NA
ATOM     14  N   UNL     1       7.692   4.475  16.397  0.00  0.00    +0.000 NA
ATOM     15  N   UNL     1       6.595   4.437  17.163  0.00  0.00    +0.000 N 
ATOM     16  H   UNL     1       6.470   3.670  17.808  0.00  0.00    +0.000 HD
ENDBRANCH   9  11
ENDBRANCH   3   5
BRANCH   2  17
ATOM     17  C   UNL     1       0.934  10.642  18.655  0.00  0.00    +0.000 C 
BRANCH  17  18
ATOM     18  C   UNL     1      -0.555  10.781  18.434  0.00  0.00    +0.000 A 
ATOM     19  C   UNL     1      -1.177   9.987  17.459  0.00  0.00    +0.000 A 
ATOM     20  C   UNL     1      -2.561  10.028  17.278  0.00  0.00    +0.000 A 
ATOM     21  C   UNL     1      -3.361  10.853  18.078  0.00  0.00    +0.000 A 
ATOM     22  C   UNL     1      -2.753  11.658  19.055  0.00  0.00    +0.000 A 
ATOM     23  C   UNL     1      -1.362  11.595  19.240  0.00  0.00    +0.000 A 
ATOM     24  C   UNL     1      -3.569  12.541  19.970  0.00  0.00    +0.000 C 
ATOM     25  C   UNL     1      -4.984  12.796  19.458  0.00  0.00    +0.000 C 
ATOM     26  C   UNL     1      -5.630  11.491  19.010  0.00  0.00    +0.000 C 
ATOM     27  C   UNL     1      -4.851  10.891  17.840  0.00  0.00    +0.000 C 
ENDBRANCH  17  18
ENDBRANCH   2  17
TORSDOF 4
ENDMDL
MODEL 8
REMARK VINA RESULT:      -8.5      2.508      3.005
REMARK  Name = 
REMARK  4 active torsions:
REMARK  status: ('A' for Active; 'I' for Inactive)
REMARK    1  A    between atoms: C_2  and  C_3
REMARK    2  A    between atoms: C_3  and  C_4
REMARK    3  A    between atoms: N_14  and  C_15
REMARK    4  A    between atoms: C_19  and  C_20
REMARK                            x       y       z     vdW  Elec       q    Type
REMARK                         _______ _______ _______ _____ _____    ______ ____
ROOT
ATOM      1  O   UNL     1       1.565   8.373  19.342  0.00  0.00    +0.000 OA
ATOM      2  C   UNL     1       1.872   7.751  20.358  0.00  0.00    +0.000 C 
ATOM      3  N   UNL     1       2.362   6.453  20.401  0.00  0.00    +0.000 N 
ATOM      4  H   UNL     1       2.496   6.043  21.319  0.00  0.00    +0.000 HD
ENDROOT
BRANCH   3   5
ATOM      5  C   UNL     1       2.685   5.628  19.296  0.00  0.00    +0.000 A 
ATOM      6  C   UNL     1       1.769   4.761  18.693  0.00  0.00    +0.000 A 
ATOM      7  C   UNL     1       2.147   3.955  17.621  0.00  0.00    +0.000 A 
ATOM      8  C   UNL     1       3.439   4.034  17.104  0.00  0.00    +0.000 A 
ATOM      9  C   UNL     1       4.363   4.936  17.644  0.00  0.00    +0.000 A 
ATOM     10  C   UNL     1       3.983   5.705  18.762  0.00  0.00    +0.000 A 
BRANCH   9  11
ATOM     11  C   UNL     1       5.682   5.118  17.036  0.00  0.00    +0.000 A 
ATOM     12  N   UNL     1       6.132   6.161  16.365  0.00  0.00    +0.000 NA
ATOM     13  N   UNL     1       7.395   5.840  15.931  0.00  0.00    +0.000 NA
ATOM     14  N   UNL     1       7.737   4.625  16.325  0.00  0.00    +0.000 NA
ATOM     15  N   UNL     1       6.679   4.172  17.008  0.00  0.00    +0.000 N 
ATOM     16  H   UNL     1       6.702   3.239  17.393  0.00  0.00    +0.000 HD
ENDBRANCH   9  11
ENDBRANCH   3   5
BRANCH   2  17
ATOM     17  C   UNL     1       1.755   8.415  21.723  0.00  0.00    +0.000 C 
BRANCH  17  18
ATOM     18  C   UNL     1       0.686   9.476  21.851  0.00  0.00    +0.000 A 
ATOM     19  C   UNL     1      -0.153   9.467  22.975  0.00  0.00    +0.000 A 
ATOM     20  C   UNL     1      -1.101  10.474  23.169  0.00  0.00    +0.000 A 
ATOM     21  C   UNL     1      -1.224  11.525  22.251  0.00  0.00    +0.000 A 
ATOM     22  C   UNL     1      -0.395  11.545  21.117  0.00  0.00    +0.000 A 
ATOM     23  C   UNL     1       0.566  10.536  20.941  0.00  0.00    +0.000 A 
ATOM     24  C   UNL     1      -0.460  12.671  20.112  0.00  0.00    +0.000 C 
ATOM     25  C   UNL     1      -1.743  13.492  20.208  0.00  0.00    +0.000 C 
ATOM     26  C   UNL     1      -2.036  13.851  21.659  0.00  0.00    +0.000 C 
ATOM     27  C   UNL     1      -2.275  12.584  22.479  0.00  0.00    +0.000 C 
ENDBRANCH  17  18
ENDBRANCH   2  17
TORSDOF 4
ENDMDL
MODEL 9
REMARK VINA RESULT:      -8.4      0.859      1.191
REMARK  Name = 
REMARK  4 active torsions:
REMARK  status: ('A' for Active; 'I' for Inactive)
REMARK    1  A    between atoms: C_2  and  C_3
REMARK    2  A    between atoms: C_3  and  C_4
REMARK    3  A    between atoms: N_14  and  C_15
REMARK    4  A    between atoms: C_19  and  C_20
REMARK                            x       y       z     vdW  Elec       q    Type
REMARK                         _______ _______ _______ _____ _____    ______ ____
ROOT
ATOM      1  O   UNL     1       1.938   8.872  17.073  0.00  0.00    +0.000 OA
ATOM      2  C   UNL     1       1.885   8.770  18.299  0.00  0.00    +0.000 C 
ATOM      3  N   UNL     1       2.130   7.617  19.032  0.00  0.00    +0.000 N 
ATOM      4  H   UNL     1       1.970   7.666  20.032  0.00  0.00    +0.000 HD
ENDROOT
BRANCH   3   5
ATOM      5  C   UNL     1       2.570   6.368  18.530  0.00  0.00    +0.000 A 
ATOM      6  C   UNL     1       1.697   5.371  18.086  0.00  0.00    +0.000 A 
ATOM      7  C   UNL     1       2.183   4.149  17.622  0.00  0.00    +0.000 A 
ATOM      8  C   UNL     1       3.557   3.921  17.555  0.00  0.00    +0.000 A 
ATOM      9  C   UNL     1       4.460   4.920  17.935  0.00  0.00    +0.000 A 
ATOM     10  C   UNL     1       3.952   6.128  18.452  0.00  0.00    +0.000 A 
BRANCH   9  11
ATOM     11  C   UNL     1       5.902   4.740  17.756  0.00  0.00    +0.000 A 
ATOM     12  N   UNL     1       6.551   4.416  16.654  0.00  0.00    +0.000 NA
ATOM     13  N   UNL     1       7.877   4.297  16.995  0.00  0.00    +0.000 NA
ATOM     14  N   UNL     1       8.060   4.547  18.281  0.00  0.00    +0.000 NA
ATOM     15  N   UNL     1       6.840   4.821  18.757  0.00  0.00    +0.000 N 
ATOM     16  H   UNL     1       6.728   5.026  19.739  0.00  0.00    +0.000 HD
ENDBRANCH   9  11
ENDBRANCH   3   5
BRANCH   2  17
ATOM     17  C   UNL     1       1.554   9.988  19.150  0.00  0.00    +0.000 C 
BRANCH  17  18
ATOM     18  C   UNL     1       0.114  10.446  19.114  0.00  0.00    +0.000 A 
ATOM     19  C   UNL     1      -0.343  11.341  20.092  0.00  0.00    +0.000 A 
ATOM     20  C   UNL     1      -1.643  11.848  20.048  0.00  0.00    +0.000 A 
ATOM     21  C   UNL     1      -2.517  11.485  19.015  0.00  0.00    +0.000 A 
ATOM     22  C   UNL     1      -2.076  10.585  18.030  0.00  0.00    +0.000 A 
ATOM     23  C   UNL     1      -0.760  10.095  18.076  0.00  0.00    +0.000 A 
ATOM     24  C   UNL     1      -2.962  10.185  16.874  0.00  0.00    +0.000 C 
ATOM     25  C   UNL     1      -4.440  10.483  17.115  0.00  0.00    +0.000 C 
ATOM     26  C   UNL     1      -4.615  11.896  17.655  0.00  0.00    +0.000 C 
ATOM     27  C   UNL     1      -3.923  12.034  19.010  0.00  0.00    +0.000 C 
ENDBRANCH  17  18
ENDBRANCH   2  17
TORSDOF 4
ENDMDL
