MODEL 1
REMARK VINA RESULT:      -8.0      0.000      0.000
REMARK  Name = 
REMARK  6 active torsions:
REMARK  status: ('A' for Active; 'I' for Inactive)
REMARK    1  A    between atoms: C_1  and  C_2
REMARK    2  A    between atoms: C_2  and  C_3
REMARK    3  A    between atoms: C_2  and  C_21
REMARK    4  A    between atoms: C_3  and  C_4
REMARK    5  A    between atoms: C_8  and  N_9
REMARK    6  A    between atoms: N_25  and  C_26
REMARK                            x       y       z     vdW  Elec       q    Type
REMARK                         _______ _______ _______ _____ _____    ______ ____
ROOT
ATOM      1  C   UNL     1       4.190   6.663  17.226  0.00  0.00    +0.000 A 
ATOM      2  C   UNL     1       3.493   7.868  17.396  0.00  0.00    +0.000 A 
ATOM      3  C   UNL     1       2.453   7.952  18.312  0.00  0.00    +0.000 A 
ATOM      4  C   UNL     1       2.028   6.807  18.977  0.00  0.00    +0.000 A 
ATOM      5  C   UNL     1       2.489   5.555  18.540  0.00  0.00    +0.000 A 
ATOM      6  C   UNL     1       3.678   5.495  17.805  0.00  0.00    +0.000 A 
ENDROOT
BRANCH   5   7
ATOM      7  N   UNL     1       1.514   4.475  18.354  0.00  0.00    +0.000 N 
ATOM      8  C   UNL     1       1.060   3.985  19.689  0.00  0.00    +0.000 C 
ATOM      9  C   UNL     1       2.087   2.945  19.988  0.00  0.00    +0.000 A 
ATOM     10  C   UNL     1       2.802   2.746  21.147  0.00  0.00    +0.000 A 
ATOM     11  F   UNL     1       2.454   3.369  22.278  0.00  0.00    +0.000 F 
ATOM     12  C   UNL     1       3.995   2.022  21.089  0.00  0.00    +0.000 A 
ATOM     13  C   UNL     1       4.443   1.476  19.873  0.00  0.00    +0.000 A 
ATOM     14  C   UNL     1       3.710   1.670  18.696  0.00  0.00    +0.000 A 
ATOM     15  C   UNL     1       2.547   2.428  18.782  0.00  0.00    +0.000 A 
ATOM     16  C   UNL     1       2.027   3.310  17.703  0.00  0.00    +0.000 C 
ATOM     17  O   UNL     1       2.231   3.138  16.514  0.00  0.00    +0.000 OA
ENDBRANCH   5   7
BRANCH   1  18
ATOM     18  C   UNL     1       5.456   6.637  16.401  0.00  0.00    +0.000 C 
BRANCH  18  20
ATOM     19  C   UNL     1       6.892   4.722  17.308  0.00  0.00    +0.000 C 
ATOM     20  C   UNL     1       5.984   5.200  16.168  0.00  0.00    +0.000 C 
BRANCH  20  21
ATOM     21  C   UNL     1       6.743   5.138  14.871  0.00  0.00    +0.000 A 
ATOM     22  N   UNL     1       7.918   5.690  14.632  0.00  0.00    +0.000 NA
ATOM     23  N   UNL     1       8.282   5.408  13.346  0.00  0.00    +0.000 NA
ATOM     24  C   UNL     1       7.331   4.675  12.814  0.00  0.00    +0.000 A 
ATOM     25  N   UNL     1       6.352   4.472  13.731  0.00  0.00    +0.000 N 
ATOM     26  C   UNL     1       5.157   3.694  13.524  0.00  0.00    +0.000 C 
ENDBRANCH  20  21
ENDBRANCH  18  20
ENDBRANCH   1  18
TORSDOF 4
ENDMDL
MODEL 2
REMARK VINA RESULT:      -7.8      3.074      6.139
REMARK  Name = 
REMARK  6 active torsions:
REMARK  status: ('A' for Active; 'I' for Inactive)
REMARK    1  A    between atoms: C_1  and  C_2
REMARK    2  A    between atoms: C_2  and  C_3
REMARK    3  A    between atoms: C_2  and  C_21
REMARK    4  A    between atoms: C_3  and  C_4
REMARK    5  A    between atoms: C_8  and  N_9
REMARK    6  A    between atoms: N_25  and  C_26
REMARK                            x       y       z     vdW  Elec       q    Type
REMARK                         _______ _______ _______ _____ _____    ______ ____
ROOT
ATOM      1  C   UNL     1       3.112   6.634  18.536  0.00  0.00    +0.000 A 
ATOM      2  C   UNL     1       4.120   7.259  17.787  0.00  0.00    +0.000 A 
ATOM      3  C   UNL     1       4.707   6.601  16.716  0.00  0.00    +0.000 A 
ATOM      4  C   UNL     1       4.377   5.275  16.458  0.00  0.00    +0.000 A 
ATOM      5  C   UNL     1       3.646   4.557  17.418  0.00  0.00    +0.000 A 
ATOM      6  C   UNL     1       2.877   5.266  18.347  0.00  0.00    +0.000 A 
ENDROOT
BRANCH   5   7
ATOM      7  N   UNL     1       4.109   3.217  17.792  0.00  0.00    +0.000 N 
ATOM      8  C   UNL     1       2.984   2.247  17.648  0.00  0.00    +0.000 C 
ATOM      9  C   UNL     1       2.333   2.347  18.988  0.00  0.00    +0.000 A 
ATOM     10  C   UNL     1       0.998   2.490  19.290  0.00  0.00    +0.000 A 
ATOM     11  F   UNL     1       0.063   2.310  18.350  0.00  0.00    +0.000 F 
ATOM     12  C   UNL     1       0.640   2.993  20.543  0.00  0.00    +0.000 A 
ATOM     13  C   UNL     1       1.625   3.317  21.493  0.00  0.00    +0.000 A 
ATOM     14  C   UNL     1       2.981   3.161  21.189  0.00  0.00    +0.000 A 
ATOM     15  C   UNL     1       3.305   2.695  19.919  0.00  0.00    +0.000 A 
ATOM     16  C   UNL     1       4.521   3.084  19.156  0.00  0.00    +0.000 C 
ATOM     17  O   UNL     1       5.571   3.435  19.664  0.00  0.00    +0.000 OA
ENDBRANCH   5   7
BRANCH   1  18
ATOM     18  C   UNL     1       2.324   7.430  19.549  0.00  0.00    +0.000 C 
BRANCH  18  20
ATOM     19  C   UNL     1       2.153   9.346  17.860  0.00  0.00    +0.000 C 
ATOM     20  C   UNL     1       1.406   8.489  18.890  0.00  0.00    +0.000 C 
BRANCH  20  21
ATOM     21  C   UNL     1       0.818   9.384  19.945  0.00  0.00    +0.000 A 
ATOM     22  N   UNL     1       1.309   9.588  21.153  0.00  0.00    +0.000 NA
ATOM     23  N   UNL     1       0.500  10.468  21.813  0.00  0.00    +0.000 NA
ATOM     24  C   UNL     1      -0.472  10.806  20.997  0.00  0.00    +0.000 A 
ATOM     25  N   UNL     1      -0.312  10.161  19.814  0.00  0.00    +0.000 N 
ATOM     26  C   UNL     1      -1.167  10.297  18.663  0.00  0.00    +0.000 C 
ENDBRANCH  20  21
ENDBRANCH  18  20
ENDBRANCH   1  18
TORSDOF 4
ENDMDL
MODEL 3
REMARK VINA RESULT:      -7.8      2.951      5.907
REMARK  Name = 
REMARK  6 active torsions:
REMARK  status: ('A' for Active; 'I' for Inactive)
REMARK    1  A    between atoms: C_1  and  C_2
REMARK    2  A    between atoms: C_2  and  C_3
REMARK    3  A    between atoms: C_2  and  C_21
REMARK    4  A    between atoms: C_3  and  C_4
REMARK    5  A    between atoms: C_8  and  N_9
REMARK    6  A    between atoms: N_25  and  C_26
REMARK                            x       y       z     vdW  Elec       q    Type
REMARK                         _______ _______ _______ _____ _____    ______ ____
ROOT
ATOM      1  C   UNL     1       2.687   6.466  17.872  0.00  0.00    +0.000 A 
ATOM      2  C   UNL     1       3.814   7.204  17.481  0.00  0.00    +0.000 A 
ATOM      3  C   UNL     1       4.822   6.603  16.741  0.00  0.00    +0.000 A 
ATOM      4  C   UNL     1       4.769   5.237  16.488  0.00  0.00    +0.000 A 
ATOM      5  C   UNL     1       3.834   4.452  17.181  0.00  0.00    +0.000 A 
ATOM      6  C   UNL     1       2.703   5.074  17.720  0.00  0.00    +0.000 A 
ENDROOT
BRANCH   5   7
ATOM      7  N   UNL     1       4.289   3.202  17.798  0.00  0.00    +0.000 N 
ATOM      8  C   UNL     1       3.188   2.196  17.744  0.00  0.00    +0.000 C 
ATOM      9  C   UNL     1       2.449   2.497  19.006  0.00  0.00    +0.000 A 
ATOM     10  C   UNL     1       1.095   2.656  19.196  0.00  0.00    +0.000 A 
ATOM     11  F   UNL     1       0.227   2.304  18.242  0.00  0.00    +0.000 F 
ATOM     12  C   UNL     1       0.649   3.347  20.325  0.00  0.00    +0.000 A 
ATOM     13  C   UNL     1       1.565   3.845  21.269  0.00  0.00    +0.000 A 
ATOM     14  C   UNL     1       2.941   3.673  21.081  0.00  0.00    +0.000 A 
ATOM     15  C   UNL     1       3.353   3.014  19.927  0.00  0.00    +0.000 A 
ATOM     16  C   UNL     1       4.611   3.303  19.188  0.00  0.00    +0.000 C 
ATOM     17  O   UNL     1       5.622   3.756  19.697  0.00  0.00    +0.000 OA
ENDBRANCH   5   7
BRANCH   1  18
ATOM     18  C   UNL     1       1.498   7.174  18.477  0.00  0.00    +0.000 C 
BRANCH  18  20
ATOM     19  C   UNL     1       1.795   7.368  21.012  0.00  0.00    +0.000 C 
ATOM     20  C   UNL     1       1.890   8.090  19.662  0.00  0.00    +0.000 C 
BRANCH  20  21
ATOM     21  C   UNL     1       1.003   9.304  19.686  0.00  0.00    +0.000 A 
ATOM     22  N   UNL     1      -0.043   9.486  20.471  0.00  0.00    +0.000 NA
ATOM     23  N   UNL     1      -0.584  10.711  20.203  0.00  0.00    +0.000 NA
ATOM     24  C   UNL     1       0.143  11.272  19.265  0.00  0.00    +0.000 A 
ATOM     25  N   UNL     1       1.152  10.435  18.915  0.00  0.00    +0.000 N 
ATOM     26  C   UNL     1       2.171  10.714  17.936  0.00  0.00    +0.000 C 
ENDBRANCH  20  21
ENDBRANCH  18  20
ENDBRANCH   1  18
TORSDOF 4
ENDMDL
MODEL 4
REMARK VINA RESULT:      -7.7      3.763      6.566
REMARK  Name = 
REMARK  6 active torsions:
REMARK  status: ('A' for Active; 'I' for Inactive)
REMARK    1  A    between atoms: C_1  and  C_2
REMARK    2  A    between atoms: C_2  and  C_3
REMARK    3  A    between atoms: C_2  and  C_21
REMARK    4  A    between atoms: C_3  and  C_4
REMARK    5  A    between atoms: C_8  and  N_9
REMARK    6  A    between atoms: N_25  and  C_26
REMARK                            x       y       z     vdW  Elec       q    Type
REMARK                         _______ _______ _______ _____ _____    ______ ____
ROOT
ATOM      1  C   UNL     1       1.923   8.319  18.598  0.00  0.00    +0.000 A 
ATOM      2  C   UNL     1       1.608   7.974  19.921  0.00  0.00    +0.000 A 
ATOM      3  C   UNL     1       2.243   6.904  20.535  0.00  0.00    +0.000 A 
ATOM      4  C   UNL     1       3.108   6.102  19.799  0.00  0.00    +0.000 A 
ATOM      5  C   UNL     1       3.139   6.238  18.402  0.00  0.00    +0.000 A 
ATOM      6  C   UNL     1       2.696   7.437  17.833  0.00  0.00    +0.000 A 
ENDROOT
BRANCH   5   7
ATOM      7  N   UNL     1       3.079   5.026  17.578  0.00  0.00    +0.000 N 
ATOM      8  C   UNL     1       1.736   4.393  17.727  0.00  0.00    +0.000 C 
ATOM      9  C   UNL     1       1.951   3.518  18.917  0.00  0.00    +0.000 A 
ATOM     10  C   UNL     1       1.161   3.372  20.035  0.00  0.00    +0.000 A 
ATOM     11  F   UNL     1      -0.082   3.864  20.060  0.00  0.00    +0.000 F 
ATOM     12  C   UNL     1       1.731   2.857  21.201  0.00  0.00    +0.000 A 
ATOM     13  C   UNL     1       3.080   2.462  21.226  0.00  0.00    +0.000 A 
ATOM     14  C   UNL     1       3.880   2.601  20.086  0.00  0.00    +0.000 A 
ATOM     15  C   UNL     1       3.292   3.154  18.953  0.00  0.00    +0.000 A 
ATOM     16  C   UNL     1       4.001   3.999  17.955  0.00  0.00    +0.000 C 
ATOM     17  O   UNL     1       5.194   3.932  17.718  0.00  0.00    +0.000 OA
ENDBRANCH   5   7
BRANCH   1  18
ATOM     18  C   UNL     1       1.400   9.610  18.013  0.00  0.00    +0.000 C 
BRANCH  18  20
ATOM     19  C   UNL     1      -1.084  10.157  17.729  0.00  0.00    +0.000 C 
ATOM     20  C   UNL     1       0.100  10.092  18.703  0.00  0.00    +0.000 C 
BRANCH  20  21
ATOM     21  C   UNL     1       0.316  11.450  19.311  0.00  0.00    +0.000 A 
ATOM     22  N   UNL     1       0.569  12.565  18.651  0.00  0.00    +0.000 NA
ATOM     23  N   UNL     1       0.695  13.587  19.549  0.00  0.00    +0.000 NA
ATOM     24  C   UNL     1       0.506  13.089  20.749  0.00  0.00    +0.000 A 
ATOM     25  N   UNL     1       0.257  11.759  20.651  0.00  0.00    +0.000 N 
ATOM     26  C   UNL     1      -0.025  10.876  21.754  0.00  0.00    +0.000 C 
ENDBRANCH  20  21
ENDBRANCH  18  20
ENDBRANCH   1  18
TORSDOF 4
ENDMDL
MODEL 5
REMARK VINA RESULT:      -7.7      4.862      7.459
REMARK  Name = 
REMARK  6 active torsions:
REMARK  status: ('A' for Active; 'I' for Inactive)
REMARK    1  A    between atoms: C_1  and  C_2
REMARK    2  A    between atoms: C_2  and  C_3
REMARK    3  A    between atoms: C_2  and  C_21
REMARK    4  A    between atoms: C_3  and  C_4
REMARK    5  A    between atoms: C_8  and  N_9
REMARK    6  A    between atoms: N_25  and  C_26
REMARK                            x       y       z     vdW  Elec       q    Type
REMARK                         _______ _______ _______ _____ _____    ______ ____
ROOT
ATOM      1  C   UNL     1       2.187   7.574  19.343  0.00  0.00    +0.000 A 
ATOM      2  C   UNL     1       2.151   8.011  18.011  0.00  0.00    +0.000 A 
ATOM      3  C   UNL     1       1.734   9.299  17.708  0.00  0.00    +0.000 A 
ATOM      4  C   UNL     1       1.241  10.118  18.718  0.00  0.00    +0.000 A 
ATOM      5  C   UNL     1       0.950   9.555  19.969  0.00  0.00    +0.000 A 
ATOM      6  C   UNL     1       1.576   8.357  20.330  0.00  0.00    +0.000 A 
ENDROOT
BRANCH   5   7
ATOM      7  N   UNL     1      -0.338   9.870  20.598  0.00  0.00    +0.000 N 
ATOM      8  C   UNL     1      -1.196  10.605  19.622  0.00  0.00    +0.000 C 
ATOM      9  C   UNL     1      -0.782  12.017  19.869  0.00  0.00    +0.000 A 
ATOM     10  C   UNL     1      -0.448  12.990  18.954  0.00  0.00    +0.000 A 
ATOM     11  F   UNL     1      -0.703  12.819  17.652  0.00  0.00    +0.000 F 
ATOM     12  C   UNL     1       0.314  14.082  19.378  0.00  0.00    +0.000 A 
ATOM     13  C   UNL     1       0.707  14.203  20.722  0.00  0.00    +0.000 A 
ATOM     14  C   UNL     1       0.357  13.219  21.654  0.00  0.00    +0.000 A 
ATOM     15  C   UNL     1      -0.368  12.126  21.191  0.00  0.00    +0.000 A 
ATOM     16  C   UNL     1      -0.255  10.743  21.727  0.00  0.00    +0.000 C 
ATOM     17  O   UNL     1       0.074  10.471  22.869  0.00  0.00    +0.000 OA
ENDBRANCH   5   7
BRANCH   1  18
ATOM     18  C   UNL     1       2.849   6.260  19.685  0.00  0.00    +0.000 C 
BRANCH  18  20
ATOM     19  C   UNL     1       2.463   4.080  18.400  0.00  0.00    +0.000 C 
ATOM     20  C   UNL     1       3.200   5.425  18.428  0.00  0.00    +0.000 C 
BRANCH  20  21
ATOM     21  C   UNL     1       4.682   5.179  18.374  0.00  0.00    +0.000 A 
ATOM     22  N   UNL     1       5.375   4.425  19.206  0.00  0.00    +0.000 NA
ATOM     23  N   UNL     1       6.687   4.445  18.827  0.00  0.00    +0.000 NA
ATOM     24  C   UNL     1       6.782   5.202  17.759  0.00  0.00    +0.000 A 
ATOM     25  N   UNL     1       5.554   5.677  17.432  0.00  0.00    +0.000 N 
ATOM     26  C   UNL     1       5.255   6.521  16.304  0.00  0.00    +0.000 C 
ENDBRANCH  20  21
ENDBRANCH  18  20
ENDBRANCH   1  18
TORSDOF 4
ENDMDL
MODEL 6
REMARK VINA RESULT:      -7.7      1.775      2.597
REMARK  Name = 
REMARK  6 active torsions:
REMARK  status: ('A' for Active; 'I' for Inactive)
REMARK    1  A    between atoms: C_1  and  C_2
REMARK    2  A    between atoms: C_2  and  C_3
REMARK    3  A    between atoms: C_2  and  C_21
REMARK    4  A    between atoms: C_3  and  C_4
REMARK    5  A    between atoms: C_8  and  N_9
REMARK    6  A    between atoms: N_25  and  C_26
REMARK                            x       y       z     vdW  Elec       q    Type
REMARK                         _______ _______ _______ _____ _____    ______ ____
ROOT
ATOM      1  C   UNL     1       4.040   6.698  17.038  0.00  0.00    +0.000 A 
ATOM      2  C   UNL     1       3.412   7.877  17.467  0.00  0.00    +0.000 A 
ATOM      3  C   UNL     1       2.552   7.856  18.556  0.00  0.00    +0.000 A 
ATOM      4  C   UNL     1       2.223   6.642  19.150  0.00  0.00    +0.000 A 
ATOM      5  C   UNL     1       2.570   5.449  18.496  0.00  0.00    +0.000 A 
ATOM      6  C   UNL     1       3.609   5.472  17.560  0.00  0.00    +0.000 A 
ENDROOT
BRANCH   5   7
ATOM      7  N   UNL     1       1.552   4.402  18.364  0.00  0.00    +0.000 N 
ATOM      8  C   UNL     1       1.131   3.947  19.722  0.00  0.00    +0.000 C 
ATOM      9  C   UNL     1       2.132   2.876  19.999  0.00  0.00    +0.000 A 
ATOM     10  C   UNL     1       2.882   2.669  21.135  0.00  0.00    +0.000 A 
ATOM     11  F   UNL     1       2.598   3.320  22.267  0.00  0.00    +0.000 F 
ATOM     12  C   UNL     1       4.047   1.903  21.043  0.00  0.00    +0.000 A 
ATOM     13  C   UNL     1       4.430   1.324  19.821  0.00  0.00    +0.000 A 
ATOM     14  C   UNL     1       3.661   1.526  18.669  0.00  0.00    +0.000 A 
ATOM     15  C   UNL     1       2.529   2.326  18.786  0.00  0.00    +0.000 A 
ATOM     16  C   UNL     1       2.000   3.210  17.713  0.00  0.00    +0.000 C 
ATOM     17  O   UNL     1       2.154   3.014  16.520  0.00  0.00    +0.000 OA
ENDBRANCH   5   7
BRANCH   1  18
ATOM     18  C   UNL     1       5.139   6.766  16.004  0.00  0.00    +0.000 C 
BRANCH  18  20
ATOM     19  C   UNL     1       5.482   4.230  15.940  0.00  0.00    +0.000 C 
ATOM     20  C   UNL     1       6.148   5.598  16.132  0.00  0.00    +0.000 C 
BRANCH  20  21
ATOM     21  C   UNL     1       6.811   5.641  17.481  0.00  0.00    +0.000 A 
ATOM     22  N   UNL     1       6.862   4.652  18.353  0.00  0.00    +0.000 NA
ATOM     23  N   UNL     1       7.555   5.071  19.453  0.00  0.00    +0.000 NA
ATOM     24  C   UNL     1       7.932   6.310  19.238  0.00  0.00    +0.000 A 
ATOM     25  N   UNL     1       7.499   6.708  18.015  0.00  0.00    +0.000 N 
ATOM     26  C   UNL     1       7.741   7.996  17.418  0.00  0.00    +0.000 C 
ENDBRANCH  20  21
ENDBRANCH  18  20
ENDBRANCH   1  18
TORSDOF 4
ENDMDL
MODEL 7
REMARK VINA RESULT:      -7.7      3.271      5.807
REMARK  Name = 
REMARK  6 active torsions:
REMARK  status: ('A' for Active; 'I' for Inactive)
REMARK    1  A    between atoms: C_1  and  C_2
REMARK    2  A    between atoms: C_2  and  C_3
REMARK    3  A    between atoms: C_2  and  C_21
REMARK    4  A    between atoms: C_3  and  C_4
REMARK    5  A    between atoms: C_8  and  N_9
REMARK    6  A    between atoms: N_25  and  C_26
REMARK                            x       y       z     vdW  Elec       q    Type
REMARK                         _______ _______ _______ _____ _____    ______ ____
ROOT
ATOM      1  C   UNL     1       3.520   5.879  18.406  0.00  0.00    +0.000 A 
ATOM      2  C   UNL     1       4.640   6.229  19.175  0.00  0.00    +0.000 A 
ATOM      3  C   UNL     1       5.787   5.450  19.136  0.00  0.00    +0.000 A 
ATOM      4  C   UNL     1       5.785   4.257  18.422  0.00  0.00    +0.000 A 
ATOM      5  C   UNL     1       4.564   3.744  17.958  0.00  0.00    +0.000 A 
ATOM      6  C   UNL     1       3.485   4.620  17.793  0.00  0.00    +0.000 A 
ENDROOT
BRANCH   5   7
ATOM      7  N   UNL     1       4.266   2.327  18.189  0.00  0.00    +0.000 N 
ATOM      8  C   UNL     1       2.865   2.040  17.758  0.00  0.00    +0.000 C 
ATOM      9  C   UNL     1       2.103   2.356  19.001  0.00  0.00    +0.000 A 
ATOM     10  C   UNL     1       0.961   3.111  19.145  0.00  0.00    +0.000 A 
ATOM     11  F   UNL     1       0.243   3.472  18.075  0.00  0.00    +0.000 F 
ATOM     12  C   UNL     1       0.656   3.641  20.400  0.00  0.00    +0.000 A 
ATOM     13  C   UNL     1       1.482   3.381  21.508  0.00  0.00    +0.000 A 
ATOM     14  C   UNL     1       2.637   2.604  21.364  0.00  0.00    +0.000 A 
ATOM     15  C   UNL     1       2.932   2.124  20.092  0.00  0.00    +0.000 A 
ATOM     16  C   UNL     1       4.306   1.921  19.559  0.00  0.00    +0.000 C 
ATOM     17  O   UNL     1       5.284   1.681  20.247  0.00  0.00    +0.000 OA
ENDBRANCH   5   7
BRANCH   1  18
ATOM     18  C   UNL     1       2.365   6.844  18.277  0.00  0.00    +0.000 C 
BRANCH  18  20
ATOM     19  C   UNL     1       1.491   6.952  20.681  0.00  0.00    +0.000 C 
ATOM     20  C   UNL     1       2.177   7.718  19.542  0.00  0.00    +0.000 C 
BRANCH  20  21
ATOM     21  C   UNL     1       1.363   8.936  19.205  0.00  0.00    +0.000 A 
ATOM     22  N   UNL     1       0.965   9.296  17.999  0.00  0.00    +0.000 NA
ATOM     23  N   UNL     1       0.245  10.452  18.101  0.00  0.00    +0.000 NA
ATOM     24  C   UNL     1       0.198  10.782  19.371  0.00  0.00    +0.000 A 
ATOM     25  N   UNL     1       0.875   9.861  20.102  0.00  0.00    +0.000 N 
ATOM     26  C   UNL     1       1.021   9.871  21.535  0.00  0.00    +0.000 C 
ENDBRANCH  20  21
ENDBRANCH  18  20
ENDBRANCH   1  18
TORSDOF 4
ENDMDL
MODEL 8
REMARK VINA RESULT:      -7.7      0.927      1.104
REMARK  Name = 
REMARK  6 active torsions:
REMARK  status: ('A' for Active; 'I' for Inactive)
REMARK    1  A    between atoms: C_1  and  C_2
REMARK    2  A    between atoms: C_2  and  C_3
REMARK    3  A    between atoms: C_2  and  C_21
REMARK    4  A    between atoms: C_3  and  C_4
REMARK    5  A    between atoms: C_8  and  N_9
REMARK    6  A    between atoms: N_25  and  C_26
REMARK                            x       y       z     vdW  Elec       q    Type
REMARK                         _______ _______ _______ _____ _____    ______ ____
ROOT
ATOM      1  C   UNL     1       4.580   5.987  17.585  0.00  0.00    +0.000 A 
ATOM      2  C   UNL     1       4.216   7.281  17.185  0.00  0.00    +0.000 A 
ATOM      3  C   UNL     1       3.199   7.957  17.845  0.00  0.00    +0.000 A 
ATOM      4  C   UNL     1       2.464   7.304  18.828  0.00  0.00    +0.000 A 
ATOM      5  C   UNL     1       2.598   5.914  18.968  0.00  0.00    +0.000 A 
ATOM      6  C   UNL     1       3.757   5.298  18.486  0.00  0.00    +0.000 A 
ENDROOT
BRANCH   5   7
ATOM      7  N   UNL     1       1.382   5.100  19.072  0.00  0.00    +0.000 N 
ATOM      8  C   UNL     1       1.426   4.307  20.336  0.00  0.00    +0.000 C 
ATOM      9  C   UNL     1       2.154   3.082  19.891  0.00  0.00    +0.000 A 
ATOM     10  C   UNL     1       3.210   2.439  20.497  0.00  0.00    +0.000 A 
ATOM     11  F   UNL     1       3.562   2.740  21.751  0.00  0.00    +0.000 F 
ATOM     12  C   UNL     1       4.015   1.595  19.729  0.00  0.00    +0.000 A 
ATOM     13  C   UNL     1       3.734   1.378  18.369  0.00  0.00    +0.000 A 
ATOM     14  C   UNL     1       2.653   2.023  17.757  0.00  0.00    +0.000 A 
ATOM     15  C   UNL     1       1.895   2.888  18.540  0.00  0.00    +0.000 A 
ATOM     16  C   UNL     1       1.228   4.120  18.041  0.00  0.00    +0.000 C 
ATOM     17  O   UNL     1       0.850   4.284  16.894  0.00  0.00    +0.000 OA
ENDBRANCH   5   7
BRANCH   1  18
ATOM     18  C   UNL     1       5.826   5.348  17.017  0.00  0.00    +0.000 C 
BRANCH  18  20
ATOM     19  C   UNL     1       5.520   3.043  15.946  0.00  0.00    +0.000 C 
ATOM     20  C   UNL     1       5.549   4.559  15.714  0.00  0.00    +0.000 C 
BRANCH  20  21
ATOM     21  C   UNL     1       6.599   4.883  14.687  0.00  0.00    +0.000 A 
ATOM     22  N   UNL     1       7.680   5.612  14.886  0.00  0.00    +0.000 NA
ATOM     23  N   UNL     1       8.390   5.672  13.720  0.00  0.00    +0.000 NA
ATOM     24  C   UNL     1       7.741   4.967  12.822  0.00  0.00    +0.000 A 
ATOM     25  N   UNL     1       6.620   4.446  13.381  0.00  0.00    +0.000 N 
ATOM     26  C   UNL     1       5.668   3.596  12.714  0.00  0.00    +0.000 C 
ENDBRANCH  20  21
ENDBRANCH  18  20
ENDBRANCH   1  18
TORSDOF 4
ENDMDL
MODEL 9
REMARK VINA RESULT:      -7.7      2.024      3.511
REMARK  Name = 
REMARK  6 active torsions:
REMARK  status: ('A' for Active; 'I' for Inactive)
REMARK    1  A    between atoms: C_1  and  C_2
REMARK    2  A    between atoms: C_2  and  C_3
REMARK    3  A    between atoms: C_2  and  C_21
REMARK    4  A    between atoms: C_3  and  C_4
REMARK    5  A    between atoms: C_8  and  N_9
REMARK    6  A    between atoms: N_25  and  C_26
REMARK                            x       y       z     vdW  Elec       q    Type
REMARK                         _______ _______ _______ _____ _____    ______ ____
ROOT
ATOM      1  C   UNL     1       6.266   4.310  17.417  0.00  0.00    +0.000 A 
ATOM      2  C   UNL     1       6.339   5.051  18.606  0.00  0.00    +0.000 A 
ATOM      3  C   UNL     1       5.551   4.706  19.695  0.00  0.00    +0.000 A 
ATOM      4  C   UNL     1       4.604   3.695  19.567  0.00  0.00    +0.000 A 
ATOM      5  C   UNL     1       4.295   3.210  18.286  0.00  0.00    +0.000 A 
ATOM      6  C   UNL     1       5.230   3.381  17.259  0.00  0.00    +0.000 A 
ENDROOT
BRANCH   5   7
ATOM      7  N   UNL     1       2.885   3.068  17.912  0.00  0.00    +0.000 N 
ATOM      8  C   UNL     1       2.452   4.276  17.149  0.00  0.00    +0.000 C 
ATOM      9  C   UNL     1       2.020   5.183  18.252  0.00  0.00    +0.000 A 
ATOM     10  C   UNL     1       2.328   6.511  18.448  0.00  0.00    +0.000 A 
ATOM     11  F   UNL     1       2.899   7.229  17.474  0.00  0.00    +0.000 F 
ATOM     12  C   UNL     1       2.196   7.052  19.728  0.00  0.00    +0.000 A 
ATOM     13  C   UNL     1       1.725   6.266  20.794  0.00  0.00    +0.000 A 
ATOM     14  C   UNL     1       1.401   4.919  20.592  0.00  0.00    +0.000 A 
ATOM     15  C   UNL     1       1.581   4.401  19.314  0.00  0.00    +0.000 A 
ATOM     16  C   UNL     1       1.976   2.999  19.014  0.00  0.00    +0.000 C 
ATOM     17  O   UNL     1       1.735   2.045  19.734  0.00  0.00    +0.000 OA
ENDBRANCH   5   7
BRANCH   1  18
ATOM     18  C   UNL     1       7.279   4.546  16.321  0.00  0.00    +0.000 C 
BRANCH  18  20
ATOM     19  C   UNL     1       5.343   6.013  15.514  0.00  0.00    +0.000 C 
ATOM     20  C   UNL     1       6.726   5.439  15.183  0.00  0.00    +0.000 C 
BRANCH  20  21
ATOM     21  C   UNL     1       6.640   4.647  13.908  0.00  0.00    +0.000 A 
ATOM     22  N   UNL     1       5.781   3.678  13.651  0.00  0.00    +0.000 NA
ATOM     23  N   UNL     1       6.013   3.209  12.389  0.00  0.00    +0.000 NA
ATOM     24  C   UNL     1       7.003   3.905  11.881  0.00  0.00    +0.000 A 
ATOM     25  N   UNL     1       7.423   4.821  12.788  0.00  0.00    +0.000 N 
ATOM     26  C   UNL     1       8.476   5.783  12.583  0.00  0.00    +0.000 C 
ENDBRANCH  20  21
ENDBRANCH  18  20
ENDBRANCH   1  18
TORSDOF 4
ENDMDL
