MODEL 1
REMARK VINA RESULT:      -8.4      0.000      0.000
REMARK  Name = 
REMARK  4 active torsions:
REMARK  status: ('A' for Active; 'I' for Inactive)
REMARK    1  A    between atoms: C_2  and  C_3
REMARK    2  A    between atoms: C_16  and  N_17
REMARK    3  A    between atoms: C_20  and  N_21
REMARK    4  A    between atoms: C_24  and  O_25
REMARK                            x       y       z     vdW  Elec       q    Type
REMARK                         _______ _______ _______ _____ _____    ______ ____
ROOT
ATOM      1  O   UNL     1      -0.338  10.611  23.399  0.00  0.00    +0.000 OA
ATOM      2  C   UNL     1      -0.736  11.476  22.623  0.00  0.00    +0.000 C 
ATOM      3  N   UNL     1      -0.259  11.539  21.304  0.00  0.00    +0.000 N 
ATOM      4  C   UNL     1      -0.807  12.351  20.218  0.00  0.00    +0.000 C 
ATOM      5  C   UNL     1      -1.335  11.493  19.079  0.00  0.00    +0.000 C 
ATOM      6  C   UNL     1      -0.261  10.548  18.573  0.00  0.00    +0.000 C 
ATOM      7  C   UNL     1       0.314   9.691  19.718  0.00  0.00    +0.000 C 
ATOM      8  C   UNL     1       0.786  10.583  20.885  0.00  0.00    +0.000 C 
ENDROOT
BRANCH   2   9
ATOM      9  C   UNL     1      -1.728  12.447  23.051  0.00  0.00    +0.000 A 
ATOM     10  C   UNL     1      -3.103  12.277  23.136  0.00  0.00    +0.000 A 
ATOM     11  C   UNL     1      -3.690  13.519  23.510  0.00  0.00    +0.000 A 
ATOM     12  C   UNL     1      -5.010  13.974  23.688  0.00  0.00    +0.000 A 
ATOM     13  C   UNL     1      -5.231  15.316  24.021  0.00  0.00    +0.000 A 
ATOM     14  C   UNL     1      -4.163  16.201  24.163  0.00  0.00    +0.000 A 
ATOM     15  C   UNL     1      -2.843  15.766  24.008  0.00  0.00    +0.000 A 
ATOM     16  C   UNL     1      -2.645  14.416  23.701  0.00  0.00    +0.000 A 
ATOM     17  N   UNL     1      -1.480  13.703  23.557  0.00  0.00    +0.000 N 
ATOM     18  H   UNL     1      -0.560  14.084  23.719  0.00  0.00    +0.000 HD
ENDBRANCH   2   9
BRANCH   7  19
ATOM     19  N   UNL     1       1.379   8.800  19.234  0.00  0.00    +0.000 N 
ATOM     20  N   UNL     1       1.990   9.148  18.052  0.00  0.00    +0.000 NA
ATOM     21  C   UNL     1       2.869   8.327  17.579  0.00  0.00    +0.000 A 
ATOM     22  C   UNL     1       3.315   7.039  18.181  0.00  0.00    +0.000 A 
ATOM     23  C   UNL     1       2.745   6.792  19.366  0.00  0.00    +0.000 A 
ATOM     24  C   UNL     1       1.739   7.686  19.977  0.00  0.00    +0.000 A 
ATOM     25  O   UNL     1       1.262   7.386  21.068  0.00  0.00    +0.000 OA
BRANCH  22  26
ATOM     26  N   UNL     1       4.244   6.246  17.513  0.00  0.00    +0.000 N 
ATOM     27  C   UNL     1       4.110   4.805  17.272  0.00  0.00    +0.000 C 
ATOM     28  C   UNL     1       5.381   4.386  16.547  0.00  0.00    +0.000 C 
ATOM     29  C   UNL     1       5.879   5.665  15.896  0.00  0.00    +0.000 C 
ATOM     30  C   UNL     1       5.485   6.745  16.910  0.00  0.00    +0.000 C 
BRANCH  29  31
ATOM     31  O   UNL     1       7.275   5.609  15.654  0.00  0.00    +0.000 OA
ATOM     32  H   UNL     1       7.473   4.787  15.172  0.00  0.00    +0.000 HD
ENDBRANCH  29  31
ENDBRANCH  22  26
ENDBRANCH   7  19
TORSDOF 4
ENDMDL
MODEL 2
REMARK VINA RESULT:      -8.3      1.041      1.068
REMARK  Name = 
REMARK  4 active torsions:
REMARK  status: ('A' for Active; 'I' for Inactive)
REMARK    1  A    between atoms: C_2  and  C_3
REMARK    2  A    between atoms: C_16  and  N_17
REMARK    3  A    between atoms: C_20  and  N_21
REMARK    4  A    between atoms: C_24  and  O_25
REMARK                            x       y       z     vdW  Elec       q    Type
REMARK                         _______ _______ _______ _____ _____    ______ ____
ROOT
ATOM      1  O   UNL     1       0.251  10.189  23.191  0.00  0.00    +0.000 OA
ATOM      2  C   UNL     1      -0.180  10.987  22.363  0.00  0.00    +0.000 C 
ATOM      3  N   UNL     1       0.273  10.966  21.034  0.00  0.00    +0.000 N 
ATOM      4  C   UNL     1      -0.311  11.686  19.904  0.00  0.00    +0.000 C 
ATOM      5  C   UNL     1      -0.839  10.738  18.838  0.00  0.00    +0.000 C 
ATOM      6  C   UNL     1       0.248   9.783  18.381  0.00  0.00    +0.000 C 
ATOM      7  C   UNL     1       0.861   9.022  19.572  0.00  0.00    +0.000 C 
ATOM      8  C   UNL     1       1.332  10.005  20.665  0.00  0.00    +0.000 C 
ENDROOT
BRANCH   2   9
ATOM      9  C   UNL     1      -1.186  11.964  22.740  0.00  0.00    +0.000 A 
ATOM     10  C   UNL     1      -2.467  11.726  23.217  0.00  0.00    +0.000 A 
ATOM     11  C   UNL     1      -3.135  12.973  23.364  0.00  0.00    +0.000 A 
ATOM     12  C   UNL     1      -4.436  13.360  23.738  0.00  0.00    +0.000 A 
ATOM     13  C   UNL     1      -4.776  14.718  23.725  0.00  0.00    +0.000 A 
ATOM     14  C   UNL     1      -3.847  15.682  23.335  0.00  0.00    +0.000 A 
ATOM     15  C   UNL     1      -2.545  15.322  22.976  0.00  0.00    +0.000 A 
ATOM     16  C   UNL     1      -2.220  13.963  23.022  0.00  0.00    +0.000 A 
ATOM     17  N   UNL     1      -1.023  13.331  22.791  0.00  0.00    +0.000 N 
ATOM     18  H   UNL     1      -0.157  13.811  22.599  0.00  0.00    +0.000 HD
ENDBRANCH   2   9
BRANCH   7  19
ATOM     19  N   UNL     1       1.938   8.122  19.134  0.00  0.00    +0.000 N 
ATOM     20  N   UNL     1       2.690   8.532  18.058  0.00  0.00    +0.000 NA
ATOM     21  C   UNL     1       3.583   7.710  17.615  0.00  0.00    +0.000 A 
ATOM     22  C   UNL     1       3.908   6.359  18.151  0.00  0.00    +0.000 A 
ATOM     23  C   UNL     1       3.201   6.047  19.242  0.00  0.00    +0.000 A 
ATOM     24  C   UNL     1       2.169   6.937  19.814  0.00  0.00    +0.000 A 
ATOM     25  O   UNL     1       1.561   6.574  20.819  0.00  0.00    +0.000 OA
BRANCH  22  26
ATOM     26  N   UNL     1       4.875   5.578  17.523  0.00  0.00    +0.000 N 
ATOM     27  C   UNL     1       4.713   4.910  16.227  0.00  0.00    +0.000 C 
ATOM     28  C   UNL     1       6.011   4.155  15.983  0.00  0.00    +0.000 C 
ATOM     29  C   UNL     1       7.036   4.894  16.827  0.00  0.00    +0.000 C 
ATOM     30  C   UNL     1       6.224   5.338  18.048  0.00  0.00    +0.000 C 
BRANCH  29  31
ATOM     31  O   UNL     1       8.130   4.054  17.159  0.00  0.00    +0.000 OA
ATOM     32  H   UNL     1       7.884   3.518  17.933  0.00  0.00    +0.000 HD
ENDBRANCH  29  31
ENDBRANCH  22  26
ENDBRANCH   7  19
TORSDOF 4
ENDMDL
MODEL 3
REMARK VINA RESULT:      -8.1      0.574      1.097
REMARK  Name = 
REMARK  4 active torsions:
REMARK  status: ('A' for Active; 'I' for Inactive)
REMARK    1  A    between atoms: C_2  and  C_3
REMARK    2  A    between atoms: C_16  and  N_17
REMARK    3  A    between atoms: C_20  and  N_21
REMARK    4  A    between atoms: C_24  and  O_25
REMARK                            x       y       z     vdW  Elec       q    Type
REMARK                         _______ _______ _______ _____ _____    ______ ____
ROOT
ATOM      1  O   UNL     1      -0.366  10.736  23.310  0.00  0.00    +0.000 OA
ATOM      2  C   UNL     1      -0.674  11.608  22.502  0.00  0.00    +0.000 C 
ATOM      3  N   UNL     1      -0.130  11.621  21.208  0.00  0.00    +0.000 N 
ATOM      4  C   UNL     1      -0.574  12.444  20.084  0.00  0.00    +0.000 C 
ATOM      5  C   UNL     1      -1.095  11.599  18.932  0.00  0.00    +0.000 C 
ATOM      6  C   UNL     1      -0.055  10.585  18.495  0.00  0.00    +0.000 C 
ATOM      7  C   UNL     1       0.411   9.715  19.679  0.00  0.00    +0.000 C 
ATOM      8  C   UNL     1       0.877  10.599  20.856  0.00  0.00    +0.000 C 
ENDROOT
BRANCH   2   9
ATOM      9  C   UNL     1      -1.627  12.642  22.866  0.00  0.00    +0.000 A 
ATOM     10  C   UNL     1      -1.370  13.851  23.499  0.00  0.00    +0.000 A 
ATOM     11  C   UNL     1      -2.610  14.506  23.743  0.00  0.00    +0.000 A 
ATOM     12  C   UNL     1      -2.987  15.699  24.389  0.00  0.00    +0.000 A 
ATOM     13  C   UNL     1      -4.346  16.021  24.490  0.00  0.00    +0.000 A 
ATOM     14  C   UNL     1      -5.321  15.170  23.971  0.00  0.00    +0.000 A 
ATOM     15  C   UNL     1      -4.969  13.990  23.311  0.00  0.00    +0.000 A 
ATOM     16  C   UNL     1      -3.605  13.701  23.198  0.00  0.00    +0.000 A 
ATOM     17  N   UNL     1      -2.969  12.666  22.558  0.00  0.00    +0.000 N 
ATOM     18  H   UNL     1      -3.441  11.967  22.005  0.00  0.00    +0.000 HD
ENDBRANCH   2   9
BRANCH   7  19
ATOM     19  N   UNL     1       1.445   8.757  19.263  0.00  0.00    +0.000 N 
ATOM     20  N   UNL     1       2.100   9.022  18.083  0.00  0.00    +0.000 NA
ATOM     21  C   UNL     1       2.950   8.142  17.669  0.00  0.00    +0.000 A 
ATOM     22  C   UNL     1       3.321   6.864  18.337  0.00  0.00    +0.000 A 
ATOM     23  C   UNL     1       2.712   6.696  19.517  0.00  0.00    +0.000 A 
ATOM     24  C   UNL     1       1.735   7.662  20.062  0.00  0.00    +0.000 A 
ATOM     25  O   UNL     1       1.218   7.433  21.153  0.00  0.00    +0.000 OA
BRANCH  22  26
ATOM     26  N   UNL     1       4.228   6.000  17.729  0.00  0.00    +0.000 N 
ATOM     27  C   UNL     1       3.914   4.656  17.230  0.00  0.00    +0.000 C 
ATOM     28  C   UNL     1       5.223   4.097  16.692  0.00  0.00    +0.000 C 
ATOM     29  C   UNL     1       6.049   5.330  16.366  0.00  0.00    +0.000 C 
ATOM     30  C   UNL     1       5.633   6.323  17.456  0.00  0.00    +0.000 C 
BRANCH  29  31
ATOM     31  O   UNL     1       7.437   5.036  16.379  0.00  0.00    +0.000 OA
ATOM     32  H   UNL     1       7.605   4.307  15.756  0.00  0.00    +0.000 HD
ENDBRANCH  29  31
ENDBRANCH  22  26
ENDBRANCH   7  19
TORSDOF 4
ENDMDL
MODEL 4
REMARK VINA RESULT:      -7.9      1.079      1.602
REMARK  Name = 
REMARK  4 active torsions:
REMARK  status: ('A' for Active; 'I' for Inactive)
REMARK    1  A    between atoms: C_2  and  C_3
REMARK    2  A    between atoms: C_16  and  N_17
REMARK    3  A    between atoms: C_20  and  N_21
REMARK    4  A    between atoms: C_24  and  O_25
REMARK                            x       y       z     vdW  Elec       q    Type
REMARK                         _______ _______ _______ _____ _____    ______ ____
ROOT
ATOM      1  O   UNL     1      -0.831  11.076  23.448  0.00  0.00    +0.000 OA
ATOM      2  C   UNL     1      -0.988  12.049  22.715  0.00  0.00    +0.000 C 
ATOM      3  N   UNL     1      -0.346  12.127  21.468  0.00  0.00    +0.000 N 
ATOM      4  C   UNL     1      -0.618  13.095  20.407  0.00  0.00    +0.000 C 
ATOM      5  C   UNL     1      -1.129  12.423  19.142  0.00  0.00    +0.000 C 
ATOM      6  C   UNL     1      -0.163  11.350  18.675  0.00  0.00    +0.000 C 
ATOM      7  C   UNL     1       0.121  10.328  19.792  0.00  0.00    +0.000 C 
ATOM      8  C   UNL     1       0.579  11.041  21.082  0.00  0.00    +0.000 C 
ENDROOT
BRANCH   2   9
ATOM      9  C   UNL     1      -1.859  13.139  23.117  0.00  0.00    +0.000 A 
ATOM     10  C   UNL     1      -1.532  14.251  23.881  0.00  0.00    +0.000 A 
ATOM     11  C   UNL     1      -2.716  15.007  24.109  0.00  0.00    +0.000 A 
ATOM     12  C   UNL     1      -3.021  16.168  24.844  0.00  0.00    +0.000 A 
ATOM     13  C   UNL     1      -4.346  16.620  24.889  0.00  0.00    +0.000 A 
ATOM     14  C   UNL     1      -5.359  15.927  24.229  0.00  0.00    +0.000 A 
ATOM     15  C   UNL     1      -5.076  14.782  23.479  0.00  0.00    +0.000 A 
ATOM     16  C   UNL     1      -3.742  14.364  23.425  0.00  0.00    +0.000 A 
ATOM     17  N   UNL     1      -3.165  13.331  22.728  0.00  0.00    +0.000 N 
ATOM     18  H   UNL     1      -3.662  12.739  22.080  0.00  0.00    +0.000 HD
ENDBRANCH   2   9
BRANCH   7  19
ATOM     19  N   UNL     1       1.084   9.309  19.351  0.00  0.00    +0.000 N 
ATOM     20  N   UNL     1       1.633   9.472  18.101  0.00  0.00    +0.000 NA
ATOM     21  C   UNL     1       2.416   8.537  17.673  0.00  0.00    +0.000 A 
ATOM     22  C   UNL     1       2.812   7.294  18.392  0.00  0.00    +0.000 A 
ATOM     23  C   UNL     1       2.311   7.227  19.631  0.00  0.00    +0.000 A 
ATOM     24  C   UNL     1       1.417   8.260  20.195  0.00  0.00    +0.000 A 
ATOM     25  O   UNL     1       0.999   8.122  21.341  0.00  0.00    +0.000 OA
BRANCH  22  26
ATOM     26  N   UNL     1       3.633   6.362  17.765  0.00  0.00    +0.000 N 
ATOM     27  C   UNL     1       4.709   6.681  16.820  0.00  0.00    +0.000 C 
ATOM     28  C   UNL     1       5.288   5.344  16.382  0.00  0.00    +0.000 C 
ATOM     29  C   UNL     1       4.935   4.395  17.515  0.00  0.00    +0.000 C 
ATOM     30  C   UNL     1       3.572   4.913  17.988  0.00  0.00    +0.000 C 
BRANCH  29  31
ATOM     31  O   UNL     1       4.897   3.051  17.067  0.00  0.00    +0.000 OA
ATOM     32  H   UNL     1       4.900   3.049  16.093  0.00  0.00    +0.000 HD
ENDBRANCH  29  31
ENDBRANCH  22  26
ENDBRANCH   7  19
TORSDOF 4
ENDMDL
MODEL 5
REMARK VINA RESULT:      -7.8      1.706     10.745
REMARK  Name = 
REMARK  4 active torsions:
REMARK  status: ('A' for Active; 'I' for Inactive)
REMARK    1  A    between atoms: C_2  and  C_3
REMARK    2  A    between atoms: C_16  and  N_17
REMARK    3  A    between atoms: C_20  and  N_21
REMARK    4  A    between atoms: C_24  and  O_25
REMARK                            x       y       z     vdW  Elec       q    Type
REMARK                         _______ _______ _______ _____ _____    ______ ____
ROOT
ATOM      1  O   UNL     1       1.839   6.826  20.515  0.00  0.00    +0.000 OA
ATOM      2  C   UNL     1       2.058   7.289  19.398  0.00  0.00    +0.000 C 
ATOM      3  N   UNL     1       1.406   8.451  18.956  0.00  0.00    +0.000 N 
ATOM      4  C   UNL     1       1.735   9.235  17.767  0.00  0.00    +0.000 C 
ATOM      5  C   UNL     1       2.176  10.648  18.122  0.00  0.00    +0.000 C 
ATOM      6  C   UNL     1       1.126  11.343  18.968  0.00  0.00    +0.000 C 
ATOM      7  C   UNL     1       0.781  10.517  20.223  0.00  0.00    +0.000 C 
ATOM      8  C   UNL     1       0.397   9.073  19.838  0.00  0.00    +0.000 C 
ENDROOT
BRANCH   2   9
ATOM      9  C   UNL     1       3.014   6.648  18.512  0.00  0.00    +0.000 A 
ATOM     10  C   UNL     1       2.946   5.374  17.965  0.00  0.00    +0.000 A 
ATOM     11  C   UNL     1       4.143   5.130  17.237  0.00  0.00    +0.000 A 
ATOM     12  C   UNL     1       4.666   4.027  16.535  0.00  0.00    +0.000 A 
ATOM     13  C   UNL     1       5.940   4.123  15.962  0.00  0.00    +0.000 A 
ATOM     14  C   UNL     1       6.694   5.288  16.091  0.00  0.00    +0.000 A 
ATOM     15  C   UNL     1       6.188   6.402  16.768  0.00  0.00    +0.000 A 
ATOM     16  C   UNL     1       4.903   6.293  17.309  0.00  0.00    +0.000 A 
ATOM     17  N   UNL     1       4.134   7.227  17.959  0.00  0.00    +0.000 N 
ATOM     18  H   UNL     1       4.403   8.191  18.087  0.00  0.00    +0.000 HD
ENDBRANCH   2   9
BRANCH   7  19
ATOM     19  N   UNL     1      -0.262  11.174  21.024  0.00  0.00    +0.000 N 
ATOM     20  N   UNL     1      -1.140  11.991  20.351  0.00  0.00    +0.000 NA
ATOM     21  C   UNL     1      -2.007  12.636  21.059  0.00  0.00    +0.000 A 
ATOM     22  C   UNL     1      -2.179  12.585  22.538  0.00  0.00    +0.000 A 
ATOM     23  C   UNL     1      -1.351  11.716  23.130  0.00  0.00    +0.000 A 
ATOM     24  C   UNL     1      -0.340  10.935  22.387  0.00  0.00    +0.000 A 
ATOM     25  O   UNL     1       0.384  10.160  23.006  0.00  0.00    +0.000 OA
BRANCH  22  26
ATOM     26  N   UNL     1      -3.139  13.384  23.153  0.00  0.00    +0.000 N 
ATOM     27  C   UNL     1      -2.906  14.733  23.680  0.00  0.00    +0.000 C 
ATOM     28  C   UNL     1      -4.231  15.179  24.283  0.00  0.00    +0.000 C 
ATOM     29  C   UNL     1      -5.270  14.342  23.557  0.00  0.00    +0.000 C 
ATOM     30  C   UNL     1      -4.547  13.011  23.329  0.00  0.00    +0.000 C 
BRANCH  29  31
ATOM     31  O   UNL     1      -6.453  14.211  24.327  0.00  0.00    +0.000 OA
ATOM     32  H   UNL     1      -6.996  15.009  24.200  0.00  0.00    +0.000 HD
ENDBRANCH  29  31
ENDBRANCH  22  26
ENDBRANCH   7  19
TORSDOF 4
ENDMDL
MODEL 6
REMARK VINA RESULT:      -7.8      1.332      1.827
REMARK  Name = 
REMARK  4 active torsions:
REMARK  status: ('A' for Active; 'I' for Inactive)
REMARK    1  A    between atoms: C_2  and  C_3
REMARK    2  A    between atoms: C_16  and  N_17
REMARK    3  A    between atoms: C_20  and  N_21
REMARK    4  A    between atoms: C_24  and  O_25
REMARK                            x       y       z     vdW  Elec       q    Type
REMARK                         _______ _______ _______ _____ _____    ______ ____
ROOT
ATOM      1  O   UNL     1      -1.574  11.038  23.339  0.00  0.00    +0.000 OA
ATOM      2  C   UNL     1      -1.908  11.862  22.492  0.00  0.00    +0.000 C 
ATOM      3  N   UNL     1      -1.280  11.906  21.237  0.00  0.00    +0.000 N 
ATOM      4  C   UNL     1      -1.723  12.662  20.068  0.00  0.00    +0.000 C 
ATOM      5  C   UNL     1      -2.079  11.750  18.903  0.00  0.00    +0.000 C 
ATOM      6  C   UNL     1      -0.918  10.835  18.561  0.00  0.00    +0.000 C 
ATOM      7  C   UNL     1      -0.453  10.036  19.794  0.00  0.00    +0.000 C 
ATOM      8  C   UNL     1      -0.157  10.981  20.978  0.00  0.00    +0.000 C 
ENDROOT
BRANCH   2   9
ATOM      9  C   UNL     1      -2.979  12.804  22.767  0.00  0.00    +0.000 A 
ATOM     10  C   UNL     1      -2.866  14.140  23.126  0.00  0.00    +0.000 A 
ATOM     11  C   UNL     1      -4.168  14.650  23.389  0.00  0.00    +0.000 A 
ATOM     12  C   UNL     1      -4.673  15.884  23.839  0.00  0.00    +0.000 A 
ATOM     13  C   UNL     1      -6.052  16.025  24.040  0.00  0.00    +0.000 A 
ATOM     14  C   UNL     1      -6.919  14.958  23.813  0.00  0.00    +0.000 A 
ATOM     15  C   UNL     1      -6.441  13.729  23.349  0.00  0.00    +0.000 A 
ATOM     16  C   UNL     1      -5.064  13.619  23.129  0.00  0.00    +0.000 A 
ATOM     17  N   UNL     1      -4.329  12.575  22.623  0.00  0.00    +0.000 N 
ATOM     18  H   UNL     1      -4.730  11.718  22.273  0.00  0.00    +0.000 HD
ENDBRANCH   2   9
BRANCH   7  19
ATOM     19  N   UNL     1       0.695   9.177  19.471  0.00  0.00    +0.000 N 
ATOM     20  N   UNL     1       1.241   9.315  18.216  0.00  0.00    +0.000 NA
ATOM     21  C   UNL     1       2.196   8.505  17.896  0.00  0.00    +0.000 A 
ATOM     22  C   UNL     1       2.793   7.436  18.744  0.00  0.00    +0.000 A 
ATOM     23  C   UNL     1       2.277   7.400  19.978  0.00  0.00    +0.000 A 
ATOM     24  C   UNL     1       1.191   8.298  20.422  0.00  0.00    +0.000 A 
ATOM     25  O   UNL     1       0.771   8.199  21.572  0.00  0.00    +0.000 OA
BRANCH  22  26
ATOM     26  N   UNL     1       3.792   6.616  18.226  0.00  0.00    +0.000 N 
ATOM     27  C   UNL     1       4.451   6.801  16.928  0.00  0.00    +0.000 C 
ATOM     28  C   UNL     1       5.431   5.645  16.791  0.00  0.00    +0.000 C 
ATOM     29  C   UNL     1       5.709   5.221  18.223  0.00  0.00    +0.000 C 
ATOM     30  C   UNL     1       4.367   5.460  18.922  0.00  0.00    +0.000 C 
BRANCH  29  31
ATOM     31  O   UNL     1       6.139   3.871  18.285  0.00  0.00    +0.000 OA
ATOM     32  H   UNL     1       7.111   3.853  18.236  0.00  0.00    +0.000 HD
ENDBRANCH  29  31
ENDBRANCH  22  26
ENDBRANCH   7  19
TORSDOF 4
ENDMDL
MODEL 7
REMARK VINA RESULT:      -7.7      1.758     10.784
REMARK  Name = 
REMARK  4 active torsions:
REMARK  status: ('A' for Active; 'I' for Inactive)
REMARK    1  A    between atoms: C_2  and  C_3
REMARK    2  A    between atoms: C_16  and  N_17
REMARK    3  A    between atoms: C_20  and  N_21
REMARK    4  A    between atoms: C_24  and  O_25
REMARK                            x       y       z     vdW  Elec       q    Type
REMARK                         _______ _______ _______ _____ _____    ______ ____
ROOT
ATOM      1  O   UNL     1       1.629   7.090  20.707  0.00  0.00    +0.000 OA
ATOM      2  C   UNL     1       1.876   7.532  19.588  0.00  0.00    +0.000 C 
ATOM      3  N   UNL     1       1.224   8.677  19.102  0.00  0.00    +0.000 N 
ATOM      4  C   UNL     1       1.580   9.440  17.907  0.00  0.00    +0.000 C 
ATOM      5  C   UNL     1       1.994  10.865  18.246  0.00  0.00    +0.000 C 
ATOM      6  C   UNL     1       0.911  11.565  19.045  0.00  0.00    +0.000 C 
ATOM      7  C   UNL     1       0.538  10.761  20.306  0.00  0.00    +0.000 C 
ATOM      8  C   UNL     1       0.182   9.304  19.940  0.00  0.00    +0.000 C 
ENDROOT
BRANCH   2   9
ATOM      9  C   UNL     1       2.865   6.885  18.744  0.00  0.00    +0.000 A 
ATOM     10  C   UNL     1       3.733   7.482  17.839  0.00  0.00    +0.000 A 
ATOM     11  C   UNL     1       4.457   6.460  17.165  0.00  0.00    +0.000 A 
ATOM     12  C   UNL     1       5.407   6.442  16.126  0.00  0.00    +0.000 A 
ATOM     13  C   UNL     1       5.889   5.212  15.662  0.00  0.00    +0.000 A 
ATOM     14  C   UNL     1       5.430   4.014  16.206  0.00  0.00    +0.000 A 
ATOM     15  C   UNL     1       4.500   4.008  17.250  0.00  0.00    +0.000 A 
ATOM     16  C   UNL     1       4.052   5.248  17.716  0.00  0.00    +0.000 A 
ATOM     17  N   UNL     1       3.206   5.551  18.754  0.00  0.00    +0.000 N 
ATOM     18  H   UNL     1       2.818   4.866  19.386  0.00  0.00    +0.000 HD
ENDBRANCH   2   9
BRANCH   7  19
ATOM     19  N   UNL     1      -0.535  11.421  21.062  0.00  0.00    +0.000 N 
ATOM     20  N   UNL     1      -1.411  12.202  20.344  0.00  0.00    +0.000 NA
ATOM     21  C   UNL     1      -2.306  12.851  21.012  0.00  0.00    +0.000 A 
ATOM     22  C   UNL     1      -2.514  12.840  22.487  0.00  0.00    +0.000 A 
ATOM     23  C   UNL     1      -1.686  12.005  23.124  0.00  0.00    +0.000 A 
ATOM     24  C   UNL     1      -0.643  11.222  22.430  0.00  0.00    +0.000 A 
ATOM     25  O   UNL     1       0.080  10.478  23.089  0.00  0.00    +0.000 OA
BRANCH  22  26
ATOM     26  N   UNL     1      -3.503  13.640  23.054  0.00  0.00    +0.000 N 
ATOM     27  C   UNL     1      -3.418  15.094  23.231  0.00  0.00    +0.000 C 
ATOM     28  C   UNL     1      -4.711  15.504  23.922  0.00  0.00    +0.000 C 
ATOM     29  C   UNL     1      -5.690  14.398  23.567  0.00  0.00    +0.000 C 
ATOM     30  C   UNL     1      -4.803  13.150  23.526  0.00  0.00    +0.000 C 
BRANCH  29  31
ATOM     31  O   UNL     1      -6.734  14.310  24.523  0.00  0.00    +0.000 OA
ATOM     32  H   UNL     1      -7.483  13.837  24.120  0.00  0.00    +0.000 HD
ENDBRANCH  29  31
ENDBRANCH  22  26
ENDBRANCH   7  19
TORSDOF 4
ENDMDL
MODEL 8
REMARK VINA RESULT:      -7.5      1.986     10.742
REMARK  Name = 
REMARK  4 active torsions:
REMARK  status: ('A' for Active; 'I' for Inactive)
REMARK    1  A    between atoms: C_2  and  C_3
REMARK    2  A    between atoms: C_16  and  N_17
REMARK    3  A    between atoms: C_20  and  N_21
REMARK    4  A    between atoms: C_24  and  O_25
REMARK                            x       y       z     vdW  Elec       q    Type
REMARK                         _______ _______ _______ _____ _____    ______ ____
ROOT
ATOM      1  O   UNL     1       1.732   7.583  20.937  0.00  0.00    +0.000 OA
ATOM      2  C   UNL     1       1.808   7.905  19.755  0.00  0.00    +0.000 C 
ATOM      3  N   UNL     1       1.179   9.067  19.278  0.00  0.00    +0.000 N 
ATOM      4  C   UNL     1       1.376   9.690  17.971  0.00  0.00    +0.000 C 
ATOM      5  C   UNL     1       1.964  11.088  18.091  0.00  0.00    +0.000 C 
ATOM      6  C   UNL     1       1.108  11.956  18.993  0.00  0.00    +0.000 C 
ATOM      7  C   UNL     1       0.904  11.301  20.372  0.00  0.00    +0.000 C 
ATOM      8  C   UNL     1       0.364   9.863  20.219  0.00  0.00    +0.000 C 
ENDROOT
BRANCH   2   9
ATOM      9  C   UNL     1       2.570   7.094  18.820  0.00  0.00    +0.000 A 
ATOM     10  C   UNL     1       2.498   5.720  18.632  0.00  0.00    +0.000 A 
ATOM     11  C   UNL     1       3.490   5.342  17.684  0.00  0.00    +0.000 A 
ATOM     12  C   UNL     1       3.930   4.115  17.151  0.00  0.00    +0.000 A 
ATOM     13  C   UNL     1       4.998   4.108  16.246  0.00  0.00    +0.000 A 
ATOM     14  C   UNL     1       5.634   5.295  15.883  0.00  0.00    +0.000 A 
ATOM     15  C   UNL     1       5.203   6.525  16.387  0.00  0.00    +0.000 A 
ATOM     16  C   UNL     1       4.117   6.511  17.268  0.00  0.00    +0.000 A 
ATOM     17  N   UNL     1       3.445   7.552  17.861  0.00  0.00    +0.000 N 
ATOM     18  H   UNL     1       3.635   8.525  17.678  0.00  0.00    +0.000 HD
ENDBRANCH   2   9
BRANCH   7  19
ATOM     19  N   UNL     1       0.045  12.126  21.233  0.00  0.00    +0.000 N 
ATOM     20  N   UNL     1      -1.210  11.638  21.511  0.00  0.00    +0.000 NA
ATOM     21  C   UNL     1      -2.000  12.396  22.198  0.00  0.00    +0.000 A 
ATOM     22  C   UNL     1      -1.699  13.747  22.746  0.00  0.00    +0.000 A 
ATOM     23  C   UNL     1      -0.441  14.137  22.513  0.00  0.00    +0.000 A 
ATOM     24  C   UNL     1       0.524  13.323  21.744  0.00  0.00    +0.000 A 
ATOM     25  O   UNL     1       1.661  13.754  21.573  0.00  0.00    +0.000 OA
BRANCH  22  26
ATOM     26  N   UNL     1      -2.685  14.453  23.430  0.00  0.00    +0.000 N 
ATOM     27  C   UNL     1      -2.446  15.595  24.320  0.00  0.00    +0.000 C 
ATOM     28  C   UNL     1      -3.813  15.998  24.855  0.00  0.00    +0.000 C 
ATOM     29  C   UNL     1      -4.788  15.479  23.813  0.00  0.00    +0.000 C 
ATOM     30  C   UNL     1      -4.124  14.186  23.330  0.00  0.00    +0.000 C 
BRANCH  29  31
ATOM     31  O   UNL     1      -6.075  15.271  24.373  0.00  0.00    +0.000 OA
ATOM     32  H   UNL     1      -6.461  14.472  23.972  0.00  0.00    +0.000 HD
ENDBRANCH  29  31
ENDBRANCH  22  26
ENDBRANCH   7  19
TORSDOF 4
ENDMDL
MODEL 9
REMARK VINA RESULT:      -7.4      1.192      1.375
REMARK  Name = 
REMARK  4 active torsions:
REMARK  status: ('A' for Active; 'I' for Inactive)
REMARK    1  A    between atoms: C_2  and  C_3
REMARK    2  A    between atoms: C_16  and  N_17
REMARK    3  A    between atoms: C_20  and  N_21
REMARK    4  A    between atoms: C_24  and  O_25
REMARK                            x       y       z     vdW  Elec       q    Type
REMARK                         _______ _______ _______ _____ _____    ______ ____
ROOT
ATOM      1  O   UNL     1      -1.601  10.875  23.487  0.00  0.00    +0.000 OA
ATOM      2  C   UNL     1      -1.805  11.824  22.734  0.00  0.00    +0.000 C 
ATOM      3  N   UNL     1      -1.085  11.967  21.537  0.00  0.00    +0.000 N 
ATOM      4  C   UNL     1      -1.379  12.897  20.449  0.00  0.00    +0.000 C 
ATOM      5  C   UNL     1      -1.721  12.171  19.157  0.00  0.00    +0.000 C 
ATOM      6  C   UNL     1      -0.614  11.206  18.773  0.00  0.00    +0.000 C 
ATOM      7  C   UNL     1      -0.307  10.223  19.919  0.00  0.00    +0.000 C 
ATOM      8  C   UNL     1      -0.024  10.985  21.231  0.00  0.00    +0.000 C 
ENDROOT
BRANCH   2   9
ATOM      9  C   UNL     1      -2.814  12.816  23.060  0.00  0.00    +0.000 A 
ATOM     10  C   UNL     1      -4.132  12.864  22.625  0.00  0.00    +0.000 A 
ATOM     11  C   UNL     1      -4.727  14.060  23.115  0.00  0.00    +0.000 A 
ATOM     12  C   UNL     1      -5.985  14.673  22.960  0.00  0.00    +0.000 A 
ATOM     13  C   UNL     1      -6.219  15.914  23.565  0.00  0.00    +0.000 A 
ATOM     14  C   UNL     1      -5.220  16.548  24.302  0.00  0.00    +0.000 A 
ATOM     15  C   UNL     1      -3.970  15.950  24.483  0.00  0.00    +0.000 A 
ATOM     16  C   UNL     1      -3.767  14.698  23.893  0.00  0.00    +0.000 A 
ATOM     17  N   UNL     1      -2.684  13.856  23.953  0.00  0.00    +0.000 N 
ATOM     18  H   UNL     1      -1.865  14.028  24.515  0.00  0.00    +0.000 HD
ENDBRANCH   2   9
BRANCH   7  19
ATOM     19  N   UNL     1       0.789   9.311  19.560  0.00  0.00    +0.000 N 
ATOM     20  N   UNL     1       1.376   9.499  18.331  0.00  0.00    +0.000 NA
ATOM     21  C   UNL     1       2.282   8.650  17.974  0.00  0.00    +0.000 A 
ATOM     22  C   UNL     1       2.785   7.486  18.757  0.00  0.00    +0.000 A 
ATOM     23  C   UNL     1       2.235   7.400  19.973  0.00  0.00    +0.000 A 
ATOM     24  C   UNL     1       1.200   8.337  20.457  0.00  0.00    +0.000 A 
ATOM     25  O   UNL     1       0.745   8.187  21.588  0.00  0.00    +0.000 OA
BRANCH  22  26
ATOM     26  N   UNL     1       3.739   6.637  18.202  0.00  0.00    +0.000 N 
ATOM     27  C   UNL     1       4.327   6.782  16.866  0.00  0.00    +0.000 C 
ATOM     28  C   UNL     1       5.280   5.607  16.702  0.00  0.00    +0.000 C 
ATOM     29  C   UNL     1       5.631   5.210  18.125  0.00  0.00    +0.000 C 
ATOM     30  C   UNL     1       4.335   5.488  18.893  0.00  0.00    +0.000 C 
BRANCH  29  31
ATOM     31  O   UNL     1       6.042   3.855  18.195  0.00  0.00    +0.000 OA
ATOM     32  H   UNL     1       5.882   3.438  17.329  0.00  0.00    +0.000 HD
ENDBRANCH  29  31
ENDBRANCH  22  26
ENDBRANCH   7  19
TORSDOF 4
ENDMDL
