MODEL 1
REMARK VINA RESULT:      -8.6      0.000      0.000
REMARK  Name = 
REMARK  3 active torsions:
REMARK  status: ('A' for Active; 'I' for Inactive)
REMARK    1  A    between atoms: C_2  and  C_3
REMARK    2  A    between atoms: C_3  and  C_4
REMARK    3  A    between atoms: C_3  and  N_10
REMARK                            x       y       z     vdW  Elec       q    Type
REMARK                         _______ _______ _______ _____ _____    ______ ____
ROOT
ATOM      1  C   UNL     1       0.863  10.410  18.960  0.00  0.00    +0.000 C 
ENDROOT
BRANCH   1   3
ATOM      2  O   UNL     1       0.761   9.574  21.248  0.00  0.00    +0.000 OA
ATOM      3  C   UNL     1       1.142   9.391  20.090  0.00  0.00    +0.000 C 
ATOM      4  N   UNL     1       1.741   8.167  19.716  0.00  0.00    +0.000 N 
ATOM      5  C   UNL     1       2.328   7.898  18.390  0.00  0.00    +0.000 C 
ATOM      6  C   UNL     1       3.342   6.757  18.400  0.00  0.00    +0.000 C 
ATOM      7  C   UNL     1       2.599   5.536  18.848  0.00  0.00    +0.000 A 
ATOM      8  C   UNL     1       2.646   4.339  18.131  0.00  0.00    +0.000 A 
ATOM      9  C   UNL     1       1.847   3.287  18.537  0.00  0.00    +0.000 A 
ATOM     10  F   UNL     1       1.832   2.156  17.813  0.00  0.00    +0.000 F 
ATOM     11  C   UNL     1       1.045   3.391  19.675  0.00  0.00    +0.000 A 
ATOM     12  C   UNL     1       1.014   4.578  20.406  0.00  0.00    +0.000 A 
ATOM     13  C   UNL     1       1.763   5.679  19.978  0.00  0.00    +0.000 A 
ATOM     14  C   UNL     1       1.715   7.037  20.675  0.00  0.00    +0.000 C 
ENDBRANCH   1   3
BRANCH   1  15
ATOM     15  N   UNL     1       1.488  11.751  18.978  0.00  0.00    +0.000 N 
ATOM     16  C   UNL     1       2.375  12.086  17.967  0.00  0.00    +0.000 A 
ATOM     17  N   UNL     1       3.069  13.159  18.235  0.00  0.00    +0.000 NA
ATOM     18  C   UNL     1       2.565  13.599  19.424  0.00  0.00    +0.000 A 
ATOM     19  C   UNL     1       3.000  14.700  20.176  0.00  0.00    +0.000 A 
ATOM     20  C   UNL     1       2.330  15.015  21.355  0.00  0.00    +0.000 A 
ATOM     21  C   UNL     1       1.207  14.280  21.739  0.00  0.00    +0.000 A 
ATOM     22  C   UNL     1       0.764  13.163  21.006  0.00  0.00    +0.000 A 
ATOM     23  C   UNL     1       1.501  12.800  19.870  0.00  0.00    +0.000 A 
ENDBRANCH   1  15
BRANCH   1  24
ATOM     24  C   UNL     1      -0.605  10.492  18.571  0.00  0.00    +0.000 A 
ATOM     25  C   UNL     1      -1.498  11.336  19.243  0.00  0.00    +0.000 A 
ATOM     26  C   UNL     1      -2.822  11.437  18.815  0.00  0.00    +0.000 A 
ATOM     27  C   UNL     1      -3.266  10.708  17.713  0.00  0.00    +0.000 A 
ATOM     28  C   UNL     1      -2.397   9.846  17.051  0.00  0.00    +0.000 A 
ATOM     29  C   UNL     1      -1.079   9.730  17.484  0.00  0.00    +0.000 A 
ENDBRANCH   1  24
TORSDOF 3
ENDMDL
MODEL 2
REMARK VINA RESULT:      -8.0      0.949      1.597
REMARK  Name = 
REMARK  3 active torsions:
REMARK  status: ('A' for Active; 'I' for Inactive)
REMARK    1  A    between atoms: C_2  and  C_3
REMARK    2  A    between atoms: C_3  and  C_4
REMARK    3  A    between atoms: C_3  and  N_10
REMARK                            x       y       z     vdW  Elec       q    Type
REMARK                         _______ _______ _______ _____ _____    ______ ____
ROOT
ATOM      1  C   UNL     1       0.775  10.365  19.582  0.00  0.00    +0.000 C 
ENDROOT
BRANCH   1   3
ATOM      2  O   UNL     1       0.412   9.077  21.620  0.00  0.00    +0.000 OA
ATOM      3  C   UNL     1       0.951   9.143  20.513  0.00  0.00    +0.000 C 
ATOM      4  N   UNL     1       1.653   8.033  19.989  0.00  0.00    +0.000 N 
ATOM      5  C   UNL     1       2.422   8.053  18.731  0.00  0.00    +0.000 C 
ATOM      6  C   UNL     1       3.480   6.955  18.654  0.00  0.00    +0.000 C 
ATOM      7  C   UNL     1       2.743   5.653  18.741  0.00  0.00    +0.000 A 
ATOM      8  C   UNL     1       2.942   4.629  17.814  0.00  0.00    +0.000 A 
ATOM      9  C   UNL     1       2.149   3.501  17.886  0.00  0.00    +0.000 A 
ATOM     10  F   UNL     1       2.284   2.541  16.956  0.00  0.00    +0.000 F 
ATOM     11  C   UNL     1       1.200   3.353  18.899  0.00  0.00    +0.000 A 
ATOM     12  C   UNL     1       1.015   4.365  19.841  0.00  0.00    +0.000 A 
ATOM     13  C   UNL     1       1.760   5.546  19.750  0.00  0.00    +0.000 A 
ATOM     14  C   UNL     1       1.555   6.731  20.691  0.00  0.00    +0.000 C 
ENDBRANCH   1   3
BRANCH   1  15
ATOM     15  N   UNL     1       1.212  11.713  20.009  0.00  0.00    +0.000 N 
ATOM     16  C   UNL     1       0.844  12.165  21.267  0.00  0.00    +0.000 A 
ATOM     17  N   UNL     1       1.034  13.446  21.422  0.00  0.00    +0.000 NA
ATOM     18  C   UNL     1       1.627  13.844  20.258  0.00  0.00    +0.000 A 
ATOM     19  C   UNL     1       1.995  15.147  19.894  0.00  0.00    +0.000 A 
ATOM     20  C   UNL     1       2.627  15.348  18.670  0.00  0.00    +0.000 A 
ATOM     21  C   UNL     1       2.940  14.258  17.857  0.00  0.00    +0.000 A 
ATOM     22  C   UNL     1       2.565  12.944  18.198  0.00  0.00    +0.000 A 
ATOM     23  C   UNL     1       1.849  12.764  19.389  0.00  0.00    +0.000 A 
ENDBRANCH   1  15
BRANCH   1  24
ATOM     24  C   UNL     1      -0.585  10.416  18.904  0.00  0.00    +0.000 A 
ATOM     25  C   UNL     1      -1.630  11.199  19.411  0.00  0.00    +0.000 A 
ATOM     26  C   UNL     1      -2.843  11.275  18.726  0.00  0.00    +0.000 A 
ATOM     27  C   UNL     1      -3.024  10.582  17.530  0.00  0.00    +0.000 A 
ATOM     28  C   UNL     1      -2.003   9.780  17.027  0.00  0.00    +0.000 A 
ATOM     29  C   UNL     1      -0.797   9.689  17.715  0.00  0.00    +0.000 A 
ENDBRANCH   1  24
TORSDOF 3
ENDMDL
MODEL 3
REMARK VINA RESULT:      -7.8      1.032      1.381
REMARK  Name = 
REMARK  3 active torsions:
REMARK  status: ('A' for Active; 'I' for Inactive)
REMARK    1  A    between atoms: C_2  and  C_3
REMARK    2  A    between atoms: C_3  and  C_4
REMARK    3  A    between atoms: C_3  and  N_10
REMARK                            x       y       z     vdW  Elec       q    Type
REMARK                         _______ _______ _______ _____ _____    ______ ____
ROOT
ATOM      1  C   UNL     1       0.655  10.591  18.554  0.00  0.00    +0.000 C 
ENDROOT
BRANCH   1   3
ATOM      2  O   UNL     1       0.748   9.958  20.906  0.00  0.00    +0.000 OA
ATOM      3  C   UNL     1       1.053   9.687  19.743  0.00  0.00    +0.000 C 
ATOM      4  N   UNL     1       1.673   8.455  19.431  0.00  0.00    +0.000 N 
ATOM      5  C   UNL     1       2.175   8.090  18.094  0.00  0.00    +0.000 C 
ATOM      6  C   UNL     1       3.232   6.989  18.126  0.00  0.00    +0.000 C 
ATOM      7  C   UNL     1       2.572   5.788  18.731  0.00  0.00    +0.000 A 
ATOM      8  C   UNL     1       2.616   4.535  18.118  0.00  0.00    +0.000 A 
ATOM      9  C   UNL     1       1.891   3.496  18.670  0.00  0.00    +0.000 A 
ATOM     10  F   UNL     1       1.870   2.306  18.050  0.00  0.00    +0.000 F 
ATOM     11  C   UNL     1       1.168   3.673  19.852  0.00  0.00    +0.000 A 
ATOM     12  C   UNL     1       1.141   4.918  20.479  0.00  0.00    +0.000 A 
ATOM     13  C   UNL     1       1.814   6.003  19.904  0.00  0.00    +0.000 A 
ATOM     14  C   UNL     1       1.760   7.414  20.484  0.00  0.00    +0.000 C 
ENDBRANCH   1   3
BRANCH   1  15
ATOM     15  N   UNL     1       1.237  11.944  18.401  0.00  0.00    +0.000 N 
ATOM     16  C   UNL     1       2.564  12.059  18.022  0.00  0.00    +0.000 A 
ATOM     17  N   UNL     1       3.039  13.262  18.195  0.00  0.00    +0.000 NA
ATOM     18  C   UNL     1       1.967  13.991  18.623  0.00  0.00    +0.000 A 
ATOM     19  C   UNL     1       1.954  15.342  18.999  0.00  0.00    +0.000 A 
ATOM     20  C   UNL     1       0.745  15.922  19.373  0.00  0.00    +0.000 A 
ATOM     21  C   UNL     1      -0.435  15.180  19.312  0.00  0.00    +0.000 A 
ATOM     22  C   UNL     1      -0.440  13.818  18.953  0.00  0.00    +0.000 A 
ATOM     23  C   UNL     1       0.795  13.221  18.664  0.00  0.00    +0.000 A 
ENDBRANCH   1  15
BRANCH   1  24
ATOM     24  C   UNL     1      -0.841  10.601  18.279  0.00  0.00    +0.000 A 
ATOM     25  C   UNL     1      -1.387   9.961  17.159  0.00  0.00    +0.000 A 
ATOM     26  C   UNL     1      -2.770   9.932  16.974  0.00  0.00    +0.000 A 
ATOM     27  C   UNL     1      -3.620  10.531  17.903  0.00  0.00    +0.000 A 
ATOM     28  C   UNL     1      -3.090  11.193  19.006  0.00  0.00    +0.000 A 
ATOM     29  C   UNL     1      -1.711  11.238  19.187  0.00  0.00    +0.000 A 
ENDBRANCH   1  24
TORSDOF 3
ENDMDL
MODEL 4
REMARK VINA RESULT:      -7.6      1.190      1.368
REMARK  Name = 
REMARK  3 active torsions:
REMARK  status: ('A' for Active; 'I' for Inactive)
REMARK    1  A    between atoms: C_2  and  C_3
REMARK    2  A    between atoms: C_3  and  C_4
REMARK    3  A    between atoms: C_3  and  N_10
REMARK                            x       y       z     vdW  Elec       q    Type
REMARK                         _______ _______ _______ _____ _____    ______ ____
ROOT
ATOM      1  C   UNL     1       0.237  11.154  18.940  0.00  0.00    +0.000 C 
ENDROOT
BRANCH   1   3
ATOM      2  O   UNL     1       0.494  10.323  21.217  0.00  0.00    +0.000 OA
ATOM      3  C   UNL     1       0.764  10.184  20.023  0.00  0.00    +0.000 C 
ATOM      4  N   UNL     1       1.467   9.043  19.573  0.00  0.00    +0.000 N 
ATOM      5  C   UNL     1       1.933   8.844  18.188  0.00  0.00    +0.000 C 
ATOM      6  C   UNL     1       3.076   7.839  18.076  0.00  0.00    +0.000 C 
ATOM      7  C   UNL     1       2.546   6.536  18.592  0.00  0.00    +0.000 A 
ATOM      8  C   UNL     1       2.663   5.351  17.864  0.00  0.00    +0.000 A 
ATOM      9  C   UNL     1       2.052   4.209  18.345  0.00  0.00    +0.000 A 
ATOM     10  F   UNL     1       2.098   3.081  17.617  0.00  0.00    +0.000 F 
ATOM     11  C   UNL     1       1.374   4.217  19.566  0.00  0.00    +0.000 A 
ATOM     12  C   UNL     1       1.276   5.394  20.307  0.00  0.00    +0.000 A 
ATOM     13  C   UNL     1       1.829   6.579  19.809  0.00  0.00    +0.000 A 
ATOM     14  C   UNL     1       1.689   7.924  20.519  0.00  0.00    +0.000 C 
ENDBRANCH   1   3
BRANCH   1  15
ATOM     15  N   UNL     1       0.467  12.612  19.051  0.00  0.00    +0.000 N 
ATOM     16  C   UNL     1      -0.346  13.472  18.329  0.00  0.00    +0.000 A 
ATOM     17  N   UNL     1       0.121  14.689  18.279  0.00  0.00    +0.000 NA
ATOM     18  C   UNL     1       1.237  14.657  19.065  0.00  0.00    +0.000 A 
ATOM     19  C   UNL     1       2.136  15.705  19.307  0.00  0.00    +0.000 A 
ATOM     20  C   UNL     1       3.202  15.487  20.176  0.00  0.00    +0.000 A 
ATOM     21  C   UNL     1       3.328  14.264  20.836  0.00  0.00    +0.000 A 
ATOM     22  C   UNL     1       2.444  13.194  20.594  0.00  0.00    +0.000 A 
ATOM     23  C   UNL     1       1.427  13.396  19.650  0.00  0.00    +0.000 A 
ENDBRANCH   1  15
BRANCH   1  24
ATOM     24  C   UNL     1      -1.189  10.853  18.504  0.00  0.00    +0.000 A 
ATOM     25  C   UNL     1      -2.290  11.458  19.123  0.00  0.00    +0.000 A 
ATOM     26  C   UNL     1      -3.581  11.212  18.653  0.00  0.00    +0.000 A 
ATOM     27  C   UNL     1      -3.786  10.371  17.560  0.00  0.00    +0.000 A 
ATOM     28  C   UNL     1      -2.703   9.743  16.951  0.00  0.00    +0.000 A 
ATOM     29  C   UNL     1      -1.415   9.974  17.426  0.00  0.00    +0.000 A 
ENDBRANCH   1  24
TORSDOF 3
ENDMDL
MODEL 5
REMARK VINA RESULT:      -7.5      1.347      2.048
REMARK  Name = 
REMARK  3 active torsions:
REMARK  status: ('A' for Active; 'I' for Inactive)
REMARK    1  A    between atoms: C_2  and  C_3
REMARK    2  A    between atoms: C_3  and  C_4
REMARK    3  A    between atoms: C_3  and  N_10
REMARK                            x       y       z     vdW  Elec       q    Type
REMARK                         _______ _______ _______ _____ _____    ______ ____
ROOT
ATOM      1  C   UNL     1       0.357  11.171  18.956  0.00  0.00    +0.000 C 
ENDROOT
BRANCH   1   3
ATOM      2  O   UNL     1       0.530  10.327  21.236  0.00  0.00    +0.000 OA
ATOM      3  C   UNL     1       0.825  10.182  20.048  0.00  0.00    +0.000 C 
ATOM      4  N   UNL     1       1.500   9.019  19.613  0.00  0.00    +0.000 N 
ATOM      5  C   UNL     1       1.994   8.807  18.239  0.00  0.00    +0.000 C 
ATOM      6  C   UNL     1       3.106   7.765  18.153  0.00  0.00    +0.000 C 
ATOM      7  C   UNL     1       2.520   6.479  18.651  0.00  0.00    +0.000 A 
ATOM      8  C   UNL     1       2.616   5.293  17.923  0.00  0.00    +0.000 A 
ATOM      9  C   UNL     1       1.955   4.171  18.385  0.00  0.00    +0.000 A 
ATOM     10  F   UNL     1       1.983   3.044  17.656  0.00  0.00    +0.000 F 
ATOM     11  C   UNL     1       1.248   4.198  19.589  0.00  0.00    +0.000 A 
ATOM     12  C   UNL     1       1.170   5.377  20.331  0.00  0.00    +0.000 A 
ATOM     13  C   UNL     1       1.775   6.544  19.851  0.00  0.00    +0.000 A 
ATOM     14  C   UNL     1       1.661   7.891  20.561  0.00  0.00    +0.000 C 
ENDBRANCH   1   3
BRANCH   1  15
ATOM     15  N   UNL     1       0.584  12.626  19.103  0.00  0.00    +0.000 N 
ATOM     16  C   UNL     1      -0.447  13.416  19.587  0.00  0.00    +0.000 A 
ATOM     17  N   UNL     1      -0.237  14.691  19.408  0.00  0.00    +0.000 NA
ATOM     18  C   UNL     1       1.013  14.755  18.863  0.00  0.00    +0.000 A 
ATOM     19  C   UNL     1       1.695  15.903  18.435  0.00  0.00    +0.000 A 
ATOM     20  C   UNL     1       2.988  15.768  17.938  0.00  0.00    +0.000 A 
ATOM     21  C   UNL     1       3.607  14.518  17.928  0.00  0.00    +0.000 A 
ATOM     22  C   UNL     1       2.934  13.351  18.340  0.00  0.00    +0.000 A 
ATOM     23  C   UNL     1       1.601  13.486  18.754  0.00  0.00    +0.000 A 
ENDBRANCH   1  15
BRANCH   1  24
ATOM     24  C   UNL     1      -1.044  10.882  18.440  0.00  0.00    +0.000 A 
ATOM     25  C   UNL     1      -1.273   9.965  17.406  0.00  0.00    +0.000 A 
ATOM     26  C   UNL     1      -2.577   9.673  17.005  0.00  0.00    +0.000 A 
ATOM     27  C   UNL     1      -3.662  10.283  17.631  0.00  0.00    +0.000 A 
ATOM     28  C   UNL     1      -3.449  11.215  18.643  0.00  0.00    +0.000 A 
ATOM     29  C   UNL     1      -2.150  11.521  19.037  0.00  0.00    +0.000 A 
ENDBRANCH   1  24
TORSDOF 3
ENDMDL
MODEL 6
REMARK VINA RESULT:      -7.2      4.226      7.825
REMARK  Name = 
REMARK  3 active torsions:
REMARK  status: ('A' for Active; 'I' for Inactive)
REMARK    1  A    between atoms: C_2  and  C_3
REMARK    2  A    between atoms: C_3  and  C_4
REMARK    3  A    between atoms: C_3  and  N_10
REMARK                            x       y       z     vdW  Elec       q    Type
REMARK                         _______ _______ _______ _____ _____    ______ ____
ROOT
ATOM      1  C   UNL     1      -0.940  12.471  21.054  0.00  0.00    +0.000 C 
ENDROOT
BRANCH   1   3
ATOM      2  O   UNL     1      -0.054  13.817  22.882  0.00  0.00    +0.000 OA
ATOM      3  C   UNL     1      -0.068  13.589  21.671  0.00  0.00    +0.000 C 
ATOM      4  N   UNL     1       0.823  14.260  20.802  0.00  0.00    +0.000 N 
ATOM      5  C   UNL     1       0.803  14.137  19.333  0.00  0.00    +0.000 C 
ATOM      6  C   UNL     1       1.471  15.311  18.621  0.00  0.00    +0.000 C 
ATOM      7  C   UNL     1       2.898  15.326  19.080  0.00  0.00    +0.000 A 
ATOM      8  C   UNL     1       3.962  15.371  18.178  0.00  0.00    +0.000 A 
ATOM      9  C   UNL     1       5.252  15.267  18.662  0.00  0.00    +0.000 A 
ATOM     10  F   UNL     1       6.279  15.239  17.797  0.00  0.00    +0.000 F 
ATOM     11  C   UNL     1       5.499  15.173  20.033  0.00  0.00    +0.000 A 
ATOM     12  C   UNL     1       4.438  15.151  20.938  0.00  0.00    +0.000 A 
ATOM     13  C   UNL     1       3.121  15.189  20.468  0.00  0.00    +0.000 A 
ATOM     14  C   UNL     1       1.908  15.082  21.389  0.00  0.00    +0.000 C 
ENDBRANCH   1   3
BRANCH   1  15
ATOM     15  N   UNL     1      -2.410  12.470  21.231  0.00  0.00    +0.000 N 
ATOM     16  C   UNL     1      -3.216  12.594  20.111  0.00  0.00    +0.000 A 
ATOM     17  N   UNL     1      -4.458  12.865  20.407  0.00  0.00    +0.000 NA
ATOM     18  C   UNL     1      -4.495  12.835  21.771  0.00  0.00    +0.000 A 
ATOM     19  C   UNL     1      -5.594  13.109  22.597  0.00  0.00    +0.000 A 
ATOM     20  C   UNL     1      -5.444  12.988  23.976  0.00  0.00    +0.000 A 
ATOM     21  C   UNL     1      -4.235  12.541  24.511  0.00  0.00    +0.000 A 
ATOM     22  C   UNL     1      -3.116  12.276  23.699  0.00  0.00    +0.000 A 
ATOM     23  C   UNL     1      -3.251  12.487  22.320  0.00  0.00    +0.000 A 
ENDBRANCH   1  15
BRANCH   1  24
ATOM     24  C   UNL     1      -0.361  11.077  21.249  0.00  0.00    +0.000 A 
ATOM     25  C   UNL     1       0.222  10.369  20.191  0.00  0.00    +0.000 A 
ATOM     26  C   UNL     1       0.804   9.122  20.420  0.00  0.00    +0.000 A 
ATOM     27  C   UNL     1       0.818   8.574  21.702  0.00  0.00    +0.000 A 
ATOM     28  C   UNL     1       0.219   9.255  22.757  0.00  0.00    +0.000 A 
ATOM     29  C   UNL     1      -0.376  10.492  22.531  0.00  0.00    +0.000 A 
ENDBRANCH   1  24
TORSDOF 3
ENDMDL
MODEL 7
REMARK VINA RESULT:      -7.1      1.474      1.999
REMARK  Name = 
REMARK  3 active torsions:
REMARK  status: ('A' for Active; 'I' for Inactive)
REMARK    1  A    between atoms: C_2  and  C_3
REMARK    2  A    between atoms: C_3  and  C_4
REMARK    3  A    between atoms: C_3  and  N_10
REMARK                            x       y       z     vdW  Elec       q    Type
REMARK                         _______ _______ _______ _____ _____    ______ ____
ROOT
ATOM      1  C   UNL     1       0.443  10.903  20.356  0.00  0.00    +0.000 C 
ENDROOT
BRANCH   1   3
ATOM      2  O   UNL     1       1.178   9.757  22.379  0.00  0.00    +0.000 OA
ATOM      3  C   UNL     1       1.142   9.773  21.147  0.00  0.00    +0.000 C 
ATOM      4  N   UNL     1       1.629   8.676  20.400  0.00  0.00    +0.000 N 
ATOM      5  C   UNL     1       1.733   8.649  18.929  0.00  0.00    +0.000 C 
ATOM      6  C   UNL     1       2.739   7.623  18.414  0.00  0.00    +0.000 C 
ATOM      7  C   UNL     1       2.253   6.285  18.882  0.00  0.00    +0.000 A 
ATOM      8  C   UNL     1       2.104   5.208  18.007  0.00  0.00    +0.000 A 
ATOM      9  C   UNL     1       1.544   4.037  18.481  0.00  0.00    +0.000 A 
ATOM     10  F   UNL     1       1.331   3.018  17.632  0.00  0.00    +0.000 F 
ATOM     11  C   UNL     1       1.183   3.904  19.823  0.00  0.00    +0.000 A 
ATOM     12  C   UNL     1       1.352   4.972  20.704  0.00  0.00    +0.000 A 
ATOM     13  C   UNL     1       1.856   6.190  20.234  0.00  0.00    +0.000 A 
ATOM     14  C   UNL     1       1.990   7.429  21.117  0.00  0.00    +0.000 C 
ENDBRANCH   1   3
BRANCH   1  15
ATOM     15  N   UNL     1       1.225  12.014  19.770  0.00  0.00    +0.000 N 
ATOM     16  C   UNL     1       1.722  11.873  18.484  0.00  0.00    +0.000 A 
ATOM     17  N   UNL     1       2.619  12.773  18.184  0.00  0.00    +0.000 NA
ATOM     18  C   UNL     1       2.655  13.591  19.277  0.00  0.00    +0.000 A 
ATOM     19  C   UNL     1       3.495  14.695  19.484  0.00  0.00    +0.000 A 
ATOM     20  C   UNL     1       3.356  15.433  20.656  0.00  0.00    +0.000 A 
ATOM     21  C   UNL     1       2.354  15.109  21.572  0.00  0.00    +0.000 A 
ATOM     22  C   UNL     1       1.511  13.995  21.389  0.00  0.00    +0.000 A 
ATOM     23  C   UNL     1       1.720  13.206  20.250  0.00  0.00    +0.000 A 
ENDBRANCH   1  15
BRANCH   1  24
ATOM     24  C   UNL     1      -0.822  11.415  21.027  0.00  0.00    +0.000 A 
ATOM     25  C   UNL     1      -1.010  11.321  22.412  0.00  0.00    +0.000 A 
ATOM     26  C   UNL     1      -2.152  11.862  23.003  0.00  0.00    +0.000 A 
ATOM     27  C   UNL     1      -3.111  12.508  22.224  0.00  0.00    +0.000 A 
ATOM     28  C   UNL     1      -2.950  12.587  20.844  0.00  0.00    +0.000 A 
ATOM     29  C   UNL     1      -1.820  12.035  20.249  0.00  0.00    +0.000 A 
ENDBRANCH   1  24
TORSDOF 3
ENDMDL
MODEL 8
REMARK VINA RESULT:      -7.1      3.085      5.327
REMARK  Name = 
REMARK  3 active torsions:
REMARK  status: ('A' for Active; 'I' for Inactive)
REMARK    1  A    between atoms: C_2  and  C_3
REMARK    2  A    between atoms: C_3  and  C_4
REMARK    3  A    between atoms: C_3  and  N_10
REMARK                            x       y       z     vdW  Elec       q    Type
REMARK                         _______ _______ _______ _____ _____    ______ ____
ROOT
ATOM      1  C   UNL     1       0.144  13.897  20.006  0.00  0.00    +0.000 C 
ENDROOT
BRANCH   1   3
ATOM      2  O   UNL     1      -0.652  13.053  17.862  0.00  0.00    +0.000 OA
ATOM      3  C   UNL     1      -0.236  12.792  18.992  0.00  0.00    +0.000 C 
ATOM      4  N   UNL     1       0.040  11.457  19.367  0.00  0.00    +0.000 N 
ATOM      5  C   UNL     1       0.430  11.037  20.725  0.00  0.00    +0.000 C 
ATOM      6  C   UNL     1       0.161   9.559  20.999  0.00  0.00    +0.000 C 
ATOM      7  C   UNL     1       0.981   8.790  20.009  0.00  0.00    +0.000 A 
ATOM      8  C   UNL     1       1.833   7.756  20.400  0.00  0.00    +0.000 A 
ATOM      9  C   UNL     1       2.645   7.165  19.451  0.00  0.00    +0.000 A 
ATOM     10  F   UNL     1       3.518   6.218  19.830  0.00  0.00    +0.000 F 
ATOM     11  C   UNL     1       2.581   7.550  18.111  0.00  0.00    +0.000 A 
ATOM     12  C   UNL     1       1.714   8.567  17.713  0.00  0.00    +0.000 A 
ATOM     13  C   UNL     1       0.930   9.227  18.666  0.00  0.00    +0.000 A 
ATOM     14  C   UNL     1       0.022  10.405  18.322  0.00  0.00    +0.000 C 
ENDBRANCH   1   3
BRANCH   1  15
ATOM     15  N   UNL     1      -0.631  14.078  21.255  0.00  0.00    +0.000 N 
ATOM     16  C   UNL     1       0.008  14.607  22.365  0.00  0.00    +0.000 A 
ATOM     17  N   UNL     1      -0.677  14.457  23.465  0.00  0.00    +0.000 NA
ATOM     18  C   UNL     1      -1.849  13.887  23.058  0.00  0.00    +0.000 A 
ATOM     19  C   UNL     1      -2.919  13.475  23.866  0.00  0.00    +0.000 A 
ATOM     20  C   UNL     1      -4.054  12.946  23.258  0.00  0.00    +0.000 A 
ATOM     21  C   UNL     1      -4.139  12.890  21.866  0.00  0.00    +0.000 A 
ATOM     22  C   UNL     1      -3.070  13.284  21.039  0.00  0.00    +0.000 A 
ATOM     23  C   UNL     1      -1.898  13.730  21.664  0.00  0.00    +0.000 A 
ENDBRANCH   1  15
BRANCH   1  24
ATOM     24  C   UNL     1       0.456  15.234  19.353  0.00  0.00    +0.000 A 
ATOM     25  C   UNL     1       1.757  15.575  18.961  0.00  0.00    +0.000 A 
ATOM     26  C   UNL     1       1.997  16.781  18.303  0.00  0.00    +0.000 A 
ATOM     27  C   UNL     1       0.946  17.653  18.021  0.00  0.00    +0.000 A 
ATOM     28  C   UNL     1      -0.348  17.339  18.426  0.00  0.00    +0.000 A 
ATOM     29  C   UNL     1      -0.589  16.144  19.097  0.00  0.00    +0.000 A 
ENDBRANCH   1  24
TORSDOF 3
ENDMDL
MODEL 9
REMARK VINA RESULT:      -7.1      1.274      1.515
REMARK  Name = 
REMARK  3 active torsions:
REMARK  status: ('A' for Active; 'I' for Inactive)
REMARK    1  A    between atoms: C_2  and  C_3
REMARK    2  A    between atoms: C_3  and  C_4
REMARK    3  A    between atoms: C_3  and  N_10
REMARK                            x       y       z     vdW  Elec       q    Type
REMARK                         _______ _______ _______ _____ _____    ______ ____
ROOT
ATOM      1  C   UNL     1       0.695  10.552  19.433  0.00  0.00    +0.000 C 
ENDROOT
BRANCH   1   3
ATOM      2  O   UNL     1       0.511   9.322  21.531  0.00  0.00    +0.000 OA
ATOM      3  C   UNL     1       0.971   9.367  20.388  0.00  0.00    +0.000 C 
ATOM      4  N   UNL     1       1.671   8.262  19.851  0.00  0.00    +0.000 N 
ATOM      5  C   UNL     1       2.353   8.263  18.544  0.00  0.00    +0.000 C 
ATOM      6  C   UNL     1       3.437   7.195  18.428  0.00  0.00    +0.000 C 
ATOM      7  C   UNL     1       2.749   5.875  18.606  0.00  0.00    +0.000 A 
ATOM      8  C   UNL     1       2.918   4.828  17.700  0.00  0.00    +0.000 A 
ATOM      9  C   UNL     1       2.167   3.679  17.861  0.00  0.00    +0.000 A 
ATOM     10  F   UNL     1       2.269   2.694  16.954  0.00  0.00    +0.000 F 
ATOM     11  C   UNL     1       1.293   3.537  18.940  0.00  0.00    +0.000 A 
ATOM     12  C   UNL     1       1.141   4.573  19.861  0.00  0.00    +0.000 A 
ATOM     13  C   UNL     1       1.841   5.772  19.683  0.00  0.00    +0.000 A 
ATOM     14  C   UNL     1       1.662   6.981  20.598  0.00  0.00    +0.000 C 
ENDBRANCH   1   3
BRANCH   1  15
ATOM     15  N   UNL     1       1.093  11.930  19.800  0.00  0.00    +0.000 N 
ATOM     16  C   UNL     1       1.939  12.114  20.881  0.00  0.00    +0.000 A 
ATOM     17  N   UNL     1       1.991  13.355  21.281  0.00  0.00    +0.000 NA
ATOM     18  C   UNL     1       1.220  14.032  20.380  0.00  0.00    +0.000 A 
ATOM     19  C   UNL     1       0.908  15.399  20.388  0.00  0.00    +0.000 A 
ATOM     20  C   UNL     1       0.131  15.916  19.354  0.00  0.00    +0.000 A 
ATOM     21  C   UNL     1      -0.271  15.091  18.303  0.00  0.00    +0.000 A 
ATOM     22  C   UNL     1       0.019  13.714  18.285  0.00  0.00    +0.000 A 
ATOM     23  C   UNL     1       0.725  13.187  19.376  0.00  0.00    +0.000 A 
ENDBRANCH   1  15
BRANCH   1  24
ATOM     24  C   UNL     1      -0.700  10.525  18.827  0.00  0.00    +0.000 A 
ATOM     25  C   UNL     1      -1.780  11.173  19.439  0.00  0.00    +0.000 A 
ATOM     26  C   UNL     1      -3.031  11.186  18.821  0.00  0.00    +0.000 A 
ATOM     27  C   UNL     1      -3.215  10.562  17.588  0.00  0.00    +0.000 A 
ATOM     28  C   UNL     1      -2.157   9.893  16.980  0.00  0.00    +0.000 A 
ATOM     29  C   UNL     1      -0.912   9.864  17.600  0.00  0.00    +0.000 A 
ENDBRANCH   1  24
TORSDOF 3
ENDMDL
