MODEL 1
REMARK VINA RESULT:      -9.5      0.000      0.000
REMARK  Name = 
REMARK  2 active torsions:
REMARK  status: ('A' for Active; 'I' for Inactive)
REMARK    1  A    between atoms: C_8  and  N_9
REMARK    2  A    between atoms: C_16  and  C_17
REMARK                            x       y       z     vdW  Elec       q    Type
REMARK                         _______ _______ _______ _____ _____    ______ ____
ROOT
ATOM      1  N   UNL     1       2.698   6.346  17.870  0.00  0.00    +0.000 N 
ATOM      2  C   UNL     1       3.972   5.827  17.977  0.00  0.00    +0.000 A 
ATOM      3  C   UNL     1       4.581   5.622  19.339  0.00  0.00    +0.000 A 
ATOM      4  C   UNL     1       5.845   5.205  19.433  0.00  0.00    +0.000 A 
ATOM      5  C   UNL     1       6.545   4.906  18.253  0.00  0.00    +0.000 A 
ATOM      6  N   UNL     1       7.769   4.483  18.040  0.00  0.00    +0.000 NA
ATOM      7  N   UNL     1       7.913   4.301  16.688  0.00  0.00    +0.000 NA
ATOM      8  C   UNL     1       6.773   4.623  16.104  0.00  0.00    +0.000 A 
ATOM      9  N   UNL     1       5.873   5.036  17.053  0.00  0.00    +0.000 N 
ATOM     10  N   UNL     1       4.594   5.502  16.869  0.00  0.00    +0.000 NA
ATOM     11  H   UNL     1       2.377   6.439  16.910  0.00  0.00    +0.000 HD
ENDROOT
BRANCH   1  19
ATOM     12  O   UNL     1      -2.036  11.112  23.329  0.00  0.00    +0.000 OA
ATOM     13  C   UNL     1      -1.143  11.257  22.493  0.00  0.00    +0.000 C 
ATOM     14  C   UNL     1      -0.005  10.229  22.341  0.00  0.00    +0.000 C 
ATOM     15  N   UNL     1       0.889  10.457  21.194  0.00  0.00    +0.000 N 
ATOM     16  C   UNL     1       1.267   9.414  20.376  0.00  0.00    +0.000 A 
ATOM     17  C   UNL     1       1.520   8.140  20.890  0.00  0.00    +0.000 A 
ATOM     18  C   UNL     1       1.973   7.111  20.055  0.00  0.00    +0.000 A 
ATOM     19  C   UNL     1       2.185   7.358  18.706  0.00  0.00    +0.000 A 
ATOM     20  C   UNL     1       1.857   8.637  18.266  0.00  0.00    +0.000 A 
ATOM     21  N   UNL     1       1.432   9.651  19.059  0.00  0.00    +0.000 NA
ATOM     22  C   UNL     1       1.068  11.838  20.744  0.00  0.00    +0.000 C 
ATOM     23  C   UNL     1      -0.294  12.502  20.541  0.00  0.00    +0.000 C 
ATOM     24  N   UNL     1      -1.131  12.386  21.716  0.00  0.00    +0.000 N 
ATOM     25  H   UNL     1      -1.950  12.974  21.815  0.00  0.00    +0.000 HD
ENDBRANCH   1  19
BRANCH   8  26
ATOM     26  C   UNL     1       6.431   4.558  14.679  0.00  0.00    +0.000 C 
ATOM     27  F   UNL     1       7.426   5.042  13.886  0.00  0.00    +0.000 F 
ATOM     28  F   UNL     1       6.200   3.285  14.258  0.00  0.00    +0.000 F 
ATOM     29  F   UNL     1       5.321   5.280  14.372  0.00  0.00    +0.000 F 
ENDBRANCH   8  26
TORSDOF 2
ENDMDL
MODEL 2
REMARK VINA RESULT:      -8.8      1.613      2.147
REMARK  Name = 
REMARK  2 active torsions:
REMARK  status: ('A' for Active; 'I' for Inactive)
REMARK    1  A    between atoms: C_8  and  N_9
REMARK    2  A    between atoms: C_16  and  C_17
REMARK                            x       y       z     vdW  Elec       q    Type
REMARK                         _______ _______ _______ _____ _____    ______ ____
ROOT
ATOM      1  N   UNL     1       2.126   8.290  18.181  0.00  0.00    +0.000 N 
ATOM      2  C   UNL     1       2.848   7.162  18.516  0.00  0.00    +0.000 A 
ATOM      3  C   UNL     1       2.357   6.264  19.619  0.00  0.00    +0.000 A 
ATOM      4  C   UNL     1       3.105   5.226  19.998  0.00  0.00    +0.000 A 
ATOM      5  C   UNL     1       4.297   4.967  19.303  0.00  0.00    +0.000 A 
ATOM      6  N   UNL     1       5.212   4.037  19.444  0.00  0.00    +0.000 NA
ATOM      7  N   UNL     1       6.144   4.222  18.454  0.00  0.00    +0.000 NA
ATOM      8  C   UNL     1       5.778   5.265  17.731  0.00  0.00    +0.000 A 
ATOM      9  N   UNL     1       4.619   5.791  18.242  0.00  0.00    +0.000 N 
ATOM     10  N   UNL     1       3.931   6.903  17.822  0.00  0.00    +0.000 NA
ATOM     11  H   UNL     1       2.538   8.825  17.420  0.00  0.00    +0.000 HD
ENDROOT
BRANCH   1  19
ATOM     12  O   UNL     1      -3.409  11.773  23.853  0.00  0.00    +0.000 OA
ATOM     13  C   UNL     1      -2.457  12.109  23.147  0.00  0.00    +0.000 C 
ATOM     14  C   UNL     1      -1.239  11.187  22.941  0.00  0.00    +0.000 C 
ATOM     15  N   UNL     1      -0.264  11.659  21.944  0.00  0.00    +0.000 N 
ATOM     16  C   UNL     1       0.260  10.796  21.006  0.00  0.00    +0.000 A 
ATOM     17  C   UNL     1       0.556   9.468  21.323  0.00  0.00    +0.000 A 
ATOM     18  C   UNL     1       1.155   8.625  20.379  0.00  0.00    +0.000 A 
ATOM     19  C   UNL     1       1.469   9.113  19.118  0.00  0.00    +0.000 A 
ATOM     20  C   UNL     1       1.092  10.429  18.866  0.00  0.00    +0.000 A 
ATOM     21  N   UNL     1       0.526  11.266  19.771  0.00  0.00    +0.000 NA
ATOM     22  C   UNL     1      -0.144  13.104  21.752  0.00  0.00    +0.000 C 
ATOM     23  C   UNL     1      -1.526  13.718  21.526  0.00  0.00    +0.000 C 
ATOM     24  N   UNL     1      -2.456  13.355  22.575  0.00  0.00    +0.000 N 
ATOM     25  H   UNL     1      -3.320  13.870  22.687  0.00  0.00    +0.000 HD
ENDBRANCH   1  19
BRANCH   8  26
ATOM     26  C   UNL     1       6.435   5.825  16.545  0.00  0.00    +0.000 C 
ATOM     27  F   UNL     1       7.013   7.032  16.797  0.00  0.00    +0.000 F 
ATOM     28  F   UNL     1       7.427   5.023  16.074  0.00  0.00    +0.000 F 
ATOM     29  F   UNL     1       5.571   6.029  15.516  0.00  0.00    +0.000 F 
ENDBRANCH   8  26
TORSDOF 2
ENDMDL
MODEL 3
REMARK VINA RESULT:      -8.5      2.038      2.824
REMARK  Name = 
REMARK  2 active torsions:
REMARK  status: ('A' for Active; 'I' for Inactive)
REMARK    1  A    between atoms: C_8  and  N_9
REMARK    2  A    between atoms: C_16  and  C_17
REMARK                            x       y       z     vdW  Elec       q    Type
REMARK                         _______ _______ _______ _____ _____    ______ ____
ROOT
ATOM      1  N   UNL     1       2.165   8.080  18.721  0.00  0.00    +0.000 N 
ATOM      2  C   UNL     1       2.570   6.811  19.081  0.00  0.00    +0.000 A 
ATOM      3  C   UNL     1       1.669   5.954  19.930  0.00  0.00    +0.000 A 
ATOM      4  C   UNL     1       2.104   4.764  20.349  0.00  0.00    +0.000 A 
ATOM      5  C   UNL     1       3.367   4.321  19.924  0.00  0.00    +0.000 A 
ATOM      6  N   UNL     1       4.039   3.220  20.165  0.00  0.00    +0.000 NA
ATOM      7  N   UNL     1       5.205   3.284  19.447  0.00  0.00    +0.000 NA
ATOM      8  C   UNL     1       5.222   4.427  18.784  0.00  0.00    +0.000 A 
ATOM      9  N   UNL     1       4.083   5.137  19.070  0.00  0.00    +0.000 N 
ATOM     10  N   UNL     1       3.729   6.389  18.633  0.00  0.00    +0.000 NA
ATOM     11  H   UNL     1       2.841   8.573  18.143  0.00  0.00    +0.000 HD
ENDROOT
BRANCH   1  19
ATOM     12  O   UNL     1      -3.642  11.779  23.967  0.00  0.00    +0.000 OA
ATOM     13  C   UNL     1      -2.694  12.098  23.247  0.00  0.00    +0.000 C 
ATOM     14  C   UNL     1      -1.429  11.224  23.145  0.00  0.00    +0.000 C 
ATOM     15  N   UNL     1      -0.459  11.652  22.123  0.00  0.00    +0.000 N 
ATOM     16  C   UNL     1       0.125  10.735  21.277  0.00  0.00    +0.000 A 
ATOM     17  C   UNL     1       0.479   9.458  21.719  0.00  0.00    +0.000 A 
ATOM     18  C   UNL     1       1.136   8.564  20.864  0.00  0.00    +0.000 A 
ATOM     19  C   UNL     1       1.451   8.950  19.569  0.00  0.00    +0.000 A 
ATOM     20  C   UNL     1       1.014  10.217  19.192  0.00  0.00    +0.000 A 
ATOM     21  N   UNL     1       0.390  11.103  20.008  0.00  0.00    +0.000 NA
ATOM     22  C   UNL     1      -0.407  13.078  21.801  0.00  0.00    +0.000 C 
ATOM     23  C   UNL     1      -1.812  13.598  21.500  0.00  0.00    +0.000 C 
ATOM     24  N   UNL     1      -2.743  13.285  22.563  0.00  0.00    +0.000 N 
ATOM     25  H   UNL     1      -3.633  13.764  22.615  0.00  0.00    +0.000 HD
ENDBRANCH   1  19
BRANCH   8  26
ATOM     26  C   UNL     1       6.241   4.926  17.856  0.00  0.00    +0.000 C 
ATOM     27  F   UNL     1       5.779   5.009  16.578  0.00  0.00    +0.000 F 
ATOM     28  F   UNL     1       6.675   6.173  18.181  0.00  0.00    +0.000 F 
ATOM     29  F   UNL     1       7.341   4.128  17.806  0.00  0.00    +0.000 F 
ENDBRANCH   8  26
TORSDOF 2
ENDMDL
MODEL 4
REMARK VINA RESULT:      -8.5      1.866      2.684
REMARK  Name = 
REMARK  2 active torsions:
REMARK  status: ('A' for Active; 'I' for Inactive)
REMARK    1  A    between atoms: C_8  and  N_9
REMARK    2  A    between atoms: C_16  and  C_17
REMARK                            x       y       z     vdW  Elec       q    Type
REMARK                         _______ _______ _______ _____ _____    ______ ____
ROOT
ATOM      1  N   UNL     1       2.500   8.460  17.517  0.00  0.00    +0.000 N 
ATOM      2  C   UNL     1       3.132   7.354  18.048  0.00  0.00    +0.000 A 
ATOM      3  C   UNL     1       2.532   6.654  19.239  0.00  0.00    +0.000 A 
ATOM      4  C   UNL     1       3.194   5.641  19.802  0.00  0.00    +0.000 A 
ATOM      5  C   UNL     1       4.399   5.218  19.220  0.00  0.00    +0.000 A 
ATOM      6  N   UNL     1       5.245   4.268  19.543  0.00  0.00    +0.000 NA
ATOM      7  N   UNL     1       6.233   4.255  18.592  0.00  0.00    +0.000 NA
ATOM      8  C   UNL     1       5.970   5.202  17.709  0.00  0.00    +0.000 A 
ATOM      9  N   UNL     1       4.823   5.861  18.073  0.00  0.00    +0.000 N 
ATOM     10  N   UNL     1       4.229   6.937  17.462  0.00  0.00    +0.000 NA
ATOM     11  H   UNL     1       2.981   8.855  16.713  0.00  0.00    +0.000 HD
ENDROOT
BRANCH   1  19
ATOM     12  O   UNL     1       0.561  15.046  22.789  0.00  0.00    +0.000 OA
ATOM     13  C   UNL     1       0.020  14.061  22.283  0.00  0.00    +0.000 C 
ATOM     14  C   UNL     1       0.334  13.621  20.840  0.00  0.00    +0.000 C 
ATOM     15  N   UNL     1      -0.266  12.338  20.438  0.00  0.00    +0.000 N 
ATOM     16  C   UNL     1       0.475  11.395  19.759  0.00  0.00    +0.000 A 
ATOM     17  C   UNL     1       1.420  11.764  18.799  0.00  0.00    +0.000 A 
ATOM     18  C   UNL     1       2.113  10.791  18.069  0.00  0.00    +0.000 A 
ATOM     19  C   UNL     1       1.852   9.445  18.289  0.00  0.00    +0.000 A 
ATOM     20  C   UNL     1       0.938   9.163  19.300  0.00  0.00    +0.000 A 
ATOM     21  N   UNL     1       0.246  10.090  20.008  0.00  0.00    +0.000 NA
ATOM     22  C   UNL     1      -1.525  11.954  21.076  0.00  0.00    +0.000 C 
ATOM     23  C   UNL     1      -1.397  12.067  22.596  0.00  0.00    +0.000 C 
ATOM     24  N   UNL     1      -0.924  13.374  23.001  0.00  0.00    +0.000 N 
ATOM     25  H   UNL     1      -1.018  13.670  23.965  0.00  0.00    +0.000 HD
ENDBRANCH   1  19
BRANCH   8  26
ATOM     26  C   UNL     1       6.717   5.547  16.495  0.00  0.00    +0.000 C 
ATOM     27  F   UNL     1       7.559   4.550  16.107  0.00  0.00    +0.000 F 
ATOM     28  F   UNL     1       5.901   5.785  15.433  0.00  0.00    +0.000 F 
ATOM     29  F   UNL     1       7.491   6.653  16.651  0.00  0.00    +0.000 F 
ENDBRANCH   8  26
TORSDOF 2
ENDMDL
MODEL 5
REMARK VINA RESULT:      -8.4      1.943      2.751
REMARK  Name = 
REMARK  2 active torsions:
REMARK  status: ('A' for Active; 'I' for Inactive)
REMARK    1  A    between atoms: C_8  and  N_9
REMARK    2  A    between atoms: C_16  and  C_17
REMARK                            x       y       z     vdW  Elec       q    Type
REMARK                         _______ _______ _______ _____ _____    ______ ____
ROOT
ATOM      1  N   UNL     1       1.818   8.607  17.843  0.00  0.00    +0.000 N 
ATOM      2  C   UNL     1       2.507   7.506  18.311  0.00  0.00    +0.000 A 
ATOM      3  C   UNL     1       1.881   6.626  19.360  0.00  0.00    +0.000 A 
ATOM      4  C   UNL     1       2.587   5.617  19.873  0.00  0.00    +0.000 A 
ATOM      5  C   UNL     1       3.873   5.369  19.365  0.00  0.00    +0.000 A 
ATOM      6  N   UNL     1       4.777   4.466  19.664  0.00  0.00    +0.000 NA
ATOM      7  N   UNL     1       5.838   4.648  18.814  0.00  0.00    +0.000 NA
ATOM      8  C   UNL     1       5.559   5.662  18.015  0.00  0.00    +0.000 A 
ATOM      9  N   UNL     1       4.327   6.173  18.338  0.00  0.00    +0.000 N 
ATOM     10  N   UNL     1       3.685   7.255  17.790  0.00  0.00    +0.000 NA
ATOM     11  H   UNL     1       2.325   9.131  17.133  0.00  0.00    +0.000 HD
ENDROOT
BRANCH   1  19
ATOM     12  O   UNL     1      -3.390  11.877  23.934  0.00  0.00    +0.000 OA
ATOM     13  C   UNL     1      -2.984  12.151  22.804  0.00  0.00    +0.000 C 
ATOM     14  C   UNL     1      -1.532  11.862  22.375  0.00  0.00    +0.000 C 
ATOM     15  N   UNL     1      -1.247  12.095  20.950  0.00  0.00    +0.000 N 
ATOM     16  C   UNL     1      -0.525  11.179  20.216  0.00  0.00    +0.000 A 
ATOM     17  C   UNL     1       0.547  10.480  20.775  0.00  0.00    +0.000 A 
ATOM     18  C   UNL     1       1.314   9.605  19.995  0.00  0.00    +0.000 A 
ATOM     19  C   UNL     1       1.016   9.438  18.650  0.00  0.00    +0.000 A 
ATOM     20  C   UNL     1      -0.100  10.128  18.186  0.00  0.00    +0.000 A 
ATOM     21  N   UNL     1      -0.846  10.991  18.920  0.00  0.00    +0.000 NA
ATOM     22  C   UNL     1      -2.035  13.119  20.265  0.00  0.00    +0.000 C 
ATOM     23  C   UNL     1      -3.526  12.885  20.512  0.00  0.00    +0.000 C 
ATOM     24  N   UNL     1      -3.827  12.779  21.924  0.00  0.00    +0.000 N 
ATOM     25  H   UNL     1      -4.784  12.863  22.246  0.00  0.00    +0.000 HD
ENDBRANCH   1  19
BRANCH   8  26
ATOM     26  C   UNL     1       6.368   6.206  16.920  0.00  0.00    +0.000 C 
ATOM     27  F   UNL     1       7.507   5.489  16.714  0.00  0.00    +0.000 F 
ATOM     28  F   UNL     1       5.703   6.206  15.733  0.00  0.00    +0.000 F 
ATOM     29  F   UNL     1       6.766   7.486  17.147  0.00  0.00    +0.000 F 
ENDBRANCH   8  26
TORSDOF 2
ENDMDL
MODEL 6
REMARK VINA RESULT:      -8.4      5.421      9.723
REMARK  Name = 
REMARK  2 active torsions:
REMARK  status: ('A' for Active; 'I' for Inactive)
REMARK    1  A    between atoms: C_8  and  N_9
REMARK    2  A    between atoms: C_16  and  C_17
REMARK                            x       y       z     vdW  Elec       q    Type
REMARK                         _______ _______ _______ _____ _____    ______ ____
ROOT
ATOM      1  N   UNL     1       1.278   9.683  19.815  0.00  0.00    +0.000 N 
ATOM      2  C   UNL     1       0.442  10.145  20.811  0.00  0.00    +0.000 A 
ATOM      3  C   UNL     1       0.534   9.556  22.193  0.00  0.00    +0.000 A 
ATOM      4  C   UNL     1      -0.336   9.943  23.128  0.00  0.00    +0.000 A 
ATOM      5  C   UNL     1      -1.269  10.942  22.807  0.00  0.00    +0.000 A 
ATOM      6  N   UNL     1      -2.221  11.513  23.506  0.00  0.00    +0.000 NA
ATOM      7  N   UNL     1      -2.797  12.472  22.712  0.00  0.00    +0.000 NA
ATOM      8  C   UNL     1      -2.185  12.462  21.541  0.00  0.00    +0.000 A 
ATOM      9  N   UNL     1      -1.216  11.491  21.540  0.00  0.00    +0.000 N 
ATOM     10  N   UNL     1      -0.388  11.116  20.511  0.00  0.00    +0.000 NA
ATOM     11  H   UNL     1       1.141  10.150  18.922  0.00  0.00    +0.000 HD
ENDROOT
BRANCH   1  19
ATOM     12  O   UNL     1       4.912   1.858  20.513  0.00  0.00    +0.000 OA
ATOM     13  C   UNL     1       4.260   2.519  19.702  0.00  0.00    +0.000 C 
ATOM     14  C   UNL     1       3.117   3.448  20.153  0.00  0.00    +0.000 C 
ATOM     15  N   UNL     1       2.545   4.290  19.089  0.00  0.00    +0.000 N 
ATOM     16  C   UNL     1       2.295   5.628  19.305  0.00  0.00    +0.000 A 
ATOM     17  C   UNL     1       1.829   6.092  20.537  0.00  0.00    +0.000 A 
ATOM     18  C   UNL     1       1.513   7.444  20.718  0.00  0.00    +0.000 A 
ATOM     19  C   UNL     1       1.651   8.333  19.661  0.00  0.00    +0.000 A 
ATOM     20  C   UNL     1       2.172   7.800  18.486  0.00  0.00    +0.000 A 
ATOM     21  N   UNL     1       2.470   6.492  18.286  0.00  0.00    +0.000 NA
ATOM     22  C   UNL     1       2.586   3.768  17.723  0.00  0.00    +0.000 C 
ATOM     23  C   UNL     1       4.003   3.309  17.380  0.00  0.00    +0.000 C 
ATOM     24  N   UNL     1       4.522   2.382  18.364  0.00  0.00    +0.000 N 
ATOM     25  H   UNL     1       5.336   1.818  18.149  0.00  0.00    +0.000 HD
ENDBRANCH   1  19
BRANCH   8  26
ATOM     26  C   UNL     1      -2.424  13.329  20.383  0.00  0.00    +0.000 C 
ATOM     27  F   UNL     1      -2.796  12.625  19.279  0.00  0.00    +0.000 F 
ATOM     28  F   UNL     1      -3.416  14.233  20.606  0.00  0.00    +0.000 F 
ATOM     29  F   UNL     1      -1.321  14.038  20.022  0.00  0.00    +0.000 F 
ENDBRANCH   8  26
TORSDOF 2
ENDMDL
MODEL 7
REMARK VINA RESULT:      -8.3      2.872      3.445
REMARK  Name = 
REMARK  2 active torsions:
REMARK  status: ('A' for Active; 'I' for Inactive)
REMARK    1  A    between atoms: C_8  and  N_9
REMARK    2  A    between atoms: C_16  and  C_17
REMARK                            x       y       z     vdW  Elec       q    Type
REMARK                         _______ _______ _______ _____ _____    ______ ____
ROOT
ATOM      1  N   UNL     1       2.397   6.741  20.575  0.00  0.00    +0.000 N 
ATOM      2  C   UNL     1       3.017   6.165  19.485  0.00  0.00    +0.000 A 
ATOM      3  C   UNL     1       3.658   7.042  18.443  0.00  0.00    +0.000 A 
ATOM      4  C   UNL     1       4.177   6.484  17.348  0.00  0.00    +0.000 A 
ATOM      5  C   UNL     1       4.168   5.084  17.237  0.00  0.00    +0.000 A 
ATOM      6  N   UNL     1       4.600   4.274  16.300  0.00  0.00    +0.000 NA
ATOM      7  N   UNL     1       4.387   2.990  16.735  0.00  0.00    +0.000 NA
ATOM      8  C   UNL     1       3.823   3.046  17.928  0.00  0.00    +0.000 A 
ATOM      9  N   UNL     1       3.642   4.357  18.287  0.00  0.00    +0.000 N 
ATOM     10  N   UNL     1       3.048   4.854  19.421  0.00  0.00    +0.000 NA
ATOM     11  H   UNL     1       2.002   6.062  21.222  0.00  0.00    +0.000 HD
ENDROOT
BRANCH   1  19
ATOM     12  O   UNL     1      -3.727  12.820  21.260  0.00  0.00    +0.000 OA
ATOM     13  C   UNL     1      -2.709  12.586  20.605  0.00  0.00    +0.000 C 
ATOM     14  C   UNL     1      -1.469  11.934  21.247  0.00  0.00    +0.000 C 
ATOM     15  N   UNL     1      -0.400  11.570  20.303  0.00  0.00    +0.000 N 
ATOM     16  C   UNL     1       0.226  10.345  20.384  0.00  0.00    +0.000 A 
ATOM     17  C   UNL     1       0.499   9.747  21.617  0.00  0.00    +0.000 A 
ATOM     18  C   UNL     1       1.199   8.536  21.683  0.00  0.00    +0.000 A 
ATOM     19  C   UNL     1       1.639   7.927  20.516  0.00  0.00    +0.000 A 
ATOM     20  C   UNL     1       1.279   8.560  19.330  0.00  0.00    +0.000 A 
ATOM     21  N   UNL     1       0.615   9.740  19.245  0.00  0.00    +0.000 NA
ATOM     22  C   UNL     1      -0.273  12.374  19.088  0.00  0.00    +0.000 C 
ATOM     23  C   UNL     1      -1.629  12.486  18.390  0.00  0.00    +0.000 C 
ATOM     24  N   UNL     1      -2.659  12.963  19.288  0.00  0.00    +0.000 N 
ATOM     25  H   UNL     1      -3.535  13.310  18.916  0.00  0.00    +0.000 HD
ENDBRANCH   1  19
BRANCH   8  26
ATOM     26  C   UNL     1       3.442   1.935  18.807  0.00  0.00    +0.000 C 
ATOM     27  F   UNL     1       3.837   0.729  18.314  0.00  0.00    +0.000 F 
ATOM     28  F   UNL     1       3.998   2.036  20.044  0.00  0.00    +0.000 F 
ATOM     29  F   UNL     1       2.098   1.845  18.986  0.00  0.00    +0.000 F 
ENDBRANCH   8  26
TORSDOF 2
ENDMDL
MODEL 8
REMARK VINA RESULT:      -8.3      3.216      3.973
REMARK  Name = 
REMARK  2 active torsions:
REMARK  status: ('A' for Active; 'I' for Inactive)
REMARK    1  A    between atoms: C_8  and  N_9
REMARK    2  A    between atoms: C_16  and  C_17
REMARK                            x       y       z     vdW  Elec       q    Type
REMARK                         _______ _______ _______ _____ _____    ______ ____
ROOT
ATOM      1  N   UNL     1       2.120   7.251  20.226  0.00  0.00    +0.000 N 
ATOM      2  C   UNL     1       2.826   6.559  19.262  0.00  0.00    +0.000 A 
ATOM      3  C   UNL     1       3.613   7.317  18.227  0.00  0.00    +0.000 A 
ATOM      4  C   UNL     1       4.219   6.646  17.246  0.00  0.00    +0.000 A 
ATOM      5  C   UNL     1       4.157   5.243  17.252  0.00  0.00    +0.000 A 
ATOM      6  N   UNL     1       4.649   4.338  16.439  0.00  0.00    +0.000 NA
ATOM      7  N   UNL     1       4.332   3.106  16.954  0.00  0.00    +0.000 NA
ATOM      8  C   UNL     1       3.649   3.287  18.070  0.00  0.00    +0.000 A 
ATOM      9  N   UNL     1       3.490   4.631  18.296  0.00  0.00    +0.000 N 
ATOM     10  N   UNL     1       2.803   5.248  19.312  0.00  0.00    +0.000 NA
ATOM     11  H   UNL     1       1.629   6.647  20.880  0.00  0.00    +0.000 HD
ENDROOT
BRANCH   1  19
ATOM     12  O   UNL     1      -0.120  15.430  18.493  0.00  0.00    +0.000 OA
ATOM     13  C   UNL     1      -0.603  14.413  18.993  0.00  0.00    +0.000 C 
ATOM     14  C   UNL     1      -0.308  13.013  18.420  0.00  0.00    +0.000 C 
ATOM     15  N   UNL     1      -0.824  11.892  19.222  0.00  0.00    +0.000 N 
ATOM     16  C   UNL     1      -0.039  10.789  19.480  0.00  0.00    +0.000 A 
ATOM     17  C   UNL     1       0.843  10.282  18.522  0.00  0.00    +0.000 A 
ATOM     18  C   UNL     1       1.581   9.119  18.776  0.00  0.00    +0.000 A 
ATOM     19  C   UNL     1       1.428   8.454  19.985  0.00  0.00    +0.000 A 
ATOM     20  C   UNL     1       0.572   9.056  20.903  0.00  0.00    +0.000 A 
ATOM     21  N   UNL     1      -0.162  10.172  20.672  0.00  0.00    +0.000 NA
ATOM     22  C   UNL     1      -2.028  12.131  20.017  0.00  0.00    +0.000 C 
ATOM     23  C   UNL     1      -1.857  13.396  20.858  0.00  0.00    +0.000 C 
ATOM     24  N   UNL     1      -1.468  14.533  20.050  0.00  0.00    +0.000 N 
ATOM     25  H   UNL     1      -1.551  15.471  20.421  0.00  0.00    +0.000 HD
ENDBRANCH   1  19
BRANCH   8  26
ATOM     26  C   UNL     1       3.127   2.273  18.991  0.00  0.00    +0.000 C 
ATOM     27  F   UNL     1       3.441   1.008  18.597  0.00  0.00    +0.000 F 
ATOM     28  F   UNL     1       3.623   2.410  20.250  0.00  0.00    +0.000 F 
ATOM     29  F   UNL     1       1.772   2.308  19.096  0.00  0.00    +0.000 F 
ENDBRANCH   8  26
TORSDOF 2
ENDMDL
MODEL 9
REMARK VINA RESULT:      -8.2      3.794      4.754
REMARK  Name = 
REMARK  2 active torsions:
REMARK  status: ('A' for Active; 'I' for Inactive)
REMARK    1  A    between atoms: C_8  and  N_9
REMARK    2  A    between atoms: C_16  and  C_17
REMARK                            x       y       z     vdW  Elec       q    Type
REMARK                         _______ _______ _______ _____ _____    ______ ____
ROOT
ATOM      1  N   UNL     1       1.621   7.619  21.171  0.00  0.00    +0.000 N 
ATOM      2  C   UNL     1       2.082   6.832  20.135  0.00  0.00    +0.000 A 
ATOM      3  C   UNL     1       2.802   7.472  18.978  0.00  0.00    +0.000 A 
ATOM      4  C   UNL     1       3.166   6.720  17.938  0.00  0.00    +0.000 A 
ATOM      5  C   UNL     1       2.923   5.337  17.990  0.00  0.00    +0.000 A 
ATOM      6  N   UNL     1       3.169   4.370  17.139  0.00  0.00    +0.000 NA
ATOM      7  N   UNL     1       2.773   3.195  17.725  0.00  0.00    +0.000 NA
ATOM      8  C   UNL     1       2.289   3.472  18.922  0.00  0.00    +0.000 A 
ATOM      9  N   UNL     1       2.341   4.827  19.134  0.00  0.00    +0.000 N 
ATOM     10  N   UNL     1       1.896   5.536  20.222  0.00  0.00    +0.000 NA
ATOM     11  H   UNL     1       1.155   7.090  21.905  0.00  0.00    +0.000 HD
ENDROOT
BRANCH   1  19
ATOM     12  O   UNL     1      -0.288  15.650  18.568  0.00  0.00    +0.000 OA
ATOM     13  C   UNL     1      -0.475  14.910  19.535  0.00  0.00    +0.000 C 
ATOM     14  C   UNL     1      -0.748  13.404  19.358  0.00  0.00    +0.000 C 
ATOM     15  N   UNL     1      -0.788  12.629  20.609  0.00  0.00    +0.000 N 
ATOM     16  C   UNL     1      -0.136  11.419  20.710  0.00  0.00    +0.000 A 
ATOM     17  C   UNL     1      -0.085  10.527  19.636  0.00  0.00    +0.000 A 
ATOM     18  C   UNL     1       0.520   9.272  19.779  0.00  0.00    +0.000 A 
ATOM     19  C   UNL     1       1.064   8.902  21.001  0.00  0.00    +0.000 A 
ATOM     20  C   UNL     1       1.020   9.869  22.001  0.00  0.00    +0.000 A 
ATOM     21  N   UNL     1       0.426  11.083  21.888  0.00  0.00    +0.000 NA
ATOM     22  C   UNL     1      -1.221  13.326  21.820  0.00  0.00    +0.000 C 
ATOM     23  C   UNL     1      -0.433  14.626  21.985  0.00  0.00    +0.000 C 
ATOM     24  N   UNL     1      -0.495  15.449  20.795  0.00  0.00    +0.000 N 
ATOM     25  H   UNL     1      -0.230  16.425  20.840  0.00  0.00    +0.000 HD
ENDBRANCH   1  19
BRANCH   8  26
ATOM     26  C   UNL     1       1.778   2.543  19.935  0.00  0.00    +0.000 C 
ATOM     27  F   UNL     1       0.535   2.885  20.370  0.00  0.00    +0.000 F 
ATOM     28  F   UNL     1       1.675   1.270  19.467  0.00  0.00    +0.000 F 
ATOM     29  F   UNL     1       2.563   2.491  21.043  0.00  0.00    +0.000 F 
ENDBRANCH   8  26
TORSDOF 2
ENDMDL
