MODEL 1
REMARK VINA RESULT:      -8.7      0.000      0.000
REMARK  Name = 
REMARK  5 active torsions:
REMARK  status: ('A' for Active; 'I' for Inactive)
REMARK    1  A    between atoms: C_2  and  O_3
REMARK    2  A    between atoms: C_2  and  C_4
REMARK    3  A    between atoms: C_8  and  S_9
REMARK    4  A    between atoms: S_9  and  N_12
REMARK    5  A    between atoms: N_12  and  C_13
REMARK                            x       y       z     vdW  Elec       q    Type
REMARK                         _______ _______ _______ _____ _____    ______ ____
ROOT
ATOM      1  S   UNL     1       6.510   5.257  16.082  0.00  0.00    +0.000 S 
ATOM      2  O   UNL     1       7.057   4.184  16.885  0.00  0.00    +0.000 OA
ATOM      3  O   UNL     1       6.908   6.633  16.276  0.00  0.00    +0.000 OA
ENDROOT
BRANCH   1   8
ATOM      4  C   UNL     1       6.220   3.581  12.403  0.00  0.00    +0.000 A 
ATOM      5  C   UNL     1       7.214   4.261  11.685  0.00  0.00    +0.000 A 
ATOM      6  C   UNL     1       8.010   5.221  12.315  0.00  0.00    +0.000 A 
ATOM      7  C   UNL     1       7.806   5.521  13.662  0.00  0.00    +0.000 A 
ATOM      8  C   UNL     1       6.807   4.848  14.373  0.00  0.00    +0.000 A 
ATOM      9  C   UNL     1       6.039   3.845  13.764  0.00  0.00    +0.000 A 
BRANCH   4  11
ATOM     10  O   UNL     1       5.833   1.481  11.360  0.00  0.00    +0.000 OA
ATOM     11  C   UNL     1       5.400   2.575  11.685  0.00  0.00    +0.000 C 
BRANCH  11  12
ATOM     12  O   UNL     1       4.163   3.008  11.360  0.00  0.00    +0.000 OA
ATOM     13  H   UNL     1       3.571   3.223  12.104  0.00  0.00    +0.000 HD
ENDBRANCH  11  12
ENDBRANCH   4  11
ENDBRANCH   1   8
BRANCH   1  14
ATOM     14  N   UNL     1       4.816   5.225  16.183  0.00  0.00    +0.000 N 
ATOM     15  H   UNL     1       4.402   4.599  15.493  0.00  0.00    +0.000 HD
BRANCH  14  16
ATOM     16  C   UNL     1       4.216   5.304  17.470  0.00  0.00    +0.000 A 
ATOM     17  C   UNL     1       3.744   6.543  17.945  0.00  0.00    +0.000 A 
ATOM     18  C   UNL     1       3.008   6.613  19.132  0.00  0.00    +0.000 A 
ATOM     19  C   UNL     1       2.762   5.432  19.801  0.00  0.00    +0.000 A 
ATOM     20  C   UNL     1       3.247   4.225  19.347  0.00  0.00    +0.000 A 
ATOM     21  C   UNL     1       3.985   4.128  18.188  0.00  0.00    +0.000 A 
ATOM     22  O   UNL     1       2.873   3.187  20.143  0.00  0.00    +0.000 OA
ATOM     23  C   UNL     1       1.938   3.863  20.995  0.00  0.00    +0.000 C 
ATOM     24  F   UNL     1       0.687   3.486  20.631  0.00  0.00    +0.000 F 
ATOM     25  F   UNL     1       2.135   3.470  22.275  0.00  0.00    +0.000 F 
ATOM     26  O   UNL     1       2.010   5.296  20.926  0.00  0.00    +0.000 OA
ENDBRANCH  14  16
ENDBRANCH   1  14
TORSDOF 5
ENDMDL
MODEL 2
REMARK VINA RESULT:      -8.7      1.181      1.503
REMARK  Name = 
REMARK  5 active torsions:
REMARK  status: ('A' for Active; 'I' for Inactive)
REMARK    1  A    between atoms: C_2  and  O_3
REMARK    2  A    between atoms: C_2  and  C_4
REMARK    3  A    between atoms: C_8  and  S_9
REMARK    4  A    between atoms: S_9  and  N_12
REMARK    5  A    between atoms: N_12  and  C_13
REMARK                            x       y       z     vdW  Elec       q    Type
REMARK                         _______ _______ _______ _____ _____    ______ ____
ROOT
ATOM      1  S   UNL     1       6.758   5.361  16.073  0.00  0.00    +0.000 S 
ATOM      2  O   UNL     1       7.010   4.164  16.847  0.00  0.00    +0.000 OA
ATOM      3  O   UNL     1       7.497   6.584  16.298  0.00  0.00    +0.000 OA
ENDROOT
BRANCH   1   8
ATOM      4  C   UNL     1       6.216   3.657  12.436  0.00  0.00    +0.000 A 
ATOM      5  C   UNL     1       7.173   4.316  11.651  0.00  0.00    +0.000 A 
ATOM      6  C   UNL     1       8.020   5.269  12.221  0.00  0.00    +0.000 A 
ATOM      7  C   UNL     1       7.905   5.585  13.575  0.00  0.00    +0.000 A 
ATOM      8  C   UNL     1       6.942   4.932  14.353  0.00  0.00    +0.000 A 
ATOM      9  C   UNL     1       6.124   3.935  13.803  0.00  0.00    +0.000 A 
BRANCH   4  11
ATOM     10  O   UNL     1       4.200   2.913  11.421  0.00  0.00    +0.000 OA
ATOM     11  C   UNL     1       5.338   2.656  11.780  0.00  0.00    +0.000 C 
BRANCH  11  12
ATOM     12  O   UNL     1       5.885   1.425  11.688  0.00  0.00    +0.000 OA
ATOM     13  H   UNL     1       5.460   0.809  11.065  0.00  0.00    +0.000 HD
ENDBRANCH  11  12
ENDBRANCH   4  11
ENDBRANCH   1   8
BRANCH   1  14
ATOM     14  N   UNL     1       5.112   5.763  16.182  0.00  0.00    +0.000 N 
ATOM     15  H   UNL     1       4.684   5.879  15.264  0.00  0.00    +0.000 HD
BRANCH  14  16
ATOM     16  C   UNL     1       4.341   5.169  17.218  0.00  0.00    +0.000 A 
ATOM     17  C   UNL     1       3.961   5.938  18.335  0.00  0.00    +0.000 A 
ATOM     18  C   UNL     1       3.070   5.422  19.281  0.00  0.00    +0.000 A 
ATOM     19  C   UNL     1       2.581   4.150  19.070  0.00  0.00    +0.000 A 
ATOM     20  C   UNL     1       2.974   3.390  17.990  0.00  0.00    +0.000 A 
ATOM     21  C   UNL     1       3.860   3.868  17.049  0.00  0.00    +0.000 A 
ATOM     22  O   UNL     1       2.358   2.177  17.961  0.00  0.00    +0.000 OA
ATOM     23  C   UNL     1       1.398   2.371  19.008  0.00  0.00    +0.000 C 
ATOM     24  F   UNL     1       0.178   2.534  18.437  0.00  0.00    +0.000 F 
ATOM     25  F   UNL     1       1.350   1.262  19.782  0.00  0.00    +0.000 F 
ATOM     26  O   UNL     1       1.658   3.514  19.840  0.00  0.00    +0.000 OA
ENDBRANCH  14  16
ENDBRANCH   1  14
TORSDOF 5
ENDMDL
MODEL 3
REMARK VINA RESULT:      -8.6      0.897      1.701
REMARK  Name = 
REMARK  5 active torsions:
REMARK  status: ('A' for Active; 'I' for Inactive)
REMARK    1  A    between atoms: C_2  and  O_3
REMARK    2  A    between atoms: C_2  and  C_4
REMARK    3  A    between atoms: C_8  and  S_9
REMARK    4  A    between atoms: S_9  and  N_12
REMARK    5  A    between atoms: N_12  and  C_13
REMARK                            x       y       z     vdW  Elec       q    Type
REMARK                         _______ _______ _______ _____ _____    ______ ____
ROOT
ATOM      1  S   UNL     1       6.605   5.230  16.322  0.00  0.00    +0.000 S 
ATOM      2  O   UNL     1       6.798   3.993  17.048  0.00  0.00    +0.000 OA
ATOM      3  O   UNL     1       7.363   6.421  16.631  0.00  0.00    +0.000 OA
ENDROOT
BRANCH   1   8
ATOM      4  C   UNL     1       6.171   3.696  12.595  0.00  0.00    +0.000 A 
ATOM      5  C   UNL     1       7.162   4.376  11.874  0.00  0.00    +0.000 A 
ATOM      6  C   UNL     1       7.999   5.293  12.515  0.00  0.00    +0.000 A 
ATOM      7  C   UNL     1       7.840   5.549  13.877  0.00  0.00    +0.000 A 
ATOM      8  C   UNL     1       6.844   4.876  14.591  0.00  0.00    +0.000 A 
ATOM      9  C   UNL     1       6.034   3.915  13.970  0.00  0.00    +0.000 A 
BRANCH   4  11
ATOM     10  O   UNL     1       4.172   3.015  11.504  0.00  0.00    +0.000 OA
ATOM     11  C   UNL     1       5.305   2.737  11.865  0.00  0.00    +0.000 C 
BRANCH  11  12
ATOM     12  O   UNL     1       5.855   1.514  11.707  0.00  0.00    +0.000 OA
ATOM     13  H   UNL     1       5.762   0.898  12.457  0.00  0.00    +0.000 HD
ENDBRANCH  11  12
ENDBRANCH   4  11
ENDBRANCH   1   8
BRANCH   1  14
ATOM     14  N   UNL     1       4.966   5.669  16.388  0.00  0.00    +0.000 N 
ATOM     15  H   UNL     1       4.630   6.030  15.496  0.00  0.00    +0.000 HD
BRANCH  14  16
ATOM     16  C   UNL     1       4.087   4.872  17.170  0.00  0.00    +0.000 A 
ATOM     17  C   UNL     1       3.550   3.687  16.628  0.00  0.00    +0.000 A 
ATOM     18  C   UNL     1       2.817   2.809  17.432  0.00  0.00    +0.000 A 
ATOM     19  C   UNL     1       2.654   3.143  18.760  0.00  0.00    +0.000 A 
ATOM     20  C   UNL     1       3.158   4.315  19.281  0.00  0.00    +0.000 A 
ATOM     21  C   UNL     1       3.873   5.205  18.510  0.00  0.00    +0.000 A 
ATOM     22  O   UNL     1       2.902   4.440  20.612  0.00  0.00    +0.000 OA
ATOM     23  C   UNL     1       2.384   3.130  20.880  0.00  0.00    +0.000 C 
ATOM     24  F   UNL     1       3.331   2.432  21.556  0.00  0.00    +0.000 F 
ATOM     25  F   UNL     1       1.296   3.233  21.677  0.00  0.00    +0.000 F 
ATOM     26  O   UNL     1       2.036   2.383  19.702  0.00  0.00    +0.000 OA
ENDBRANCH  14  16
ENDBRANCH   1  14
TORSDOF 5
ENDMDL
MODEL 4
REMARK VINA RESULT:      -8.6      1.015      1.283
REMARK  Name = 
REMARK  5 active torsions:
REMARK  status: ('A' for Active; 'I' for Inactive)
REMARK    1  A    between atoms: C_2  and  O_3
REMARK    2  A    between atoms: C_2  and  C_4
REMARK    3  A    between atoms: C_8  and  S_9
REMARK    4  A    between atoms: S_9  and  N_12
REMARK    5  A    between atoms: N_12  and  C_13
REMARK                            x       y       z     vdW  Elec       q    Type
REMARK                         _______ _______ _______ _____ _____    ______ ____
ROOT
ATOM      1  S   UNL     1       6.163   5.482  16.026  0.00  0.00    +0.000 S 
ATOM      2  O   UNL     1       7.362   6.036  16.617  0.00  0.00    +0.000 OA
ATOM      3  O   UNL     1       4.938   6.244  15.928  0.00  0.00    +0.000 OA
ENDROOT
BRANCH   1   8
ATOM      4  C   UNL     1       6.077   3.580  12.448  0.00  0.00    +0.000 A 
ATOM      5  C   UNL     1       7.192   4.122  11.793  0.00  0.00    +0.000 A 
ATOM      6  C   UNL     1       8.007   5.055  12.439  0.00  0.00    +0.000 A 
ATOM      7  C   UNL     1       7.703   5.466  13.738  0.00  0.00    +0.000 A 
ATOM      8  C   UNL     1       6.584   4.930  14.384  0.00  0.00    +0.000 A 
ATOM      9  C   UNL     1       5.791   3.953  13.764  0.00  0.00    +0.000 A 
BRANCH   4  11
ATOM     10  O   UNL     1       4.117   2.854  11.316  0.00  0.00    +0.000 OA
ATOM     11  C   UNL     1       5.242   2.597  11.714  0.00  0.00    +0.000 C 
BRANCH  11  12
ATOM     12  O   UNL     1       5.809   1.377  11.596  0.00  0.00    +0.000 OA
ATOM     13  H   UNL     1       6.615   1.326  11.050  0.00  0.00    +0.000 HD
ENDBRANCH  11  12
ENDBRANCH   4  11
ENDBRANCH   1   8
BRANCH   1  14
ATOM     14  N   UNL     1       5.768   4.031  16.815  0.00  0.00    +0.000 N 
ATOM     15  H   UNL     1       6.542   3.368  16.809  0.00  0.00    +0.000 HD
BRANCH  14  16
ATOM     16  C   UNL     1       4.942   4.097  17.970  0.00  0.00    +0.000 A 
ATOM     17  C   UNL     1       4.877   5.291  18.715  0.00  0.00    +0.000 A 
ATOM     18  C   UNL     1       3.951   5.428  19.754  0.00  0.00    +0.000 A 
ATOM     19  C   UNL     1       3.112   4.364  20.006  0.00  0.00    +0.000 A 
ATOM     20  C   UNL     1       3.194   3.188  19.293  0.00  0.00    +0.000 A 
ATOM     21  C   UNL     1       4.105   3.020  18.272  0.00  0.00    +0.000 A 
ATOM     22  O   UNL     1       2.264   2.278  19.689  0.00  0.00    +0.000 OA
ATOM     23  C   UNL     1       1.478   3.102  20.560  0.00  0.00    +0.000 C 
ATOM     24  F   UNL     1       0.313   3.393  19.928  0.00  0.00    +0.000 F 
ATOM     25  F   UNL     1       1.180   2.409  21.683  0.00  0.00    +0.000 F 
ATOM     26  O   UNL     1       2.108   4.341  20.924  0.00  0.00    +0.000 OA
ENDBRANCH  14  16
ENDBRANCH   1  14
TORSDOF 5
ENDMDL
MODEL 5
REMARK VINA RESULT:      -8.6      1.152      1.724
REMARK  Name = 
REMARK  5 active torsions:
REMARK  status: ('A' for Active; 'I' for Inactive)
REMARK    1  A    between atoms: C_2  and  O_3
REMARK    2  A    between atoms: C_2  and  C_4
REMARK    3  A    between atoms: C_8  and  S_9
REMARK    4  A    between atoms: S_9  and  N_12
REMARK    5  A    between atoms: N_12  and  C_13
REMARK                            x       y       z     vdW  Elec       q    Type
REMARK                         _______ _______ _______ _____ _____    ______ ____
ROOT
ATOM      1  S   UNL     1       6.555   4.835  16.215  0.00  0.00    +0.000 S 
ATOM      2  O   UNL     1       7.845   4.661  16.848  0.00  0.00    +0.000 OA
ATOM      3  O   UNL     1       5.774   6.038  16.393  0.00  0.00    +0.000 OA
ENDROOT
BRANCH   1   8
ATOM      4  C   UNL     1       6.146   3.509  12.406  0.00  0.00    +0.000 A 
ATOM      5  C   UNL     1       7.088   4.285  11.716  0.00  0.00    +0.000 A 
ATOM      6  C   UNL     1       7.885   5.205  12.401  0.00  0.00    +0.000 A 
ATOM      7  C   UNL     1       7.734   5.369  13.779  0.00  0.00    +0.000 A 
ATOM      8  C   UNL     1       6.786   4.600  14.462  0.00  0.00    +0.000 A 
ATOM      9  C   UNL     1       6.019   3.636  13.793  0.00  0.00    +0.000 A 
BRANCH   4  11
ATOM     10  O   UNL     1       4.209   2.828  11.208  0.00  0.00    +0.000 OA
ATOM     11  C   UNL     1       5.321   2.550  11.630  0.00  0.00    +0.000 C 
BRANCH  11  12
ATOM     12  O   UNL     1       5.879   1.328  11.501  0.00  0.00    +0.000 OA
ATOM     13  H   UNL     1       5.427   0.596  11.958  0.00  0.00    +0.000 HD
ENDBRANCH  11  12
ENDBRANCH   4  11
ENDBRANCH   1   8
BRANCH   1  14
ATOM     14  N   UNL     1       5.545   3.536  16.633  0.00  0.00    +0.000 N 
ATOM     15  H   UNL     1       6.076   2.712  16.914  0.00  0.00    +0.000 HD
BRANCH  14  16
ATOM     16  C   UNL     1       4.330   3.821  17.313  0.00  0.00    +0.000 A 
ATOM     17  C   UNL     1       3.138   3.192  16.905  0.00  0.00    +0.000 A 
ATOM     18  C   UNL     1       1.968   3.332  17.659  0.00  0.00    +0.000 A 
ATOM     19  C   UNL     1       2.036   4.093  18.807  0.00  0.00    +0.000 A 
ATOM     20  C   UNL     1       3.198   4.728  19.190  0.00  0.00    +0.000 A 
ATOM     21  C   UNL     1       4.361   4.618  18.460  0.00  0.00    +0.000 A 
ATOM     22  O   UNL     1       3.052   5.408  20.360  0.00  0.00    +0.000 OA
ATOM     23  C   UNL     1       1.753   4.941  20.749  0.00  0.00    +0.000 C 
ATOM     24  F   UNL     1       1.909   4.060  21.768  0.00  0.00    +0.000 F 
ATOM     25  F   UNL     1       1.022   5.983  21.209  0.00  0.00    +0.000 F 
ATOM     26  O   UNL     1       1.026   4.284  19.698  0.00  0.00    +0.000 OA
ENDBRANCH  14  16
ENDBRANCH   1  14
TORSDOF 5
ENDMDL
MODEL 6
REMARK VINA RESULT:      -8.5      1.252      1.938
REMARK  Name = 
REMARK  5 active torsions:
REMARK  status: ('A' for Active; 'I' for Inactive)
REMARK    1  A    between atoms: C_2  and  O_3
REMARK    2  A    between atoms: C_2  and  C_4
REMARK    3  A    between atoms: C_8  and  S_9
REMARK    4  A    between atoms: S_9  and  N_12
REMARK    5  A    between atoms: N_12  and  C_13
REMARK                            x       y       z     vdW  Elec       q    Type
REMARK                         _______ _______ _______ _____ _____    ______ ____
ROOT
ATOM      1  S   UNL     1       6.233   5.500  16.125  0.00  0.00    +0.000 S 
ATOM      2  O   UNL     1       7.376   6.227  16.633  0.00  0.00    +0.000 OA
ATOM      3  O   UNL     1       4.911   6.084  16.091  0.00  0.00    +0.000 OA
ENDROOT
BRANCH   1   8
ATOM      4  C   UNL     1       6.098   3.647  12.522  0.00  0.00    +0.000 A 
ATOM      5  C   UNL     1       7.199   4.206  11.857  0.00  0.00    +0.000 A 
ATOM      6  C   UNL     1       8.019   5.135  12.503  0.00  0.00    +0.000 A 
ATOM      7  C   UNL     1       7.735   5.525  13.812  0.00  0.00    +0.000 A 
ATOM      8  C   UNL     1       6.630   4.973  14.469  0.00  0.00    +0.000 A 
ATOM      9  C   UNL     1       5.833   4.001  13.849  0.00  0.00    +0.000 A 
BRANCH   4  11
ATOM     10  O   UNL     1       4.128   2.930  11.404  0.00  0.00    +0.000 OA
ATOM     11  C   UNL     1       5.257   2.670  11.789  0.00  0.00    +0.000 C 
BRANCH  11  12
ATOM     12  O   UNL     1       5.823   1.452  11.656  0.00  0.00    +0.000 OA
ATOM     13  H   UNL     1       5.675   0.996  10.807  0.00  0.00    +0.000 HD
ENDBRANCH  11  12
ENDBRANCH   4  11
ENDBRANCH   1   8
BRANCH   1  14
ATOM     14  N   UNL     1       6.090   4.027  16.958  0.00  0.00    +0.000 N 
ATOM     15  H   UNL     1       6.944   3.785  17.460  0.00  0.00    +0.000 HD
BRANCH  14  16
ATOM     16  C   UNL     1       4.840   3.713  17.559  0.00  0.00    +0.000 A 
ATOM     17  C   UNL     1       3.987   2.775  16.947  0.00  0.00    +0.000 A 
ATOM     18  C   UNL     1       2.833   2.332  17.602  0.00  0.00    +0.000 A 
ATOM     19  C   UNL     1       2.578   2.841  18.858  0.00  0.00    +0.000 A 
ATOM     20  C   UNL     1       3.400   3.779  19.444  0.00  0.00    +0.000 A 
ATOM     21  C   UNL     1       4.536   4.242  18.816  0.00  0.00    +0.000 A 
ATOM     22  O   UNL     1       2.977   4.131  20.688  0.00  0.00    +0.000 OA
ATOM     23  C   UNL     1       1.944   3.154  20.875  0.00  0.00    +0.000 C 
ATOM     24  F   UNL     1       2.398   2.222  21.751  0.00  0.00    +0.000 F 
ATOM     25  F   UNL     1       0.861   3.749  21.426  0.00  0.00    +0.000 F 
ATOM     26  O   UNL     1       1.549   2.478  19.670  0.00  0.00    +0.000 OA
ENDBRANCH  14  16
ENDBRANCH   1  14
TORSDOF 5
ENDMDL
MODEL 7
REMARK VINA RESULT:      -8.2      1.714      2.029
REMARK  Name = 
REMARK  5 active torsions:
REMARK  status: ('A' for Active; 'I' for Inactive)
REMARK    1  A    between atoms: C_2  and  O_3
REMARK    2  A    between atoms: C_2  and  C_4
REMARK    3  A    between atoms: C_8  and  S_9
REMARK    4  A    between atoms: S_9  and  N_12
REMARK    5  A    between atoms: N_12  and  C_13
REMARK                            x       y       z     vdW  Elec       q    Type
REMARK                         _______ _______ _______ _____ _____    ______ ____
ROOT
ATOM      1  S   UNL     1       6.449   5.615  16.029  0.00  0.00    +0.000 S 
ATOM      2  O   UNL     1       7.563   6.449  16.426  0.00  0.00    +0.000 OA
ATOM      3  O   UNL     1       5.085   6.093  16.071  0.00  0.00    +0.000 OA
ENDROOT
BRANCH   1   8
ATOM      4  C   UNL     1       6.158   3.674  12.482  0.00  0.00    +0.000 A 
ATOM      5  C   UNL     1       7.218   4.228  11.750  0.00  0.00    +0.000 A 
ATOM      6  C   UNL     1       8.059   5.180  12.333  0.00  0.00    +0.000 A 
ATOM      7  C   UNL     1       7.835   5.599  13.645  0.00  0.00    +0.000 A 
ATOM      8  C   UNL     1       6.770   5.052  14.368  0.00  0.00    +0.000 A 
ATOM      9  C   UNL     1       5.954   4.057  13.812  0.00  0.00    +0.000 A 
BRANCH   4  11
ATOM     10  O   UNL     1       4.145   2.913  11.473  0.00  0.00    +0.000 OA
ATOM     11  C   UNL     1       5.292   2.671  11.815  0.00  0.00    +0.000 C 
BRANCH  11  12
ATOM     12  O   UNL     1       5.861   1.453  11.692  0.00  0.00    +0.000 OA
ATOM     13  H   UNL     1       5.253   0.702  11.565  0.00  0.00    +0.000 HD
ENDBRANCH  11  12
ENDBRANCH   4  11
ENDBRANCH   1   8
BRANCH   1  14
ATOM     14  N   UNL     1       6.483   4.171  16.923  0.00  0.00    +0.000 N 
ATOM     15  H   UNL     1       7.413   3.970  17.291  0.00  0.00    +0.000 HD
BRANCH  14  16
ATOM     16  C   UNL     1       5.354   3.849  17.724  0.00  0.00    +0.000 A 
ATOM     17  C   UNL     1       5.244   4.382  19.023  0.00  0.00    +0.000 A 
ATOM     18  C   UNL     1       4.070   4.211  19.762  0.00  0.00    +0.000 A 
ATOM     19  C   UNL     1       3.037   3.516  19.169  0.00  0.00    +0.000 A 
ATOM     20  C   UNL     1       3.157   2.973  17.908  0.00  0.00    +0.000 A 
ATOM     21  C   UNL     1       4.306   3.116  17.161  0.00  0.00    +0.000 A 
ATOM     22  O   UNL     1       2.017   2.347  17.505  0.00  0.00    +0.000 OA
ATOM     23  C   UNL     1       1.135   2.754  18.560  0.00  0.00    +0.000 C 
ATOM     24  F   UNL     1       0.292   3.696  18.065  0.00  0.00    +0.000 F 
ATOM     25  F   UNL     1       0.390   1.696  18.954  0.00  0.00    +0.000 F 
ATOM     26  O   UNL     1       1.803   3.312  19.703  0.00  0.00    +0.000 OA
ENDBRANCH  14  16
ENDBRANCH   1  14
TORSDOF 5
ENDMDL
MODEL 8
REMARK VINA RESULT:      -8.2      2.946      4.851
REMARK  Name = 
REMARK  5 active torsions:
REMARK  status: ('A' for Active; 'I' for Inactive)
REMARK    1  A    between atoms: C_2  and  O_3
REMARK    2  A    between atoms: C_2  and  C_4
REMARK    3  A    between atoms: C_8  and  S_9
REMARK    4  A    between atoms: S_9  and  N_12
REMARK    5  A    between atoms: N_12  and  C_13
REMARK                            x       y       z     vdW  Elec       q    Type
REMARK                         _______ _______ _______ _____ _____    ______ ____
ROOT
ATOM      1  S   UNL     1       6.222   4.900  15.592  0.00  0.00    +0.000 S 
ATOM      2  O   UNL     1       6.669   5.636  14.430  0.00  0.00    +0.000 OA
ATOM      3  O   UNL     1       6.329   3.460  15.671  0.00  0.00    +0.000 OA
ENDROOT
BRANCH   1   8
ATOM      4  C   UNL     1       7.968   7.489  18.176  0.00  0.00    +0.000 A 
ATOM      5  C   UNL     1       8.306   6.656  19.252  0.00  0.00    +0.000 A 
ATOM      6  C   UNL     1       8.035   5.287  19.199  0.00  0.00    +0.000 A 
ATOM      7  C   UNL     1       7.407   4.743  18.077  0.00  0.00    +0.000 A 
ATOM      8  C   UNL     1       7.063   5.579  17.010  0.00  0.00    +0.000 A 
ATOM      9  C   UNL     1       7.379   6.944  17.031  0.00  0.00    +0.000 A 
BRANCH   4  11
ATOM     10  O   UNL     1       7.803   9.769  17.527  0.00  0.00    +0.000 OA
ATOM     11  C   UNL     1       8.274   8.937  18.286  0.00  0.00    +0.000 C 
BRANCH  11  12
ATOM     12  O   UNL     1       9.173   9.235  19.248  0.00  0.00    +0.000 OA
ATOM     13  H   UNL     1       9.251  10.175  19.490  0.00  0.00    +0.000 HD
ENDBRANCH  11  12
ENDBRANCH   4  11
ENDBRANCH   1   8
BRANCH   1  14
ATOM     14  N   UNL     1       4.597   5.281  15.907  0.00  0.00    +0.000 N 
ATOM     15  H   UNL     1       3.980   4.981  15.153  0.00  0.00    +0.000 HD
BRANCH  14  16
ATOM     16  C   UNL     1       4.130   5.182  17.246  0.00  0.00    +0.000 A 
ATOM     17  C   UNL     1       3.838   6.352  17.972  0.00  0.00    +0.000 A 
ATOM     18  C   UNL     1       3.225   6.273  19.227  0.00  0.00    +0.000 A 
ATOM     19  C   UNL     1       2.916   5.018  19.709  0.00  0.00    +0.000 A 
ATOM     20  C   UNL     1       3.226   3.874  19.007  0.00  0.00    +0.000 A 
ATOM     21  C   UNL     1       3.841   3.921  17.775  0.00  0.00    +0.000 A 
ATOM     22  O   UNL     1       2.817   2.747  19.651  0.00  0.00    +0.000 OA
ATOM     23  C   UNL     1       2.042   3.340  20.702  0.00  0.00    +0.000 C 
ATOM     24  F   UNL     1       0.729   3.148  20.417  0.00  0.00    +0.000 F 
ATOM     25  F   UNL     1       2.311   2.708  21.867  0.00  0.00    +0.000 F 
ATOM     26  O   UNL     1       2.260   4.750  20.869  0.00  0.00    +0.000 OA
ENDBRANCH  14  16
ENDBRANCH   1  14
TORSDOF 5
ENDMDL
MODEL 9
REMARK VINA RESULT:      -8.1      3.686      5.233
REMARK  Name = 
REMARK  5 active torsions:
REMARK  status: ('A' for Active; 'I' for Inactive)
REMARK    1  A    between atoms: C_2  and  O_3
REMARK    2  A    between atoms: C_2  and  C_4
REMARK    3  A    between atoms: C_8  and  S_9
REMARK    4  A    between atoms: S_9  and  N_12
REMARK    5  A    between atoms: N_12  and  C_13
REMARK                            x       y       z     vdW  Elec       q    Type
REMARK                         _______ _______ _______ _____ _____    ______ ____
ROOT
ATOM      1  S   UNL     1       3.708   2.863  18.668  0.00  0.00    +0.000 S 
ATOM      2  O   UNL     1       3.634   1.635  17.906  0.00  0.00    +0.000 OA
ATOM      3  O   UNL     1       3.946   2.862  20.094  0.00  0.00    +0.000 OA
ENDROOT
BRANCH   1   8
ATOM      4  C   UNL     1       6.854   5.364  18.144  0.00  0.00    +0.000 A 
ATOM      5  C   UNL     1       6.967   5.415  16.747  0.00  0.00    +0.000 A 
ATOM      6  C   UNL     1       6.070   4.713  15.939  0.00  0.00    +0.000 A 
ATOM      7  C   UNL     1       5.064   3.939  16.521  0.00  0.00    +0.000 A 
ATOM      8  C   UNL     1       4.962   3.883  17.915  0.00  0.00    +0.000 A 
ATOM      9  C   UNL     1       5.823   4.627  18.734  0.00  0.00    +0.000 A 
BRANCH   4  11
ATOM     10  O   UNL     1       8.272   7.213  18.615  0.00  0.00    +0.000 OA
ATOM     11  C   UNL     1       7.836   6.124  18.956  0.00  0.00    +0.000 C 
BRANCH  11  12
ATOM     12  O   UNL     1       8.257   5.471  20.060  0.00  0.00    +0.000 OA
ATOM     13  H   UNL     1       9.188   5.605  20.313  0.00  0.00    +0.000 HD
ENDBRANCH  11  12
ENDBRANCH   4  11
ENDBRANCH   1   8
BRANCH   1  14
ATOM     14  N   UNL     1       2.293   3.766  18.414  0.00  0.00    +0.000 N 
ATOM     15  H   UNL     1       1.451   3.215  18.578  0.00  0.00    +0.000 HD
BRANCH  14  16
ATOM     16  C   UNL     1       2.291   5.135  18.799  0.00  0.00    +0.000 A 
ATOM     17  C   UNL     1       2.570   6.129  17.842  0.00  0.00    +0.000 A 
ATOM     18  C   UNL     1       2.413   7.482  18.160  0.00  0.00    +0.000 A 
ATOM     19  C   UNL     1       1.971   7.793  19.428  0.00  0.00    +0.000 A 
ATOM     20  C   UNL     1       1.723   6.819  20.371  0.00  0.00    +0.000 A 
ATOM     21  C   UNL     1       1.881   5.480  20.090  0.00  0.00    +0.000 A 
ATOM     22  O   UNL     1       1.277   7.340  21.546  0.00  0.00    +0.000 OA
ATOM     23  C   UNL     1       1.078   8.702  21.144  0.00  0.00    +0.000 C 
ATOM     24  F   UNL     1      -0.257   8.916  21.028  0.00  0.00    +0.000 F 
ATOM     25  F   UNL     1       1.549   9.526  22.109  0.00  0.00    +0.000 F 
ATOM     26  O   UNL     1       1.695   9.042  19.892  0.00  0.00    +0.000 OA
ENDBRANCH  14  16
ENDBRANCH   1  14
TORSDOF 5
ENDMDL
