MODEL 1
REMARK VINA RESULT:      -8.5      0.000      0.000
REMARK  Name = 
REMARK  7 active torsions:
REMARK  status: ('A' for Active; 'I' for Inactive)
REMARK    1  A    between atoms: C_1  and  N_2
REMARK    2  A    between atoms: N_2  and  C_3
REMARK    3  A    between atoms: N_2  and  C_23
REMARK    4  A    between atoms: C_3  and  C_4
REMARK    5  A    between atoms: C_9  and  N_10
REMARK    6  A    between atoms: N_10  and  S_11
REMARK    7  A    between atoms: S_11  and  C_14
REMARK                            x       y       z     vdW  Elec       q    Type
REMARK                         _______ _______ _______ _____ _____    ______ ____
ROOT
ATOM      1  C   UNL     1       2.126   5.073  19.441  0.00  0.00    +0.000 A 
ATOM      2  C   UNL     1       1.255   4.640  20.461  0.00  0.00    +0.000 A 
ATOM      3  C   UNL     1       0.629   3.397  20.387  0.00  0.00    +0.000 A 
ATOM      4  C   UNL     1       0.848   2.576  19.288  0.00  0.00    +0.000 A 
ATOM      5  C   UNL     1       1.731   2.976  18.281  0.00  0.00    +0.000 A 
ATOM      6  C   UNL     1       2.406   4.199  18.367  0.00  0.00    +0.000 A 
ENDROOT
BRANCH   6   7
ATOM      7  N   UNL     1       3.385   4.483  17.342  0.00  0.00    +0.000 N 
ATOM      8  H   UNL     1       3.047   4.296  16.400  0.00  0.00    +0.000 HD
BRANCH   7   9
ATOM      9  S   UNL     1       4.915   3.769  17.531  0.00  0.00    +0.000 S 
ATOM     10  O   UNL     1       5.385   3.945  18.887  0.00  0.00    +0.000 OA
ATOM     11  O   UNL     1       4.892   2.489  16.868  0.00  0.00    +0.000 OA
BRANCH   9  12
ATOM     12  C   UNL     1       6.063   4.645  16.582  0.00  0.00    +0.000 A 
ATOM     13  C   UNL     1       6.896   5.668  17.000  0.00  0.00    +0.000 A 
ATOM     14  N   UNL     1       7.626   6.073  15.910  0.00  0.00    +0.000 N 
ATOM     15  C   UNL     1       7.269   5.344  14.808  0.00  0.00    +0.000 A 
ATOM     16  N   UNL     1       7.808   5.511  13.587  0.00  0.00    +0.000 NA
ATOM     17  C   UNL     1       7.278   4.677  12.660  0.00  0.00    +0.000 A 
ATOM     18  C   UNL     1       6.277   3.742  12.891  0.00  0.00    +0.000 A 
ATOM     19  C   UNL     1       5.754   3.614  14.178  0.00  0.00    +0.000 A 
ATOM     20  C   UNL     1       6.278   4.443  15.187  0.00  0.00    +0.000 A 
ATOM     21  H   UNL     1       8.328   6.800  15.886  0.00  0.00    +0.000 HD
ENDBRANCH   9  12
ENDBRANCH   7   9
ENDBRANCH   6   7
BRANCH   1  22
ATOM     22  C   UNL     1       2.740   6.448  19.565  0.00  0.00    +0.000 C 
BRANCH  22  24
ATOM     23  C   UNL     1       3.604   7.676  17.629  0.00  0.00    +0.000 C 
ATOM     24  N   UNL     1       2.436   7.423  18.483  0.00  0.00    +0.000 NA
BRANCH  24  25
ATOM     25  C   UNL     1       1.856   8.680  19.058  0.00  0.00    +0.000 C 
ATOM     26  C   UNL     1       1.223   8.464  20.456  0.00  0.00    +0.000 C 
ATOM     27  C   UNL     1       0.547   9.717  21.013  0.00  0.00    +0.000 C 
ATOM     28  C   UNL     1      -0.470  10.275  20.025  0.00  0.00    +0.000 C 
ATOM     29  C   UNL     1       0.223  10.645  18.727  0.00  0.00    +0.000 C 
ATOM     30  C   UNL     1       0.895   9.432  18.101  0.00  0.00    +0.000 C 
ENDBRANCH  24  25
ENDBRANCH  22  24
ENDBRANCH   1  22
TORSDOF 6
ENDMDL
MODEL 2
REMARK VINA RESULT:      -8.1      0.440      1.057
REMARK  Name = 
REMARK  7 active torsions:
REMARK  status: ('A' for Active; 'I' for Inactive)
REMARK    1  A    between atoms: C_1  and  N_2
REMARK    2  A    between atoms: N_2  and  C_3
REMARK    3  A    between atoms: N_2  and  C_23
REMARK    4  A    between atoms: C_3  and  C_4
REMARK    5  A    between atoms: C_9  and  N_10
REMARK    6  A    between atoms: N_10  and  S_11
REMARK    7  A    between atoms: S_11  and  C_14
REMARK                            x       y       z     vdW  Elec       q    Type
REMARK                         _______ _______ _______ _____ _____    ______ ____
ROOT
ATOM      1  C   UNL     1       2.074   5.213  19.495  0.00  0.00    +0.000 A 
ATOM      2  C   UNL     1       1.226   4.790  20.537  0.00  0.00    +0.000 A 
ATOM      3  C   UNL     1       0.652   3.520  20.523  0.00  0.00    +0.000 A 
ATOM      4  C   UNL     1       0.902   2.660  19.460  0.00  0.00    +0.000 A 
ATOM      5  C   UNL     1       1.764   3.050  18.432  0.00  0.00    +0.000 A 
ATOM      6  C   UNL     1       2.387   4.304  18.460  0.00  0.00    +0.000 A 
ENDROOT
BRANCH   6   7
ATOM      7  N   UNL     1       3.350   4.581  17.418  0.00  0.00    +0.000 N 
ATOM      8  H   UNL     1       2.979   4.443  16.480  0.00  0.00    +0.000 HD
BRANCH   7   9
ATOM      9  S   UNL     1       4.852   3.798  17.540  0.00  0.00    +0.000 S 
ATOM     10  O   UNL     1       5.354   3.885  18.893  0.00  0.00    +0.000 OA
ATOM     11  O   UNL     1       4.764   2.555  16.813  0.00  0.00    +0.000 OA
BRANCH   9  12
ATOM     12  C   UNL     1       6.018   4.673  16.613  0.00  0.00    +0.000 A 
ATOM     13  C   UNL     1       6.840   5.699  17.046  0.00  0.00    +0.000 A 
ATOM     14  N   UNL     1       7.593   6.103  15.971  0.00  0.00    +0.000 N 
ATOM     15  C   UNL     1       7.260   5.371  14.863  0.00  0.00    +0.000 A 
ATOM     16  N   UNL     1       7.825   5.535  13.654  0.00  0.00    +0.000 NA
ATOM     17  C   UNL     1       7.318   4.697  12.718  0.00  0.00    +0.000 A 
ATOM     18  C   UNL     1       6.314   3.760  12.930  0.00  0.00    +0.000 A 
ATOM     19  C   UNL     1       5.763   3.634  14.206  0.00  0.00    +0.000 A 
ATOM     20  C   UNL     1       6.264   4.468  15.224  0.00  0.00    +0.000 A 
ATOM     21  H   UNL     1       8.293   6.832  15.959  0.00  0.00    +0.000 HD
ENDBRANCH   9  12
ENDBRANCH   7   9
ENDBRANCH   6   7
BRANCH   1  22
ATOM     22  C   UNL     1       2.629   6.617  19.554  0.00  0.00    +0.000 C 
BRANCH  22  24
ATOM     23  C   UNL     1       3.175   8.215  17.778  0.00  0.00    +0.000 C 
ATOM     24  N   UNL     1       2.101   7.594  18.564  0.00  0.00    +0.000 NA
BRANCH  24  25
ATOM     25  C   UNL     1       1.222   8.602  19.242  0.00  0.00    +0.000 C 
ATOM     26  C   UNL     1       1.370  10.024  18.644  0.00  0.00    +0.000 C 
ATOM     27  C   UNL     1       0.549  11.079  19.385  0.00  0.00    +0.000 C 
ATOM     28  C   UNL     1       0.863  11.070  20.875  0.00  0.00    +0.000 C 
ATOM     29  C   UNL     1       0.532   9.711  21.463  0.00  0.00    +0.000 C 
ATOM     30  C   UNL     1       1.341   8.612  20.788  0.00  0.00    +0.000 C 
ENDBRANCH  24  25
ENDBRANCH  22  24
ENDBRANCH   1  22
TORSDOF 6
ENDMDL
MODEL 3
REMARK VINA RESULT:      -8.0      0.931      1.398
REMARK  Name = 
REMARK  7 active torsions:
REMARK  status: ('A' for Active; 'I' for Inactive)
REMARK    1  A    between atoms: C_1  and  N_2
REMARK    2  A    between atoms: N_2  and  C_3
REMARK    3  A    between atoms: N_2  and  C_23
REMARK    4  A    between atoms: C_3  and  C_4
REMARK    5  A    between atoms: C_9  and  N_10
REMARK    6  A    between atoms: N_10  and  S_11
REMARK    7  A    between atoms: S_11  and  C_14
REMARK                            x       y       z     vdW  Elec       q    Type
REMARK                         _______ _______ _______ _____ _____    ______ ____
ROOT
ATOM      1  C   UNL     1       2.599   4.976  19.943  0.00  0.00    +0.000 A 
ATOM      2  C   UNL     1       1.461   4.719  20.733  0.00  0.00    +0.000 A 
ATOM      3  C   UNL     1       1.015   3.416  20.945  0.00  0.00    +0.000 A 
ATOM      4  C   UNL     1       1.687   2.351  20.358  0.00  0.00    +0.000 A 
ATOM      5  C   UNL     1       2.835   2.583  19.595  0.00  0.00    +0.000 A 
ATOM      6  C   UNL     1       3.323   3.883  19.417  0.00  0.00    +0.000 A 
ENDROOT
BRANCH   6   7
ATOM      7  N   UNL     1       4.577   4.022  18.711  0.00  0.00    +0.000 N 
ATOM      8  H   UNL     1       5.017   4.930  18.848  0.00  0.00    +0.000 HD
BRANCH   7   9
ATOM      9  S   UNL     1       4.562   3.659  17.052  0.00  0.00    +0.000 S 
ATOM     10  O   UNL     1       4.916   2.273  16.839  0.00  0.00    +0.000 OA
ATOM     11  O   UNL     1       3.388   4.268  16.475  0.00  0.00    +0.000 OA
BRANCH   9  12
ATOM     12  C   UNL     1       5.836   4.531  16.275  0.00  0.00    +0.000 A 
ATOM     13  C   UNL     1       6.657   5.496  16.832  0.00  0.00    +0.000 A 
ATOM     14  N   UNL     1       7.513   5.924  15.847  0.00  0.00    +0.000 N 
ATOM     15  C   UNL     1       7.247   5.266  14.676  0.00  0.00    +0.000 A 
ATOM     16  N   UNL     1       7.918   5.471  13.529  0.00  0.00    +0.000 NA
ATOM     17  C   UNL     1       7.460   4.706  12.508  0.00  0.00    +0.000 A 
ATOM     18  C   UNL     1       6.406   3.804  12.583  0.00  0.00    +0.000 A 
ATOM     19  C   UNL     1       5.745   3.635  13.800  0.00  0.00    +0.000 A 
ATOM     20  C   UNL     1       6.189   4.390  14.901  0.00  0.00    +0.000 A 
ATOM     21  H   UNL     1       8.239   6.621  15.935  0.00  0.00    +0.000 HD
ENDBRANCH   9  12
ENDBRANCH   7   9
ENDBRANCH   6   7
BRANCH   1  22
ATOM     22  C   UNL     1       3.003   6.415  19.722  0.00  0.00    +0.000 C 
BRANCH  22  24
ATOM     23  C   UNL     1       3.586   7.513  17.610  0.00  0.00    +0.000 C 
ATOM     24  N   UNL     1       2.494   7.077  18.491  0.00  0.00    +0.000 NA
BRANCH  24  25
ATOM     25  C   UNL     1       1.556   8.191  18.845  0.00  0.00    +0.000 C 
ATOM     26  C   UNL     1       1.884   9.510  18.100  0.00  0.00    +0.000 C 
ATOM     27  C   UNL     1       0.992  10.679  18.520  0.00  0.00    +0.000 C 
ATOM     28  C   UNL     1       1.022  10.874  20.031  0.00  0.00    +0.000 C 
ATOM     29  C   UNL     1       0.521   9.620  20.722  0.00  0.00    +0.000 C 
ATOM     30  C   UNL     1       1.385   8.418  20.369  0.00  0.00    +0.000 C 
ENDBRANCH  24  25
ENDBRANCH  22  24
ENDBRANCH   1  22
TORSDOF 6
ENDMDL
MODEL 4
REMARK VINA RESULT:      -7.9      2.593      6.948
REMARK  Name = 
REMARK  7 active torsions:
REMARK  status: ('A' for Active; 'I' for Inactive)
REMARK    1  A    between atoms: C_1  and  N_2
REMARK    2  A    between atoms: N_2  and  C_3
REMARK    3  A    between atoms: N_2  and  C_23
REMARK    4  A    between atoms: C_3  and  C_4
REMARK    5  A    between atoms: C_9  and  N_10
REMARK    6  A    between atoms: N_10  and  S_11
REMARK    7  A    between atoms: S_11  and  C_14
REMARK                            x       y       z     vdW  Elec       q    Type
REMARK                         _______ _______ _______ _____ _____    ______ ____
ROOT
ATOM      1  C   UNL     1       3.460   3.811  19.661  0.00  0.00    +0.000 A 
ATOM      2  C   UNL     1       2.879   2.533  19.777  0.00  0.00    +0.000 A 
ATOM      3  C   UNL     1       1.591   2.375  20.286  0.00  0.00    +0.000 A 
ATOM      4  C   UNL     1       0.870   3.488  20.701  0.00  0.00    +0.000 A 
ATOM      5  C   UNL     1       1.418   4.767  20.566  0.00  0.00    +0.000 A 
ATOM      6  C   UNL     1       2.691   4.943  20.010  0.00  0.00    +0.000 A 
ENDROOT
BRANCH   6   7
ATOM      7  N   UNL     1       3.134   6.303  19.802  0.00  0.00    +0.000 N 
ATOM      8  H   UNL     1       2.926   6.918  20.586  0.00  0.00    +0.000 HD
BRANCH   7   9
ATOM      9  S   UNL     1       2.635   7.056  18.363  0.00  0.00    +0.000 S 
ATOM     10  O   UNL     1       3.784   7.472  17.591  0.00  0.00    +0.000 OA
ATOM     11  O   UNL     1       1.555   6.278  17.807  0.00  0.00    +0.000 OA
BRANCH   9  12
ATOM     12  C   UNL     1       1.843   8.542  18.753  0.00  0.00    +0.000 A 
ATOM     13  C   UNL     1       1.672   9.645  17.934  0.00  0.00    +0.000 A 
ATOM     14  N   UNL     1       1.000  10.595  18.663  0.00  0.00    +0.000 N 
ATOM     15  C   UNL     1       0.752  10.131  19.927  0.00  0.00    +0.000 A 
ATOM     16  N   UNL     1       0.111  10.834  20.876  0.00  0.00    +0.000 NA
ATOM     17  C   UNL     1      -0.000  10.160  22.046  0.00  0.00    +0.000 A 
ATOM     18  C   UNL     1       0.490   8.884  22.294  0.00  0.00    +0.000 A 
ATOM     19  C   UNL     1       1.149   8.201  21.271  0.00  0.00    +0.000 A 
ATOM     20  C   UNL     1       1.279   8.846  20.026  0.00  0.00    +0.000 A 
ATOM     21  H   UNL     1       0.717  11.513  18.349  0.00  0.00    +0.000 HD
ENDBRANCH   9  12
ENDBRANCH   7   9
ENDBRANCH   6   7
BRANCH   1  22
ATOM     22  C   UNL     1       4.875   3.905  19.139  0.00  0.00    +0.000 C 
BRANCH  22  24
ATOM     23  C   UNL     1       4.887   3.653  16.701  0.00  0.00    +0.000 C 
ATOM     24  N   UNL     1       5.066   4.580  17.827  0.00  0.00    +0.000 NA
BRANCH  24  25
ATOM     25  C   UNL     1       6.388   5.287  17.790  0.00  0.00    +0.000 C 
ATOM     26  C   UNL     1       6.963   5.559  19.203  0.00  0.00    +0.000 C 
ATOM     27  C   UNL     1       8.265   6.360  19.181  0.00  0.00    +0.000 C 
ATOM     28  C   UNL     1       8.098   7.653  18.393  0.00  0.00    +0.000 C 
ATOM     29  C   UNL     1       7.710   7.337  16.961  0.00  0.00    +0.000 C 
ATOM     30  C   UNL     1       6.401   6.562  16.907  0.00  0.00    +0.000 C 
ENDBRANCH  24  25
ENDBRANCH  22  24
ENDBRANCH   1  22
TORSDOF 6
ENDMDL
MODEL 5
REMARK VINA RESULT:      -7.9      2.590      6.966
REMARK  Name = 
REMARK  7 active torsions:
REMARK  status: ('A' for Active; 'I' for Inactive)
REMARK    1  A    between atoms: C_1  and  N_2
REMARK    2  A    between atoms: N_2  and  C_3
REMARK    3  A    between atoms: N_2  and  C_23
REMARK    4  A    between atoms: C_3  and  C_4
REMARK    5  A    between atoms: C_9  and  N_10
REMARK    6  A    between atoms: N_10  and  S_11
REMARK    7  A    between atoms: S_11  and  C_14
REMARK                            x       y       z     vdW  Elec       q    Type
REMARK                         _______ _______ _______ _____ _____    ______ ____
ROOT
ATOM      1  C   UNL     1       3.380   3.578  19.287  0.00  0.00    +0.000 A 
ATOM      2  C   UNL     1       2.675   2.359  19.331  0.00  0.00    +0.000 A 
ATOM      3  C   UNL     1       1.474   2.251  20.030  0.00  0.00    +0.000 A 
ATOM      4  C   UNL     1       0.968   3.353  20.709  0.00  0.00    +0.000 A 
ATOM      5  C   UNL     1       1.638   4.578  20.653  0.00  0.00    +0.000 A 
ATOM      6  C   UNL     1       2.818   4.713  19.912  0.00  0.00    +0.000 A 
ENDROOT
BRANCH   6   7
ATOM      7  N   UNL     1       3.383   6.040  19.814  0.00  0.00    +0.000 N 
ATOM      8  H   UNL     1       3.571   6.465  20.720  0.00  0.00    +0.000 HD
BRANCH   7   9
ATOM      9  S   UNL     1       2.546   7.155  18.843  0.00  0.00    +0.000 S 
ATOM     10  O   UNL     1       3.478   8.040  18.181  0.00  0.00    +0.000 OA
ATOM     11  O   UNL     1       1.508   6.440  18.142  0.00  0.00    +0.000 OA
BRANCH   9  12
ATOM     12  C   UNL     1       1.631   8.209  19.861  0.00  0.00    +0.000 A 
ATOM     13  C   UNL     1       1.557   8.190  21.243  0.00  0.00    +0.000 A 
ATOM     14  N   UNL     1       0.704   9.199  21.621  0.00  0.00    +0.000 N 
ATOM     15  C   UNL     1       0.224   9.847  20.516  0.00  0.00    +0.000 A 
ATOM     16  N   UNL     1      -0.635  10.881  20.562  0.00  0.00    +0.000 NA
ATOM     17  C   UNL     1      -0.968  11.344  19.333  0.00  0.00    +0.000 A 
ATOM     18  C   UNL     1      -0.511  10.833  18.125  0.00  0.00    +0.000 A 
ATOM     19  C   UNL     1       0.379   9.758  18.138  0.00  0.00    +0.000 A 
ATOM     20  C   UNL     1       0.775   9.246  19.388  0.00  0.00    +0.000 A 
ATOM     21  H   UNL     1       0.443   9.450  22.564  0.00  0.00    +0.000 HD
ENDBRANCH   9  12
ENDBRANCH   7   9
ENDBRANCH   6   7
BRANCH   1  22
ATOM     22  C   UNL     1       4.696   3.613  18.545  0.00  0.00    +0.000 C 
BRANCH  22  24
ATOM     23  C   UNL     1       4.546   4.120  16.152  0.00  0.00    +0.000 C 
ATOM     24  N   UNL     1       4.846   4.650  17.489  0.00  0.00    +0.000 NA
BRANCH  24  25
ATOM     25  C   UNL     1       6.202   5.286  17.569  0.00  0.00    +0.000 C 
ATOM     26  C   UNL     1       6.776   5.294  19.008  0.00  0.00    +0.000 C 
ATOM     27  C   UNL     1       8.117   6.021  19.119  0.00  0.00    +0.000 C 
ATOM     28  C   UNL     1       8.023   7.432  18.552  0.00  0.00    +0.000 C 
ATOM     29  C   UNL     1       7.633   7.373  17.087  0.00  0.00    +0.000 C 
ATOM     30  C   UNL     1       6.288   6.685  16.907  0.00  0.00    +0.000 C 
ENDBRANCH  24  25
ENDBRANCH  22  24
ENDBRANCH   1  22
TORSDOF 6
ENDMDL
MODEL 6
REMARK VINA RESULT:      -7.8      2.753      7.251
REMARK  Name = 
REMARK  7 active torsions:
REMARK  status: ('A' for Active; 'I' for Inactive)
REMARK    1  A    between atoms: C_1  and  N_2
REMARK    2  A    between atoms: N_2  and  C_3
REMARK    3  A    between atoms: N_2  and  C_23
REMARK    4  A    between atoms: C_3  and  C_4
REMARK    5  A    between atoms: C_9  and  N_10
REMARK    6  A    between atoms: N_10  and  S_11
REMARK    7  A    between atoms: S_11  and  C_14
REMARK                            x       y       z     vdW  Elec       q    Type
REMARK                         _______ _______ _______ _____ _____    ______ ____
ROOT
ATOM      1  C   UNL     1       5.289   5.036  17.387  0.00  0.00    +0.000 A 
ATOM      2  C   UNL     1       6.544   4.513  17.756  0.00  0.00    +0.000 A 
ATOM      3  C   UNL     1       7.633   5.355  17.979  0.00  0.00    +0.000 A 
ATOM      4  C   UNL     1       7.489   6.728  17.822  0.00  0.00    +0.000 A 
ATOM      5  C   UNL     1       6.245   7.268  17.485  0.00  0.00    +0.000 A 
ATOM      6  C   UNL     1       5.131   6.438  17.307  0.00  0.00    +0.000 A 
ENDROOT
BRANCH   6   7
ATOM      7  N   UNL     1       3.861   7.086  17.074  0.00  0.00    +0.000 N 
ATOM      8  H   UNL     1       3.951   8.064  16.804  0.00  0.00    +0.000 HD
BRANCH   7   9
ATOM      9  S   UNL     1       2.701   6.959  18.309  0.00  0.00    +0.000 S 
ATOM     10  O   UNL     1       1.585   6.154  17.867  0.00  0.00    +0.000 OA
ATOM     11  O   UNL     1       3.399   6.722  19.549  0.00  0.00    +0.000 OA
BRANCH   9  12
ATOM     12  C   UNL     1       2.001   8.515  18.583  0.00  0.00    +0.000 A 
ATOM     13  C   UNL     1       2.013   9.606  17.731  0.00  0.00    +0.000 A 
ATOM     14  N   UNL     1       1.349  10.628  18.365  0.00  0.00    +0.000 N 
ATOM     15  C   UNL     1       0.929  10.219  19.602  0.00  0.00    +0.000 A 
ATOM     16  N   UNL     1       0.251  10.998  20.463  0.00  0.00    +0.000 NA
ATOM     17  C   UNL     1      -0.042  10.367  21.625  0.00  0.00    +0.000 A 
ATOM     18  C   UNL     1       0.309   9.062  21.949  0.00  0.00    +0.000 A 
ATOM     19  C   UNL     1       1.014   8.300  21.016  0.00  0.00    +0.000 A 
ATOM     20  C   UNL     1       1.331   8.898  19.782  0.00  0.00    +0.000 A 
ATOM     21  H   UNL     1       1.181  11.557  18.005  0.00  0.00    +0.000 HD
ENDBRANCH   9  12
ENDBRANCH   7   9
ENDBRANCH   6   7
BRANCH   1  22
ATOM     22  C   UNL     1       4.163   4.065  17.120  0.00  0.00    +0.000 C 
BRANCH  22  24
ATOM     23  C   UNL     1       3.521   1.718  17.416  0.00  0.00    +0.000 C 
ATOM     24  N   UNL     1       4.004   2.938  18.078  0.00  0.00    +0.000 NA
BRANCH  24  25
ATOM     25  C   UNL     1       3.142   3.349  19.233  0.00  0.00    +0.000 C 
ATOM     26  C   UNL     1       3.536   2.644  20.556  0.00  0.00    +0.000 C 
ATOM     27  C   UNL     1       2.607   2.985  21.722  0.00  0.00    +0.000 C 
ATOM     28  C   UNL     1       1.153   2.712  21.360  0.00  0.00    +0.000 C 
ATOM     29  C   UNL     1       0.750   3.559  20.168  0.00  0.00    +0.000 C 
ATOM     30  C   UNL     1       1.619   3.248  18.958  0.00  0.00    +0.000 C 
ENDBRANCH  24  25
ENDBRANCH  22  24
ENDBRANCH   1  22
TORSDOF 6
ENDMDL
MODEL 7
REMARK VINA RESULT:      -7.7      1.490      2.467
REMARK  Name = 
REMARK  7 active torsions:
REMARK  status: ('A' for Active; 'I' for Inactive)
REMARK    1  A    between atoms: C_1  and  N_2
REMARK    2  A    between atoms: N_2  and  C_3
REMARK    3  A    between atoms: N_2  and  C_23
REMARK    4  A    between atoms: C_3  and  C_4
REMARK    5  A    between atoms: C_9  and  N_10
REMARK    6  A    between atoms: N_10  and  S_11
REMARK    7  A    between atoms: S_11  and  C_14
REMARK                            x       y       z     vdW  Elec       q    Type
REMARK                         _______ _______ _______ _____ _____    ______ ____
ROOT
ATOM      1  C   UNL     1       2.402   4.937  20.143  0.00  0.00    +0.000 A 
ATOM      2  C   UNL     1       2.249   4.497  21.472  0.00  0.00    +0.000 A 
ATOM      3  C   UNL     1       1.651   3.270  21.756  0.00  0.00    +0.000 A 
ATOM      4  C   UNL     1       1.182   2.473  20.719  0.00  0.00    +0.000 A 
ATOM      5  C   UNL     1       1.351   2.880  19.392  0.00  0.00    +0.000 A 
ATOM      6  C   UNL     1       1.996   4.086  19.092  0.00  0.00    +0.000 A 
ENDROOT
BRANCH   6   7
ATOM      7  N   UNL     1       2.230   4.374  17.695  0.00  0.00    +0.000 N 
ATOM      8  H   UNL     1       1.386   4.328  17.127  0.00  0.00    +0.000 HD
BRANCH   7   9
ATOM      9  S   UNL     1       3.460   3.487  16.929  0.00  0.00    +0.000 S 
ATOM     10  O   UNL     1       4.091   2.590  17.871  0.00  0.00    +0.000 OA
ATOM     11  O   UNL     1       2.962   3.055  15.646  0.00  0.00    +0.000 OA
BRANCH   9  12
ATOM     12  C   UNL     1       4.731   4.566  16.476  0.00  0.00    +0.000 A 
ATOM     13  C   UNL     1       5.022   5.039  15.208  0.00  0.00    +0.000 A 
ATOM     14  N   UNL     1       6.120   5.857  15.318  0.00  0.00    +0.000 N 
ATOM     15  C   UNL     1       6.541   5.905  16.620  0.00  0.00    +0.000 A 
ATOM     16  N   UNL     1       7.596   6.622  17.044  0.00  0.00    +0.000 NA
ATOM     17  C   UNL     1       7.817   6.496  18.375  0.00  0.00    +0.000 A 
ATOM     18  C   UNL     1       7.072   5.714  19.249  0.00  0.00    +0.000 A 
ATOM     19  C   UNL     1       5.988   4.989  18.751  0.00  0.00    +0.000 A 
ATOM     20  C   UNL     1       5.700   5.095  17.378  0.00  0.00    +0.000 A 
ATOM     21  H   UNL     1       6.578   6.361  14.572  0.00  0.00    +0.000 HD
ENDBRANCH   9  12
ENDBRANCH   7   9
ENDBRANCH   6   7
BRANCH   1  22
ATOM     22  C   UNL     1       3.022   6.295  19.909  0.00  0.00    +0.000 C 
BRANCH  22  24
ATOM     23  C   UNL     1       2.982   7.663  17.876  0.00  0.00    +0.000 C 
ATOM     24  N   UNL     1       2.247   7.258  19.082  0.00  0.00    +0.000 NA
BRANCH  24  25
ATOM     25  C   UNL     1       1.808   8.427  19.912  0.00  0.00    +0.000 C 
ATOM     26  C   UNL     1       1.044   8.001  21.191  0.00  0.00    +0.000 C 
ATOM     27  C   UNL     1       0.511   9.184  21.999  0.00  0.00    +0.000 C 
ATOM     28  C   UNL     1      -0.337  10.103  21.128  0.00  0.00    +0.000 C 
ATOM     29  C   UNL     1       0.500  10.646  19.985  0.00  0.00    +0.000 C 
ATOM     30  C   UNL     1       1.040   9.516  19.119  0.00  0.00    +0.000 C 
ENDBRANCH  24  25
ENDBRANCH  22  24
ENDBRANCH   1  22
TORSDOF 6
ENDMDL
MODEL 8
REMARK VINA RESULT:      -7.6      2.204      2.629
REMARK  Name = 
REMARK  7 active torsions:
REMARK  status: ('A' for Active; 'I' for Inactive)
REMARK    1  A    between atoms: C_1  and  N_2
REMARK    2  A    between atoms: N_2  and  C_3
REMARK    3  A    between atoms: N_2  and  C_23
REMARK    4  A    between atoms: C_3  and  C_4
REMARK    5  A    between atoms: C_9  and  N_10
REMARK    6  A    between atoms: N_10  and  S_11
REMARK    7  A    between atoms: S_11  and  C_14
REMARK                            x       y       z     vdW  Elec       q    Type
REMARK                         _______ _______ _______ _____ _____    ______ ____
ROOT
ATOM      1  C   UNL     1       2.288   4.973  19.850  0.00  0.00    +0.000 A 
ATOM      2  C   UNL     1       1.860   4.457  21.089  0.00  0.00    +0.000 A 
ATOM      3  C   UNL     1       1.259   3.202  21.172  0.00  0.00    +0.000 A 
ATOM      4  C   UNL     1       1.060   2.452  20.019  0.00  0.00    +0.000 A 
ATOM      5  C   UNL     1       1.505   2.935  18.785  0.00  0.00    +0.000 A 
ATOM      6  C   UNL     1       2.156   4.171  18.695  0.00  0.00    +0.000 A 
ENDROOT
BRANCH   6   7
ATOM      7  N   UNL     1       2.684   4.542  17.401  0.00  0.00    +0.000 N 
ATOM      8  H   UNL     1       2.022   4.401  16.641  0.00  0.00    +0.000 HD
BRANCH   7   9
ATOM      9  S   UNL     1       4.179   3.863  16.965  0.00  0.00    +0.000 S 
ATOM     10  O   UNL     1       4.185   2.444  17.243  0.00  0.00    +0.000 OA
ATOM     11  O   UNL     1       4.560   4.414  15.688  0.00  0.00    +0.000 OA
BRANCH   9  12
ATOM     12  C   UNL     1       5.406   4.490  18.007  0.00  0.00    +0.000 A 
ATOM     13  C   UNL     1       5.787   4.005  19.246  0.00  0.00    +0.000 A 
ATOM     14  N   UNL     1       6.787   4.822  19.716  0.00  0.00    +0.000 N 
ATOM     15  C   UNL     1       7.041   5.820  18.814  0.00  0.00    +0.000 A 
ATOM     16  N   UNL     1       7.967   6.778  18.992  0.00  0.00    +0.000 NA
ATOM     17  C   UNL     1       8.019   7.657  17.962  0.00  0.00    +0.000 A 
ATOM     18  C   UNL     1       7.216   7.624  16.829  0.00  0.00    +0.000 A 
ATOM     19  C   UNL     1       6.270   6.607  16.698  0.00  0.00    +0.000 A 
ATOM     20  C   UNL     1       6.182   5.654  17.731  0.00  0.00    +0.000 A 
ATOM     21  H   UNL     1       7.282   4.732  20.592  0.00  0.00    +0.000 HD
ENDBRANCH   9  12
ENDBRANCH   7   9
ENDBRANCH   6   7
BRANCH   1  22
ATOM     22  C   UNL     1       2.896   6.357  19.827  0.00  0.00    +0.000 C 
BRANCH  22  24
ATOM     23  C   UNL     1       2.938   7.855  17.888  0.00  0.00    +0.000 C 
ATOM     24  N   UNL     1       2.169   7.400  19.055  0.00  0.00    +0.000 NA
BRANCH  24  25
ATOM     25  C   UNL     1       1.759   8.527  19.954  0.00  0.00    +0.000 C 
ATOM     26  C   UNL     1       1.031   8.040  21.232  0.00  0.00    +0.000 C 
ATOM     27  C   UNL     1       0.527   9.184  22.113  0.00  0.00    +0.000 C 
ATOM     28  C   UNL     1      -0.342  10.147  21.314  0.00  0.00    +0.000 C 
ATOM     29  C   UNL     1       0.464  10.743  20.175  0.00  0.00    +0.000 C 
ATOM     30  C   UNL     1       0.974   9.657  19.239  0.00  0.00    +0.000 C 
ENDBRANCH  24  25
ENDBRANCH  22  24
ENDBRANCH   1  22
TORSDOF 6
ENDMDL
MODEL 9
REMARK VINA RESULT:      -7.6      2.082      7.804
REMARK  Name = 
REMARK  7 active torsions:
REMARK  status: ('A' for Active; 'I' for Inactive)
REMARK    1  A    between atoms: C_1  and  N_2
REMARK    2  A    between atoms: N_2  and  C_3
REMARK    3  A    between atoms: N_2  and  C_23
REMARK    4  A    between atoms: C_3  and  C_4
REMARK    5  A    between atoms: C_9  and  N_10
REMARK    6  A    between atoms: N_10  and  S_11
REMARK    7  A    between atoms: S_11  and  C_14
REMARK                            x       y       z     vdW  Elec       q    Type
REMARK                         _______ _______ _______ _____ _____    ______ ____
ROOT
ATOM      1  C   UNL     1       3.605   4.078  17.326  0.00  0.00    +0.000 A 
ATOM      2  C   UNL     1       3.854   2.696  17.441  0.00  0.00    +0.000 A 
ATOM      3  C   UNL     1       2.962   1.861  18.111  0.00  0.00    +0.000 A 
ATOM      4  C   UNL     1       1.817   2.394  18.690  0.00  0.00    +0.000 A 
ATOM      5  C   UNL     1       1.538   3.758  18.561  0.00  0.00    +0.000 A 
ATOM      6  C   UNL     1       2.400   4.599  17.847  0.00  0.00    +0.000 A 
ENDROOT
BRANCH   6   7
ATOM      7  N   UNL     1       1.979   5.969  17.666  0.00  0.00    +0.000 N 
ATOM      8  H   UNL     1       1.984   6.267  16.692  0.00  0.00    +0.000 HD
BRANCH   7   9
ATOM      9  S   UNL     1       2.772   7.142  18.606  0.00  0.00    +0.000 S 
ATOM     10  O   UNL     1       2.929   6.671  19.964  0.00  0.00    +0.000 OA
ATOM     11  O   UNL     1       3.863   7.671  17.826  0.00  0.00    +0.000 OA
BRANCH   9  12
ATOM     12  C   UNL     1       1.744   8.521  18.766  0.00  0.00    +0.000 A 
ATOM     13  C   UNL     1       1.408   9.440  17.787  0.00  0.00    +0.000 A 
ATOM     14  N   UNL     1       0.580  10.371  18.365  0.00  0.00    +0.000 N 
ATOM     15  C   UNL     1       0.393  10.075  19.689  0.00  0.00    +0.000 A 
ATOM     16  N   UNL     1      -0.368  10.805  20.523  0.00  0.00    +0.000 NA
ATOM     17  C   UNL     1      -0.386  10.313  21.785  0.00  0.00    +0.000 A 
ATOM     18  C   UNL     1       0.301   9.188  22.225  0.00  0.00    +0.000 A 
ATOM     19  C   UNL     1       1.077   8.470  21.314  0.00  0.00    +0.000 A 
ATOM     20  C   UNL     1       1.120   8.925  19.983  0.00  0.00    +0.000 A 
ATOM     21  H   UNL     1       0.157  11.170  17.914  0.00  0.00    +0.000 HD
ENDBRANCH   9  12
ENDBRANCH   7   9
ENDBRANCH   6   7
BRANCH   1  22
ATOM     22  C   UNL     1       4.634   4.931  16.621  0.00  0.00    +0.000 C 
BRANCH  22  24
ATOM     23  C   UNL     1       7.047   4.554  16.825  0.00  0.00    +0.000 C 
ATOM     24  N   UNL     1       5.827   4.232  16.072  0.00  0.00    +0.000 NA
BRANCH  24  25
ATOM     25  C   UNL     1       5.965   4.505  14.604  0.00  0.00    +0.000 C 
ATOM     26  C   UNL     1       5.401   3.358  13.727  0.00  0.00    +0.000 C 
ATOM     27  C   UNL     1       5.618   3.581  12.230  0.00  0.00    +0.000 C 
ATOM     28  C   UNL     1       7.086   3.844  11.923  0.00  0.00    +0.000 C 
ATOM     29  C   UNL     1       7.554   5.084  12.661  0.00  0.00    +0.000 C 
ATOM     30  C   UNL     1       7.393   4.917  14.165  0.00  0.00    +0.000 C 
ENDBRANCH  24  25
ENDBRANCH  22  24
ENDBRANCH   1  22
TORSDOF 6
ENDMDL
