MODEL 1
REMARK VINA RESULT:      -9.2      0.000      0.000
REMARK  Name = 
REMARK  3 active torsions:
REMARK  status: ('A' for Active; 'I' for Inactive)
REMARK    1  A    between atoms: C_2  and  C_17
REMARK    2  A    between atoms: C_7  and  C_8
REMARK    3  A    between atoms: C_17  and  C_18
REMARK                            x       y       z     vdW  Elec       q    Type
REMARK                         _______ _______ _______ _____ _____    ______ ____
ROOT
ATOM      1  O   UNL     1       2.357   3.650  16.747  0.00  0.00    +0.000 OA
ATOM      2  C   UNL     1       3.049   3.953  17.731  0.00  0.00    +0.000 C 
ATOM      3  N   UNL     1       4.414   4.234  17.589  0.00  0.00    +0.000 N 
ATOM      4  C   UNL     1       5.349   4.603  18.648  0.00  0.00    +0.000 C 
ATOM      5  C   UNL     1       5.964   5.961  18.346  0.00  0.00    +0.000 C 
ATOM      6  C   UNL     1       6.714   5.906  17.020  0.00  0.00    +0.000 C 
ATOM      7  C   UNL     1       5.822   5.366  15.883  0.00  0.00    +0.000 C 
ATOM      8  C   UNL     1       5.076   4.078  16.289  0.00  0.00    +0.000 C 
ENDROOT
BRANCH   7   9
ATOM      9  C   UNL     1       6.652   5.124  14.667  0.00  0.00    +0.000 A 
ATOM     10  N   UNL     1       7.888   5.546  14.437  0.00  0.00    +0.000 NA
ATOM     11  N   UNL     1       8.297   5.084  13.190  0.00  0.00    +0.000 NA
ATOM     12  C   UNL     1       7.292   4.400  12.708  0.00  0.00    +0.000 A 
ATOM     13  N   UNL     1       6.260   4.424  13.586  0.00  0.00    +0.000 N 
ATOM     14  C   UNL     1       5.115   3.673  13.142  0.00  0.00    +0.000 C 
ATOM     15  C   UNL     1       5.714   2.839  11.992  0.00  0.00    +0.000 C 
ATOM     16  C   UNL     1       6.977   3.606  11.515  0.00  0.00    +0.000 C 
ENDBRANCH   7   9
BRANCH   2  17
ATOM     17  C   UNL     1       2.412   4.015  19.163  0.00  0.00    +0.000 C 
ATOM     18  C   UNL     1       3.294   3.336  20.250  0.00  0.00    +0.000 C 
ATOM     19  C   UNL     1       2.326   2.867  21.346  0.00  0.00    +0.000 C 
ATOM     20  C   UNL     1       0.965   2.741  20.684  0.00  0.00    +0.000 C 
ATOM     21  C   UNL     1       1.205   3.037  19.214  0.00  0.00    +0.000 C 
BRANCH  17  22
ATOM     22  C   UNL     1       2.198   5.481  19.563  0.00  0.00    +0.000 A 
ATOM     23  C   UNL     1       2.441   6.513  18.637  0.00  0.00    +0.000 A 
ATOM     24  C   UNL     1       2.158   7.834  18.963  0.00  0.00    +0.000 A 
ATOM     25  C   UNL     1       1.629   8.100  20.212  0.00  0.00    +0.000 A 
ATOM     26  N   UNL     1       1.390   7.151  21.138  0.00  0.00    +0.000 NA
ATOM     27  C   UNL     1       1.690   5.879  20.798  0.00  0.00    +0.000 A 
ENDBRANCH  17  22
ENDBRANCH   2  17
TORSDOF 3
ENDMDL
MODEL 2
REMARK VINA RESULT:      -8.9      3.007      7.612
REMARK  Name = 
REMARK  3 active torsions:
REMARK  status: ('A' for Active; 'I' for Inactive)
REMARK    1  A    between atoms: C_2  and  C_17
REMARK    2  A    between atoms: C_7  and  C_8
REMARK    3  A    between atoms: C_17  and  C_18
REMARK                            x       y       z     vdW  Elec       q    Type
REMARK                         _______ _______ _______ _____ _____    ______ ____
ROOT
ATOM      1  O   UNL     1       2.636   4.843  21.165  0.00  0.00    +0.000 OA
ATOM      2  C   UNL     1       2.858   4.897  19.945  0.00  0.00    +0.000 C 
ATOM      3  N   UNL     1       2.355   5.949  19.170  0.00  0.00    +0.000 N 
ATOM      4  C   UNL     1       2.533   6.147  17.735  0.00  0.00    +0.000 C 
ATOM      5  C   UNL     1       3.215   7.481  17.475  0.00  0.00    +0.000 C 
ATOM      6  C   UNL     1       2.360   8.615  18.028  0.00  0.00    +0.000 C 
ATOM      7  C   UNL     1       1.996   8.385  19.510  0.00  0.00    +0.000 C 
ATOM      8  C   UNL     1       1.471   6.958  19.766  0.00  0.00    +0.000 C 
ENDROOT
BRANCH   7   9
ATOM      9  C   UNL     1       0.988   9.396  19.941  0.00  0.00    +0.000 A 
ATOM     10  N   UNL     1       0.272  10.202  19.169  0.00  0.00    +0.000 NA
ATOM     11  N   UNL     1      -0.561  10.973  19.973  0.00  0.00    +0.000 NA
ATOM     12  C   UNL     1      -0.318  10.609  21.204  0.00  0.00    +0.000 A 
ATOM     13  N   UNL     1       0.644   9.654  21.217  0.00  0.00    +0.000 N 
ATOM     14  C   UNL     1       0.958   9.177  22.538  0.00  0.00    +0.000 C 
ATOM     15  C   UNL     1      -0.233   9.712  23.356  0.00  0.00    +0.000 C 
ATOM     16  C   UNL     1      -0.801  10.916  22.556  0.00  0.00    +0.000 C 
ENDBRANCH   7   9
BRANCH   2  17
ATOM     17  C   UNL     1       3.698   3.775  19.239  0.00  0.00    +0.000 C 
ATOM     18  C   UNL     1       2.917   3.059  18.099  0.00  0.00    +0.000 C 
ATOM     19  C   UNL     1       3.519   1.651  17.997  0.00  0.00    +0.000 C 
ATOM     20  C   UNL     1       4.166   1.367  19.341  0.00  0.00    +0.000 C 
ATOM     21  C   UNL     1       3.831   2.569  20.208  0.00  0.00    +0.000 C 
BRANCH  17  22
ATOM     22  C   UNL     1       4.968   4.392  18.640  0.00  0.00    +0.000 A 
ATOM     23  C   UNL     1       5.253   4.243  17.270  0.00  0.00    +0.000 A 
ATOM     24  C   UNL     1       6.351   4.880  16.703  0.00  0.00    +0.000 A 
ATOM     25  C   UNL     1       7.145   5.664  17.520  0.00  0.00    +0.000 A 
ATOM     26  N   UNL     1       6.923   5.829  18.839  0.00  0.00    +0.000 NA
ATOM     27  C   UNL     1       5.858   5.184  19.363  0.00  0.00    +0.000 A 
ENDBRANCH  17  22
ENDBRANCH   2  17
TORSDOF 3
ENDMDL
MODEL 3
REMARK VINA RESULT:      -8.9      2.937      7.843
REMARK  Name = 
REMARK  3 active torsions:
REMARK  status: ('A' for Active; 'I' for Inactive)
REMARK    1  A    between atoms: C_2  and  C_17
REMARK    2  A    between atoms: C_7  and  C_8
REMARK    3  A    between atoms: C_17  and  C_18
REMARK                            x       y       z     vdW  Elec       q    Type
REMARK                         _______ _______ _______ _____ _____    ______ ____
ROOT
ATOM      1  O   UNL     1       2.620   4.572  21.357  0.00  0.00    +0.000 OA
ATOM      2  C   UNL     1       2.588   4.873  20.154  0.00  0.00    +0.000 C 
ATOM      3  N   UNL     1       1.982   6.061  19.726  0.00  0.00    +0.000 N 
ATOM      4  C   UNL     1       1.869   6.545  18.353  0.00  0.00    +0.000 C 
ATOM      5  C   UNL     1       2.539   7.904  18.227  0.00  0.00    +0.000 C 
ATOM      6  C   UNL     1       1.864   8.903  19.160  0.00  0.00    +0.000 C 
ATOM      7  C   UNL     1       1.803   8.377  20.610  0.00  0.00    +0.000 C 
ATOM      8  C   UNL     1       1.282   6.927  20.682  0.00  0.00    +0.000 C 
ENDROOT
BRANCH   7   9
ATOM      9  C   UNL     1       0.948   9.278  21.434  0.00  0.00    +0.000 A 
ATOM     10  N   UNL     1       0.987   9.448  22.749  0.00  0.00    +0.000 NA
ATOM     11  N   UNL     1       0.033  10.393  23.110  0.00  0.00    +0.000 NA
ATOM     12  C   UNL     1      -0.554  10.760  22.001  0.00  0.00    +0.000 A 
ATOM     13  N   UNL     1      -0.025  10.077  20.957  0.00  0.00    +0.000 N 
ATOM     14  C   UNL     1      -0.601  10.438  19.687  0.00  0.00    +0.000 C 
ATOM     15  C   UNL     1      -1.332  11.749  20.037  0.00  0.00    +0.000 C 
ATOM     16  C   UNL     1      -1.589  11.705  21.568  0.00  0.00    +0.000 C 
ENDBRANCH   7   9
BRANCH   2  17
ATOM     17  C   UNL     1       3.217   3.918  19.079  0.00  0.00    +0.000 C 
ATOM     18  C   UNL     1       2.210   3.511  17.965  0.00  0.00    +0.000 C 
ATOM     19  C   UNL     1       2.683   2.146  17.448  0.00  0.00    +0.000 C 
ATOM     20  C   UNL     1       3.521   1.537  18.560  0.00  0.00    +0.000 C 
ATOM     21  C   UNL     1       3.421   2.517  19.717  0.00  0.00    +0.000 C 
BRANCH  17  22
ATOM     22  C   UNL     1       4.412   4.615  18.417  0.00  0.00    +0.000 A 
ATOM     23  C   UNL     1       4.411   4.867  17.032  0.00  0.00    +0.000 A 
ATOM     24  C   UNL     1       5.448   5.583  16.444  0.00  0.00    +0.000 A 
ATOM     25  C   UNL     1       6.468   6.042  17.256  0.00  0.00    +0.000 A 
ATOM     26  N   UNL     1       6.523   5.817  18.583  0.00  0.00    +0.000 NA
ATOM     27  C   UNL     1       5.510   5.105  19.123  0.00  0.00    +0.000 A 
ENDBRANCH  17  22
ENDBRANCH   2  17
TORSDOF 3
ENDMDL
MODEL 4
REMARK VINA RESULT:      -8.6      4.490      7.532
REMARK  Name = 
REMARK  3 active torsions:
REMARK  status: ('A' for Active; 'I' for Inactive)
REMARK    1  A    between atoms: C_2  and  C_17
REMARK    2  A    between atoms: C_7  and  C_8
REMARK    3  A    between atoms: C_17  and  C_18
REMARK                            x       y       z     vdW  Elec       q    Type
REMARK                         _______ _______ _______ _____ _____    ______ ____
ROOT
ATOM      1  O   UNL     1      -0.547   8.901  21.116  0.00  0.00    +0.000 OA
ATOM      2  C   UNL     1       0.075   9.612  20.312  0.00  0.00    +0.000 C 
ATOM      3  N   UNL     1       1.258   9.157  19.716  0.00  0.00    +0.000 N 
ATOM      4  C   UNL     1       2.092   9.875  18.757  0.00  0.00    +0.000 C 
ATOM      5  C   UNL     1       2.203   9.078  17.467  0.00  0.00    +0.000 C 
ATOM      6  C   UNL     1       2.833   7.720  17.750  0.00  0.00    +0.000 C 
ATOM      7  C   UNL     1       2.091   6.970  18.877  0.00  0.00    +0.000 C 
ATOM      8  C   UNL     1       1.841   7.868  20.107  0.00  0.00    +0.000 C 
ENDROOT
BRANCH   7   9
ATOM      9  C   UNL     1       2.866   5.758  19.267  0.00  0.00    +0.000 A 
ATOM     10  N   UNL     1       4.159   5.531  19.079  0.00  0.00    +0.000 NA
ATOM     11  N   UNL     1       4.480   4.286  19.610  0.00  0.00    +0.000 NA
ATOM     12  C   UNL     1       3.369   3.800  20.097  0.00  0.00    +0.000 A 
ATOM     13  N   UNL     1       2.356   4.675  19.884  0.00  0.00    +0.000 N 
ATOM     14  C   UNL     1       1.093   4.228  20.413  0.00  0.00    +0.000 C 
ATOM     15  C   UNL     1       1.533   3.080  21.343  0.00  0.00    +0.000 C 
ATOM     16  C   UNL     1       2.917   2.607  20.821  0.00  0.00    +0.000 C 
ENDBRANCH   7   9
BRANCH   2  17
ATOM     17  C   UNL     1      -0.445  11.048  19.954  0.00  0.00    +0.000 C 
ATOM     18  C   UNL     1       0.681  11.989  19.435  0.00  0.00    +0.000 C 
ATOM     19  C   UNL     1       0.232  13.415  19.783  0.00  0.00    +0.000 C 
ATOM     20  C   UNL     1      -0.759  13.281  20.927  0.00  0.00    +0.000 C 
ATOM     21  C   UNL     1      -0.774  11.802  21.272  0.00  0.00    +0.000 C 
BRANCH  17  22
ATOM     22  C   UNL     1      -1.523  10.943  18.868  0.00  0.00    +0.000 A 
ATOM     23  C   UNL     1      -1.310  10.146  17.728  0.00  0.00    +0.000 A 
ATOM     24  C   UNL     1      -2.321   9.971  16.790  0.00  0.00    +0.000 A 
ATOM     25  C   UNL     1      -3.534  10.596  17.012  0.00  0.00    +0.000 A 
ATOM     26  N   UNL     1      -3.785  11.379  18.079  0.00  0.00    +0.000 NA
ATOM     27  C   UNL     1      -2.779  11.542  18.964  0.00  0.00    +0.000 A 
ENDBRANCH  17  22
ENDBRANCH   2  17
TORSDOF 3
ENDMDL
MODEL 5
REMARK VINA RESULT:      -8.4      2.796      7.969
REMARK  Name = 
REMARK  3 active torsions:
REMARK  status: ('A' for Active; 'I' for Inactive)
REMARK    1  A    between atoms: C_2  and  C_17
REMARK    2  A    between atoms: C_7  and  C_8
REMARK    3  A    between atoms: C_17  and  C_18
REMARK                            x       y       z     vdW  Elec       q    Type
REMARK                         _______ _______ _______ _____ _____    ______ ____
ROOT
ATOM      1  O   UNL     1       2.662   4.576  21.346  0.00  0.00    +0.000 OA
ATOM      2  C   UNL     1       2.634   4.850  20.136  0.00  0.00    +0.000 C 
ATOM      3  N   UNL     1       1.979   5.999  19.675  0.00  0.00    +0.000 N 
ATOM      4  C   UNL     1       1.865   6.449  18.291  0.00  0.00    +0.000 C 
ATOM      5  C   UNL     1       2.472   7.836  18.146  0.00  0.00    +0.000 C 
ATOM      6  C   UNL     1       1.737   8.820  19.048  0.00  0.00    +0.000 C 
ATOM      7  C   UNL     1       1.679   8.321  20.507  0.00  0.00    +0.000 C 
ATOM      8  C   UNL     1       1.225   6.850  20.603  0.00  0.00    +0.000 C 
ENDROOT
BRANCH   7   9
ATOM      9  C   UNL     1       0.770   9.198  21.301  0.00  0.00    +0.000 A 
ATOM     10  N   UNL     1      -0.022   8.842  22.304  0.00  0.00    +0.000 NA
ATOM     11  N   UNL     1      -0.684   9.971  22.776  0.00  0.00    +0.000 NA
ATOM     12  C   UNL     1      -0.273  10.969  22.040  0.00  0.00    +0.000 A 
ATOM     13  N   UNL     1       0.607  10.521  21.112  0.00  0.00    +0.000 N 
ATOM     14  C   UNL     1       1.130  11.565  20.269  0.00  0.00    +0.000 C 
ATOM     15  C   UNL     1       0.729  12.830  21.052  0.00  0.00    +0.000 C 
ATOM     16  C   UNL     1      -0.471  12.421  21.950  0.00  0.00    +0.000 C 
ENDBRANCH   7   9
BRANCH   2  17
ATOM     17  C   UNL     1       3.323   3.905  19.091  0.00  0.00    +0.000 C 
ATOM     18  C   UNL     1       2.375   3.491  17.928  0.00  0.00    +0.000 C 
ATOM     19  C   UNL     1       2.886   2.132  17.431  0.00  0.00    +0.000 C 
ATOM     20  C   UNL     1       3.675   1.528  18.580  0.00  0.00    +0.000 C 
ATOM     21  C   UNL     1       3.510   2.503  19.734  0.00  0.00    +0.000 C 
BRANCH  17  22
ATOM     22  C   UNL     1       4.542   4.615  18.488  0.00  0.00    +0.000 A 
ATOM     23  C   UNL     1       5.594   5.049  19.316  0.00  0.00    +0.000 A 
ATOM     24  C   UNL     1       6.743   5.605  18.766  0.00  0.00    +0.000 A 
ATOM     25  C   UNL     1       6.822   5.713  17.389  0.00  0.00    +0.000 A 
ATOM     26  N   UNL     1       5.838   5.325  16.554  0.00  0.00    +0.000 NA
ATOM     27  C   UNL     1       4.729   4.804  17.120  0.00  0.00    +0.000 A 
ENDBRANCH  17  22
ENDBRANCH   2  17
TORSDOF 3
ENDMDL
MODEL 6
REMARK VINA RESULT:      -8.2      2.304      7.702
REMARK  Name = 
REMARK  3 active torsions:
REMARK  status: ('A' for Active; 'I' for Inactive)
REMARK    1  A    between atoms: C_2  and  C_17
REMARK    2  A    between atoms: C_7  and  C_8
REMARK    3  A    between atoms: C_17  and  C_18
REMARK                            x       y       z     vdW  Elec       q    Type
REMARK                         _______ _______ _______ _____ _____    ______ ____
ROOT
ATOM      1  O   UNL     1       3.809   6.781  17.159  0.00  0.00    +0.000 OA
ATOM      2  C   UNL     1       3.648   5.906  18.024  0.00  0.00    +0.000 C 
ATOM      3  N   UNL     1       3.073   6.217  19.262  0.00  0.00    +0.000 N 
ATOM      4  C   UNL     1       2.821   5.299  20.369  0.00  0.00    +0.000 C 
ATOM      5  C   UNL     1       1.337   5.284  20.703  0.00  0.00    +0.000 C 
ATOM      6  C   UNL     1       0.883   6.682  21.106  0.00  0.00    +0.000 C 
ATOM      7  C   UNL     1       1.266   7.734  20.045  0.00  0.00    +0.000 C 
ATOM      8  C   UNL     1       2.738   7.605  19.601  0.00  0.00    +0.000 C 
ENDROOT
BRANCH   7   9
ATOM      9  C   UNL     1       1.002   9.102  20.577  0.00  0.00    +0.000 A 
ATOM     10  N   UNL     1       1.374   9.598  21.750  0.00  0.00    +0.000 NA
ATOM     11  N   UNL     1       0.940  10.916  21.840  0.00  0.00    +0.000 NA
ATOM     12  C   UNL     1       0.316  11.171  20.720  0.00  0.00    +0.000 A 
ATOM     13  N   UNL     1       0.321  10.068  19.932  0.00  0.00    +0.000 N 
ATOM     14  C   UNL     1      -0.329  10.269  18.663  0.00  0.00    +0.000 C 
ATOM     15  C   UNL     1      -0.427  11.806  18.601  0.00  0.00    +0.000 C 
ATOM     16  C   UNL     1      -0.358  12.302  20.071  0.00  0.00    +0.000 C 
ENDBRANCH   7   9
BRANCH   2  17
ATOM     17  C   UNL     1       4.102   4.429  17.753  0.00  0.00    +0.000 C 
ATOM     18  C   UNL     1       2.938   3.514  17.274  0.00  0.00    +0.000 C 
ATOM     19  C   UNL     1       3.314   2.091  17.708  0.00  0.00    +0.000 C 
ATOM     20  C   UNL     1       4.299   2.242  18.854  0.00  0.00    +0.000 C 
ATOM     21  C   UNL     1       4.382   3.736  19.116  0.00  0.00    +0.000 C 
BRANCH  17  22
ATOM     22  C   UNL     1       5.195   4.421  16.677  0.00  0.00    +0.000 A 
ATOM     23  C   UNL     1       4.855   4.272  15.319  0.00  0.00    +0.000 A 
ATOM     24  C   UNL     1       5.831   4.361  14.333  0.00  0.00    +0.000 A 
ATOM     25  C   UNL     1       7.135   4.604  14.724  0.00  0.00    +0.000 A 
ATOM     26  N   UNL     1       7.514   4.741  16.010  0.00  0.00    +0.000 NA
ATOM     27  C   UNL     1       6.546   4.634  16.945  0.00  0.00    +0.000 A 
ENDBRANCH  17  22
ENDBRANCH   2  17
TORSDOF 3
ENDMDL
MODEL 7
REMARK VINA RESULT:      -8.2      8.292     10.264
REMARK  Name = 
REMARK  3 active torsions:
REMARK  status: ('A' for Active; 'I' for Inactive)
REMARK    1  A    between atoms: C_2  and  C_17
REMARK    2  A    between atoms: C_7  and  C_8
REMARK    3  A    between atoms: C_17  and  C_18
REMARK                            x       y       z     vdW  Elec       q    Type
REMARK                         _______ _______ _______ _____ _____    ______ ____
ROOT
ATOM      1  O   UNL     1       2.201  11.511  18.557  0.00  0.00    +0.000 OA
ATOM      2  C   UNL     1       1.200  12.121  18.965  0.00  0.00    +0.000 C 
ATOM      3  N   UNL     1       1.289  13.460  19.364  0.00  0.00    +0.000 N 
ATOM      4  C   UNL     1       0.206  14.303  19.862  0.00  0.00    +0.000 C 
ATOM      5  C   UNL     1       0.046  15.523  18.968  0.00  0.00    +0.000 C 
ATOM      6  C   UNL     1       1.337  16.332  18.960  0.00  0.00    +0.000 C 
ATOM      7  C   UNL     1       2.556  15.457  18.598  0.00  0.00    +0.000 C 
ATOM      8  C   UNL     1       2.589  14.142  19.404  0.00  0.00    +0.000 C 
ENDROOT
BRANCH   7   9
ATOM      9  C   UNL     1       3.811  16.231  18.816  0.00  0.00    +0.000 A 
ATOM     10  N   UNL     1       3.941  17.406  19.419  0.00  0.00    +0.000 NA
ATOM     11  N   UNL     1       5.285  17.764  19.424  0.00  0.00    +0.000 NA
ATOM     12  C   UNL     1       5.922  16.795  18.821  0.00  0.00    +0.000 A 
ATOM     13  N   UNL     1       5.039  15.848  18.419  0.00  0.00    +0.000 N 
ATOM     14  C   UNL     1       5.662  14.728  17.763  0.00  0.00    +0.000 C 
ATOM     15  C   UNL     1       7.143  14.926  18.142  0.00  0.00    +0.000 C 
ATOM     16  C   UNL     1       7.304  16.433  18.482  0.00  0.00    +0.000 C 
ENDBRANCH   7   9
BRANCH   2  17
ATOM     17  C   UNL     1      -0.189  11.399  19.056  0.00  0.00    +0.000 C 
ATOM     18  C   UNL     1      -0.308  10.186  18.088  0.00  0.00    +0.000 C 
ATOM     19  C   UNL     1      -1.804  10.039  17.778  0.00  0.00    +0.000 C 
ATOM     20  C   UNL     1      -2.429  11.396  18.049  0.00  0.00    +0.000 C 
ATOM     21  C   UNL     1      -1.267  12.308  18.405  0.00  0.00    +0.000 C 
BRANCH  17  22
ATOM     22  C   UNL     1      -0.408  10.894  20.488  0.00  0.00    +0.000 A 
ATOM     23  C   UNL     1       0.204   9.705  20.925  0.00  0.00    +0.000 A 
ATOM     24  C   UNL     1       0.088   9.295  22.249  0.00  0.00    +0.000 A 
ATOM     25  C   UNL     1      -0.638  10.090  23.117  0.00  0.00    +0.000 A 
ATOM     26  N   UNL     1      -1.254  11.229  22.746  0.00  0.00    +0.000 NA
ATOM     27  C   UNL     1      -1.136  11.592  21.451  0.00  0.00    +0.000 A 
ENDBRANCH  17  22
ENDBRANCH   2  17
TORSDOF 3
ENDMDL
MODEL 8
REMARK VINA RESULT:      -8.2      3.337      8.212
REMARK  Name = 
REMARK  3 active torsions:
REMARK  status: ('A' for Active; 'I' for Inactive)
REMARK    1  A    between atoms: C_2  and  C_17
REMARK    2  A    between atoms: C_7  and  C_8
REMARK    3  A    between atoms: C_17  and  C_18
REMARK                            x       y       z     vdW  Elec       q    Type
REMARK                         _______ _______ _______ _____ _____    ______ ____
ROOT
ATOM      1  O   UNL     1       2.748   5.032  21.268  0.00  0.00    +0.000 OA
ATOM      2  C   UNL     1       2.650   5.351  20.073  0.00  0.00    +0.000 C 
ATOM      3  N   UNL     1       1.907   6.474  19.688  0.00  0.00    +0.000 N 
ATOM      4  C   UNL     1       1.705   6.972  18.331  0.00  0.00    +0.000 C 
ATOM      5  C   UNL     1       2.221   8.397  18.218  0.00  0.00    +0.000 C 
ATOM      6  C   UNL     1       1.469   9.298  19.191  0.00  0.00    +0.000 C 
ATOM      7  C   UNL     1       1.506   8.740  20.629  0.00  0.00    +0.000 C 
ATOM      8  C   UNL     1       1.146   7.241  20.682  0.00  0.00    +0.000 C 
ENDROOT
BRANCH   7   9
ATOM      9  C   UNL     1       0.583   9.527  21.496  0.00  0.00    +0.000 A 
ATOM     10  N   UNL     1      -0.169   9.077  22.492  0.00  0.00    +0.000 NA
ATOM     11  N   UNL     1      -0.864  10.145  23.050  0.00  0.00    +0.000 NA
ATOM     12  C   UNL     1      -0.512  11.204  22.369  0.00  0.00    +0.000 A 
ATOM     13  N   UNL     1       0.363  10.851  21.395  0.00  0.00    +0.000 N 
ATOM     14  C   UNL     1       0.823  11.966  20.609  0.00  0.00    +0.000 C 
ATOM     15  C   UNL     1       0.391  13.163  21.479  0.00  0.00    +0.000 C 
ATOM     16  C   UNL     1      -0.769  12.649  22.375  0.00  0.00    +0.000 C 
ENDBRANCH   7   9
BRANCH   2  17
ATOM     17  C   UNL     1       3.347   4.492  18.960  0.00  0.00    +0.000 C 
ATOM     18  C   UNL     1       2.526   4.426  17.640  0.00  0.00    +0.000 C 
ATOM     19  C   UNL     1       2.915   3.102  16.968  0.00  0.00    +0.000 C 
ATOM     20  C   UNL     1       3.446   2.204  18.072  0.00  0.00    +0.000 C 
ATOM     21  C   UNL     1       3.252   2.993  19.356  0.00  0.00    +0.000 C 
BRANCH  17  22
ATOM     22  C   UNL     1       4.723   5.091  18.642  0.00  0.00    +0.000 A 
ATOM     23  C   UNL     1       4.875   5.999  17.578  0.00  0.00    +0.000 A 
ATOM     24  C   UNL     1       6.098   6.618  17.346  0.00  0.00    +0.000 A 
ATOM     25  C   UNL     1       7.151   6.320  18.191  0.00  0.00    +0.000 A 
ATOM     26  N   UNL     1       7.062   5.449  19.215  0.00  0.00    +0.000 NA
ATOM     27  C   UNL     1       5.865   4.852  19.405  0.00  0.00    +0.000 A 
ENDBRANCH  17  22
ENDBRANCH   2  17
TORSDOF 3
ENDMDL
MODEL 9
REMARK VINA RESULT:      -8.2      4.071      7.279
REMARK  Name = 
REMARK  3 active torsions:
REMARK  status: ('A' for Active; 'I' for Inactive)
REMARK    1  A    between atoms: C_2  and  C_17
REMARK    2  A    between atoms: C_7  and  C_8
REMARK    3  A    between atoms: C_17  and  C_18
REMARK                            x       y       z     vdW  Elec       q    Type
REMARK                         _______ _______ _______ _____ _____    ______ ____
ROOT
ATOM      1  O   UNL     1       2.237  11.021  17.571  0.00  0.00    +0.000 OA
ATOM      2  C   UNL     1       1.479  10.894  18.545  0.00  0.00    +0.000 C 
ATOM      3  N   UNL     1       1.180   9.628  19.063  0.00  0.00    +0.000 N 
ATOM      4  C   UNL     1       0.313   9.325  20.197  0.00  0.00    +0.000 C 
ATOM      5  C   UNL     1       1.098   8.580  21.265  0.00  0.00    +0.000 C 
ATOM      6  C   UNL     1       1.639   7.274  20.694  0.00  0.00    +0.000 C 
ATOM      7  C   UNL     1       2.435   7.508  19.393  0.00  0.00    +0.000 C 
ATOM      8  C   UNL     1       1.678   8.416  18.401  0.00  0.00    +0.000 C 
ENDROOT
BRANCH   7   9
ATOM      9  C   UNL     1       2.753   6.197  18.758  0.00  0.00    +0.000 A 
ATOM     10  N   UNL     1       2.138   5.037  18.948  0.00  0.00    +0.000 NA
ATOM     11  N   UNL     1       2.740   4.072  18.147  0.00  0.00    +0.000 NA
ATOM     12  C   UNL     1       3.701   4.680  17.503  0.00  0.00    +0.000 A 
ATOM     13  N   UNL     1       3.745   5.983  17.873  0.00  0.00    +0.000 N 
ATOM     14  C   UNL     1       4.766   6.736  17.192  0.00  0.00    +0.000 C 
ATOM     15  C   UNL     1       5.133   5.788  16.033  0.00  0.00    +0.000 C 
ATOM     16  C   UNL     1       4.715   4.364  16.490  0.00  0.00    +0.000 C 
ENDBRANCH   7   9
BRANCH   2  17
ATOM     17  C   UNL     1       0.825  12.155  19.212  0.00  0.00    +0.000 C 
ATOM     18  C   UNL     1       1.341  13.495  18.613  0.00  0.00    +0.000 C 
ATOM     19  C   UNL     1       1.193  14.539  19.729  0.00  0.00    +0.000 C 
ATOM     20  C   UNL     1       1.165  13.765  21.035  0.00  0.00    +0.000 C 
ATOM     21  C   UNL     1       1.401  12.315  20.645  0.00  0.00    +0.000 C 
BRANCH  17  22
ATOM     22  C   UNL     1      -0.697  12.098  19.023  0.00  0.00    +0.000 A 
ATOM     23  C   UNL     1      -1.247  11.705  17.789  0.00  0.00    +0.000 A 
ATOM     24  C   UNL     1      -2.622  11.559  17.643  0.00  0.00    +0.000 A 
ATOM     25  C   UNL     1      -3.425  11.805  18.741  0.00  0.00    +0.000 A 
ATOM     26  N   UNL     1      -2.950  12.197  19.940  0.00  0.00    +0.000 NA
ATOM     27  C   UNL     1      -1.612  12.345  20.046  0.00  0.00    +0.000 A 
ENDBRANCH  17  22
ENDBRANCH   2  17
TORSDOF 3
ENDMDL
