MODEL 1
REMARK VINA RESULT:      -8.5      0.000      0.000
REMARK  Name = 
REMARK  4 active torsions:
REMARK  status: ('A' for Active; 'I' for Inactive)
REMARK    1  A    between atoms: C_8  and  S_9
REMARK    2  A    between atoms: S_9  and  N_12
REMARK    3  A    between atoms: N_16  and  C_17
REMARK    4  A    between atoms: C_17  and  C_18
REMARK                            x       y       z     vdW  Elec       q    Type
REMARK                         _______ _______ _______ _____ _____    ______ ____
ROOT
ATOM      1  S   UNL     1       1.955   4.941  20.532  0.00  0.00    +0.000 S 
ATOM      2  O   UNL     1       0.650   5.067  19.914  0.00  0.00    +0.000 OA
ATOM      3  O   UNL     1       2.157   4.115  21.709  0.00  0.00    +0.000 OA
ENDROOT
BRANCH   1  11
ATOM      4  O   UNL     1       6.241   3.895  14.053  0.00  0.00    +0.000 OA
ATOM      5  C   UNL     1       6.282   4.147  15.265  0.00  0.00    +0.000 C 
ATOM      6  C   UNL     1       7.198   5.240  15.758  0.00  0.00    +0.000 C 
ATOM      7  C   UNL     1       6.777   6.065  16.955  0.00  0.00    +0.000 C 
ATOM      8  C   UNL     1       6.634   5.209  18.197  0.00  0.00    +0.000 C 
ATOM      9  C   UNL     1       5.279   4.565  18.219  0.00  0.00    +0.000 A 
ATOM     10  C   UNL     1       4.386   4.910  19.251  0.00  0.00    +0.000 A 
ATOM     11  C   UNL     1       3.105   4.352  19.305  0.00  0.00    +0.000 A 
ATOM     12  C   UNL     1       2.730   3.364  18.400  0.00  0.00    +0.000 A 
ATOM     13  C   UNL     1       3.624   2.996  17.395  0.00  0.00    +0.000 A 
ATOM     14  C   UNL     1       4.870   3.637  17.257  0.00  0.00    +0.000 A 
ATOM     15  N   UNL     1       5.573   3.320  16.080  0.00  0.00    +0.000 N 
ATOM     16  H   UNL     1       5.148   2.596  15.513  0.00  0.00    +0.000 HD
ENDBRANCH   1  11
BRANCH   1  17
ATOM     17  N   UNL     1       2.545   6.488  20.904  0.00  0.00    +0.000 N 
ATOM     18  C   UNL     1       1.737   7.568  20.590  0.00  0.00    +0.000 A 
ATOM     19  C   UNL     1       0.729   8.128  21.392  0.00  0.00    +0.000 A 
ATOM     20  C   UNL     1       0.238   9.177  20.648  0.00  0.00    +0.000 A 
ATOM     21  N   UNL     1       0.940   9.165  19.473  0.00  0.00    +0.000 N 
ATOM     22  N   UNL     1       1.921   8.233  19.453  0.00  0.00    +0.000 NA
ATOM     23  H   UNL     1       3.461   6.586  20.473  0.00  0.00    +0.000 HD
BRANCH  21  24
ATOM     24  C   UNL     1       0.632   9.928  18.268  0.00  0.00    +0.000 C 
BRANCH  24  25
ATOM     25  C   UNL     1      -0.794  10.413  18.242  0.00  0.00    +0.000 A 
ATOM     26  C   UNL     1      -1.172  11.563  18.950  0.00  0.00    +0.000 A 
ATOM     27  C   UNL     1      -2.491  12.017  18.915  0.00  0.00    +0.000 A 
ATOM     28  C   UNL     1      -3.444  11.333  18.163  0.00  0.00    +0.000 A 
ATOM     29  C   UNL     1      -3.077  10.199  17.442  0.00  0.00    +0.000 A 
ATOM     30  C   UNL     1      -1.759   9.741  17.478  0.00  0.00    +0.000 A 
ENDBRANCH  24  25
ENDBRANCH  21  24
ENDBRANCH   1  17
TORSDOF 4
ENDMDL
MODEL 2
REMARK VINA RESULT:      -8.5      2.339      8.084
REMARK  Name = 
REMARK  4 active torsions:
REMARK  status: ('A' for Active; 'I' for Inactive)
REMARK    1  A    between atoms: C_8  and  S_9
REMARK    2  A    between atoms: S_9  and  N_12
REMARK    3  A    between atoms: N_16  and  C_17
REMARK    4  A    between atoms: C_17  and  C_18
REMARK                            x       y       z     vdW  Elec       q    Type
REMARK                         _______ _______ _______ _____ _____    ______ ____
ROOT
ATOM      1  S   UNL     1       1.998   4.970  19.915  0.00  0.00    +0.000 S 
ATOM      2  O   UNL     1       3.316   4.651  20.424  0.00  0.00    +0.000 OA
ATOM      3  O   UNL     1       0.796   4.520  20.593  0.00  0.00    +0.000 OA
ENDROOT
BRANCH   1  11
ATOM      4  O   UNL     1      -0.543  12.311  18.871  0.00  0.00    +0.000 OA
ATOM      5  C   UNL     1      -0.050  11.516  19.682  0.00  0.00    +0.000 C 
ATOM      6  C   UNL     1      -0.589  11.473  21.091  0.00  0.00    +0.000 C 
ATOM      7  C   UNL     1      -0.608  10.152  21.830  0.00  0.00    +0.000 C 
ATOM      8  C   UNL     1       0.793   9.608  22.026  0.00  0.00    +0.000 C 
ATOM      9  C   UNL     1       1.228   8.865  20.798  0.00  0.00    +0.000 A 
ATOM     10  C   UNL     1       1.472   7.482  20.898  0.00  0.00    +0.000 A 
ATOM     11  C   UNL     1       1.861   6.742  19.777  0.00  0.00    +0.000 A 
ATOM     12  C   UNL     1       2.119   7.379  18.568  0.00  0.00    +0.000 A 
ATOM     13  C   UNL     1       1.909   8.755  18.474  0.00  0.00    +0.000 A 
ATOM     14  C   UNL     1       1.402   9.492  19.561  0.00  0.00    +0.000 A 
ATOM     15  N   UNL     1       1.038  10.817  19.261  0.00  0.00    +0.000 N 
ATOM     16  H   UNL     1       1.271  11.121  18.322  0.00  0.00    +0.000 HD
ENDBRANCH   1  11
BRANCH   1  17
ATOM     17  N   UNL     1       1.884   4.448  18.304  0.00  0.00    +0.000 N 
ATOM     18  C   UNL     1       3.009   3.865  17.745  0.00  0.00    +0.000 A 
ATOM     19  C   UNL     1       3.375   2.511  17.804  0.00  0.00    +0.000 A 
ATOM     20  C   UNL     1       4.549   2.438  17.089  0.00  0.00    +0.000 A 
ATOM     21  N   UNL     1       4.819   3.716  16.681  0.00  0.00    +0.000 N 
ATOM     22  N   UNL     1       3.841   4.593  17.006  0.00  0.00    +0.000 NA
ATOM     23  H   UNL     1       1.567   5.234  17.742  0.00  0.00    +0.000 HD
BRANCH  21  24
ATOM     24  C   UNL     1       6.067   4.195  16.095  0.00  0.00    +0.000 C 
BRANCH  24  25
ATOM     25  C   UNL     1       6.778   5.184  16.981  0.00  0.00    +0.000 A 
ATOM     26  C   UNL     1       6.867   6.536  16.619  0.00  0.00    +0.000 A 
ATOM     27  C   UNL     1       7.517   7.451  17.447  0.00  0.00    +0.000 A 
ATOM     28  C   UNL     1       8.075   7.029  18.651  0.00  0.00    +0.000 A 
ATOM     29  C   UNL     1       7.979   5.692  19.031  0.00  0.00    +0.000 A 
ATOM     30  C   UNL     1       7.333   4.773  18.202  0.00  0.00    +0.000 A 
ENDBRANCH  24  25
ENDBRANCH  21  24
ENDBRANCH   1  17
TORSDOF 4
ENDMDL
MODEL 3
REMARK VINA RESULT:      -8.4      2.518      8.851
REMARK  Name = 
REMARK  4 active torsions:
REMARK  status: ('A' for Active; 'I' for Inactive)
REMARK    1  A    between atoms: C_8  and  S_9
REMARK    2  A    between atoms: S_9  and  N_12
REMARK    3  A    between atoms: N_16  and  C_17
REMARK    4  A    between atoms: C_17  and  C_18
REMARK                            x       y       z     vdW  Elec       q    Type
REMARK                         _______ _______ _______ _____ _____    ______ ____
ROOT
ATOM      1  S   UNL     1       2.453   5.708  19.732  0.00  0.00    +0.000 S 
ATOM      2  O   UNL     1       2.232   4.980  20.965  0.00  0.00    +0.000 OA
ATOM      3  O   UNL     1       1.871   5.265  18.477  0.00  0.00    +0.000 OA
ENDROOT
BRANCH   1  11
ATOM      4  O   UNL     1      -1.765  12.258  20.594  0.00  0.00    +0.000 OA
ATOM      5  C   UNL     1      -0.949  11.501  21.135  0.00  0.00    +0.000 C 
ATOM      6  C   UNL     1      -1.147  11.120  22.582  0.00  0.00    +0.000 C 
ATOM      7  C   UNL     1      -0.721   9.743  23.043  0.00  0.00    +0.000 C 
ATOM      8  C   UNL     1       0.772   9.540  22.879  0.00  0.00    +0.000 C 
ATOM      9  C   UNL     1       1.078   9.117  21.473  0.00  0.00    +0.000 A 
ATOM     10  C   UNL     1       1.628   7.839  21.260  0.00  0.00    +0.000 A 
ATOM     11  C   UNL     1       1.913   7.390  19.966  0.00  0.00    +0.000 A 
ATOM     12  C   UNL     1       1.759   8.242  18.876  0.00  0.00    +0.000 A 
ATOM     13  C   UNL     1       1.245   9.521  19.089  0.00  0.00    +0.000 A 
ATOM     14  C   UNL     1       0.840   9.941  20.370  0.00  0.00    +0.000 A 
ATOM     15  N   UNL     1       0.145  11.164  20.401  0.00  0.00    +0.000 N 
ATOM     16  H   UNL     1       0.098  11.650  19.513  0.00  0.00    +0.000 HD
ENDBRANCH   1  11
BRANCH   1  17
ATOM     17  N   UNL     1       4.122   5.871  19.474  0.00  0.00    +0.000 N 
ATOM     18  C   UNL     1       4.584   5.699  18.181  0.00  0.00    +0.000 A 
ATOM     19  C   UNL     1       4.676   6.680  17.180  0.00  0.00    +0.000 A 
ATOM     20  C   UNL     1       5.205   6.020  16.095  0.00  0.00    +0.000 A 
ATOM     21  N   UNL     1       5.369   4.719  16.490  0.00  0.00    +0.000 N 
ATOM     22  N   UNL     1       5.069   4.522  17.794  0.00  0.00    +0.000 NA
ATOM     23  H   UNL     1       4.601   5.243  20.115  0.00  0.00    +0.000 HD
BRANCH  21  24
ATOM     24  C   UNL     1       5.678   3.582  15.629  0.00  0.00    +0.000 C 
BRANCH  24  25
ATOM     25  C   UNL     1       6.325   3.997  14.335  0.00  0.00    +0.000 A 
ATOM     26  C   UNL     1       5.921   3.430  13.117  0.00  0.00    +0.000 A 
ATOM     27  C   UNL     1       6.515   3.825  11.918  0.00  0.00    +0.000 A 
ATOM     28  C   UNL     1       7.511   4.799  11.921  0.00  0.00    +0.000 A 
ATOM     29  C   UNL     1       7.910   5.382  13.121  0.00  0.00    +0.000 A 
ATOM     30  C   UNL     1       7.320   4.986  14.323  0.00  0.00    +0.000 A 
ENDBRANCH  24  25
ENDBRANCH  21  24
ENDBRANCH   1  17
TORSDOF 4
ENDMDL
MODEL 4
REMARK VINA RESULT:      -8.4      2.305      8.166
REMARK  Name = 
REMARK  4 active torsions:
REMARK  status: ('A' for Active; 'I' for Inactive)
REMARK    1  A    between atoms: C_8  and  S_9
REMARK    2  A    between atoms: S_9  and  N_12
REMARK    3  A    between atoms: N_16  and  C_17
REMARK    4  A    between atoms: C_17  and  C_18
REMARK                            x       y       z     vdW  Elec       q    Type
REMARK                         _______ _______ _______ _____ _____    ______ ____
ROOT
ATOM      1  S   UNL     1       2.013   5.569  19.794  0.00  0.00    +0.000 S 
ATOM      2  O   UNL     1       3.328   5.342  20.359  0.00  0.00    +0.000 OA
ATOM      3  O   UNL     1       0.809   5.139  20.482  0.00  0.00    +0.000 OA
ENDROOT
BRANCH   1  11
ATOM      4  O   UNL     1      -0.742  12.699  18.057  0.00  0.00    +0.000 OA
ATOM      5  C   UNL     1      -0.240  11.996  18.943  0.00  0.00    +0.000 C 
ATOM      6  C   UNL     1      -0.804  12.060  20.341  0.00  0.00    +0.000 C 
ATOM      7  C   UNL     1      -0.794  10.810  21.195  0.00  0.00    +0.000 C 
ATOM      8  C   UNL     1       0.619  10.333  21.462  0.00  0.00    +0.000 C 
ATOM      9  C   UNL     1       1.102   9.500  20.312  0.00  0.00    +0.000 A 
ATOM     10  C   UNL     1       1.387   8.140  20.540  0.00  0.00    +0.000 A 
ATOM     11  C   UNL     1       1.822   7.316  19.497  0.00  0.00    +0.000 A 
ATOM     12  C   UNL     1       2.082   7.852  18.239  0.00  0.00    +0.000 A 
ATOM     13  C   UNL     1       1.831   9.206  18.019  0.00  0.00    +0.000 A 
ATOM     14  C   UNL     1       1.279  10.019  19.027  0.00  0.00    +0.000 A 
ATOM     15  N   UNL     1       0.879  11.299  18.604  0.00  0.00    +0.000 N 
ATOM     16  H   UNL     1       1.120  11.526  17.646  0.00  0.00    +0.000 HD
ENDBRANCH   1  11
BRANCH   1  17
ATOM     17  N   UNL     1       1.958   4.904  18.234  0.00  0.00    +0.000 N 
ATOM     18  C   UNL     1       3.082   4.228  17.792  0.00  0.00    +0.000 A 
ATOM     19  C   UNL     1       3.385   2.871  17.995  0.00  0.00    +0.000 A 
ATOM     20  C   UNL     1       4.589   2.686  17.354  0.00  0.00    +0.000 A 
ATOM     21  N   UNL     1       4.936   3.909  16.846  0.00  0.00    +0.000 N 
ATOM     22  N   UNL     1       3.983   4.850  17.036  0.00  0.00    +0.000 NA
ATOM     23  H   UNL     1       1.705   5.645  17.586  0.00  0.00    +0.000 HD
BRANCH  21  24
ATOM     24  C   UNL     1       6.232   4.281  16.288  0.00  0.00    +0.000 C 
BRANCH  24  25
ATOM     25  C   UNL     1       6.918   5.356  17.089  0.00  0.00    +0.000 A 
ATOM     26  C   UNL     1       7.485   5.065  18.339  0.00  0.00    +0.000 A 
ATOM     27  C   UNL     1       8.130   6.060  19.074  0.00  0.00    +0.000 A 
ATOM     28  C   UNL     1       8.226   7.352  18.565  0.00  0.00    +0.000 A 
ATOM     29  C   UNL     1       7.682   7.650  17.317  0.00  0.00    +0.000 A 
ATOM     30  C   UNL     1       7.033   6.658  16.581  0.00  0.00    +0.000 A 
ENDBRANCH  24  25
ENDBRANCH  21  24
ENDBRANCH   1  17
TORSDOF 4
ENDMDL
MODEL 5
REMARK VINA RESULT:      -8.4      2.405      8.632
REMARK  Name = 
REMARK  4 active torsions:
REMARK  status: ('A' for Active; 'I' for Inactive)
REMARK    1  A    between atoms: C_8  and  S_9
REMARK    2  A    between atoms: S_9  and  N_12
REMARK    3  A    between atoms: N_16  and  C_17
REMARK    4  A    between atoms: C_17  and  C_18
REMARK                            x       y       z     vdW  Elec       q    Type
REMARK                         _______ _______ _______ _____ _____    ______ ____
ROOT
ATOM      1  S   UNL     1       2.400   5.782  19.526  0.00  0.00    +0.000 S 
ATOM      2  O   UNL     1       3.736   5.664  20.073  0.00  0.00    +0.000 OA
ATOM      3  O   UNL     1       1.249   5.229  20.218  0.00  0.00    +0.000 OA
ENDROOT
BRANCH   1  11
ATOM      4  O   UNL     1      -1.018  12.667  17.990  0.00  0.00    +0.000 OA
ATOM      5  C   UNL     1      -0.437  11.995  18.852  0.00  0.00    +0.000 C 
ATOM      6  C   UNL     1      -0.977  11.981  20.261  0.00  0.00    +0.000 C 
ATOM      7  C   UNL     1      -0.838  10.721  21.088  0.00  0.00    +0.000 C 
ATOM      8  C   UNL     1       0.617  10.367  21.320  0.00  0.00    +0.000 C 
ATOM      9  C   UNL     1       1.150   9.603  20.144  0.00  0.00    +0.000 A 
ATOM     10  C   UNL     1       1.561   8.271  20.337  0.00  0.00    +0.000 A 
ATOM     11  C   UNL     1       2.046   7.510  19.269  0.00  0.00    +0.000 A 
ATOM     12  C   UNL     1       2.233   8.091  18.019  0.00  0.00    +0.000 A 
ATOM     13  C   UNL     1       1.857   9.421  17.832  0.00  0.00    +0.000 A 
ATOM     14  C   UNL     1       1.254  10.161  18.867  0.00  0.00    +0.000 A 
ATOM     15  N   UNL     1       0.732  11.408  18.478  0.00  0.00    +0.000 N 
ATOM     16  H   UNL     1       0.933  11.674  17.521  0.00  0.00    +0.000 HD
ENDBRANCH   1  11
BRANCH   1  17
ATOM     17  N   UNL     1       2.385   5.147  17.953  0.00  0.00    +0.000 N 
ATOM     18  C   UNL     1       3.544   4.536  17.504  0.00  0.00    +0.000 A 
ATOM     19  C   UNL     1       3.912   3.193  17.681  0.00  0.00    +0.000 A 
ATOM     20  C   UNL     1       5.127   3.080  17.044  0.00  0.00    +0.000 A 
ATOM     21  N   UNL     1       5.416   4.328  16.563  0.00  0.00    +0.000 N 
ATOM     22  N   UNL     1       4.416   5.217  16.766  0.00  0.00    +0.000 NA
ATOM     23  H   UNL     1       2.099   5.888  17.319  0.00  0.00    +0.000 HD
BRANCH  21  24
ATOM     24  C   UNL     1       6.694   4.776  16.020  0.00  0.00    +0.000 C 
BRANCH  24  25
ATOM     25  C   UNL     1       6.783   4.593  14.528  0.00  0.00    +0.000 A 
ATOM     26  C   UNL     1       7.688   5.347  13.766  0.00  0.00    +0.000 A 
ATOM     27  C   UNL     1       7.776   5.167  12.386  0.00  0.00    +0.000 A 
ATOM     28  C   UNL     1       6.969   4.225  11.753  0.00  0.00    +0.000 A 
ATOM     29  C   UNL     1       6.077   3.458  12.499  0.00  0.00    +0.000 A 
ATOM     30  C   UNL     1       5.985   3.639  13.880  0.00  0.00    +0.000 A 
ENDBRANCH  24  25
ENDBRANCH  21  24
ENDBRANCH   1  17
TORSDOF 4
ENDMDL
MODEL 6
REMARK VINA RESULT:      -8.3      2.891      4.527
REMARK  Name = 
REMARK  4 active torsions:
REMARK  status: ('A' for Active; 'I' for Inactive)
REMARK    1  A    between atoms: C_8  and  S_9
REMARK    2  A    between atoms: S_9  and  N_12
REMARK    3  A    between atoms: N_16  and  C_17
REMARK    4  A    between atoms: C_17  and  C_18
REMARK                            x       y       z     vdW  Elec       q    Type
REMARK                         _______ _______ _______ _____ _____    ______ ____
ROOT
ATOM      1  S   UNL     1       0.698   9.075  21.290  0.00  0.00    +0.000 S 
ATOM      2  O   UNL     1      -0.670   8.761  21.650  0.00  0.00    +0.000 OA
ATOM      3  O   UNL     1       1.667   9.488  22.289  0.00  0.00    +0.000 OA
ENDROOT
BRANCH   1  11
ATOM      4  O   UNL     1       5.186   3.019  19.141  0.00  0.00    +0.000 OA
ATOM      5  C   UNL     1       4.057   3.359  19.520  0.00  0.00    +0.000 C 
ATOM      6  C   UNL     1       3.354   2.534  20.569  0.00  0.00    +0.000 C 
ATOM      7  C   UNL     1       2.440   3.227  21.557  0.00  0.00    +0.000 C 
ATOM      8  C   UNL     1       1.269   3.888  20.859  0.00  0.00    +0.000 C 
ATOM      9  C   UNL     1       1.675   5.240  20.351  0.00  0.00    +0.000 A 
ATOM     10  C   UNL     1       1.046   6.378  20.890  0.00  0.00    +0.000 A 
ATOM     11  C   UNL     1       1.403   7.662  20.465  0.00  0.00    +0.000 A 
ATOM     12  C   UNL     1       2.310   7.830  19.423  0.00  0.00    +0.000 A 
ATOM     13  C   UNL     1       2.911   6.702  18.864  0.00  0.00    +0.000 A 
ATOM     14  C   UNL     1       2.652   5.413  19.366  0.00  0.00    +0.000 A 
ATOM     15  N   UNL     1       3.484   4.400  18.858  0.00  0.00    +0.000 N 
ATOM     16  H   UNL     1       4.111   4.695  18.119  0.00  0.00    +0.000 HD
ENDBRANCH   1  11
BRANCH   1  17
ATOM     17  N   UNL     1       0.694  10.266  20.080  0.00  0.00    +0.000 N 
ATOM     18  C   UNL     1      -0.537  10.685  19.607  0.00  0.00    +0.000 A 
ATOM     19  C   UNL     1      -1.344  11.704  20.141  0.00  0.00    +0.000 A 
ATOM     20  C   UNL     1      -2.442  11.745  19.312  0.00  0.00    +0.000 A 
ATOM     21  N   UNL     1      -2.246  10.764  18.379  0.00  0.00    +0.000 N 
ATOM     22  N   UNL     1      -1.042  10.156  18.496  0.00  0.00    +0.000 NA
ATOM     23  H   UNL     1       1.282   9.939  19.318  0.00  0.00    +0.000 HD
BRANCH  21  24
ATOM     24  C   UNL     1      -3.231  10.259  17.428  0.00  0.00    +0.000 C 
BRANCH  24  25
ATOM     25  C   UNL     1      -4.592  10.870  17.629  0.00  0.00    +0.000 A 
ATOM     26  C   UNL     1      -5.498  10.319  18.548  0.00  0.00    +0.000 A 
ATOM     27  C   UNL     1      -6.754  10.895  18.740  0.00  0.00    +0.000 A 
ATOM     28  C   UNL     1      -7.115  12.034  18.024  0.00  0.00    +0.000 A 
ATOM     29  C   UNL     1      -6.220  12.601  17.120  0.00  0.00    +0.000 A 
ATOM     30  C   UNL     1      -4.964  12.025  16.924  0.00  0.00    +0.000 A 
ENDBRANCH  24  25
ENDBRANCH  21  24
ENDBRANCH   1  17
TORSDOF 4
ENDMDL
MODEL 7
REMARK VINA RESULT:      -8.3      5.124      8.119
REMARK  Name = 
REMARK  4 active torsions:
REMARK  status: ('A' for Active; 'I' for Inactive)
REMARK    1  A    between atoms: C_8  and  S_9
REMARK    2  A    between atoms: S_9  and  N_12
REMARK    3  A    between atoms: N_16  and  C_17
REMARK    4  A    between atoms: C_17  and  C_18
REMARK                            x       y       z     vdW  Elec       q    Type
REMARK                         _______ _______ _______ _____ _____    ______ ____
ROOT
ATOM      1  S   UNL     1       5.795   5.563  15.718  0.00  0.00    +0.000 S 
ATOM      2  O   UNL     1       5.762   4.752  14.518  0.00  0.00    +0.000 OA
ATOM      3  O   UNL     1       5.088   6.828  15.797  0.00  0.00    +0.000 OA
ENDROOT
BRANCH   1  11
ATOM      4  O   UNL     1       2.343   2.984  22.266  0.00  0.00    +0.000 OA
ATOM      5  C   UNL     1       2.402   2.858  21.036  0.00  0.00    +0.000 C 
ATOM      6  C   UNL     1       1.122   2.730  20.247  0.00  0.00    +0.000 C 
ATOM      7  C   UNL     1       1.059   3.311  18.851  0.00  0.00    +0.000 C 
ATOM      8  C   UNL     1       2.052   2.639  17.925  0.00  0.00    +0.000 C 
ATOM      9  C   UNL     1       3.403   3.272  18.081  0.00  0.00    +0.000 A 
ATOM     10  C   UNL     1       3.959   3.953  16.981  0.00  0.00    +0.000 A 
ATOM     11  C   UNL     1       5.207   4.576  17.082  0.00  0.00    +0.000 A 
ATOM     12  C   UNL     1       5.969   4.442  18.238  0.00  0.00    +0.000 A 
ATOM     13  C   UNL     1       5.435   3.740  19.319  0.00  0.00    +0.000 A 
ATOM     14  C   UNL     1       4.131   3.213  19.273  0.00  0.00    +0.000 A 
ATOM     15  N   UNL     1       3.645   2.724  20.499  0.00  0.00    +0.000 N 
ATOM     16  H   UNL     1       4.322   2.719  21.254  0.00  0.00    +0.000 HD
ENDBRANCH   1  11
BRANCH   1  17
ATOM     17  N   UNL     1       7.411   5.871  16.135  0.00  0.00    +0.000 N 
ATOM     18  C   UNL     1       7.647   6.868  17.066  0.00  0.00    +0.000 A 
ATOM     19  C   UNL     1       7.666   6.731  18.463  0.00  0.00    +0.000 A 
ATOM     20  C   UNL     1       7.958   7.991  18.931  0.00  0.00    +0.000 A 
ATOM     21  N   UNL     1       8.066   8.788  17.823  0.00  0.00    +0.000 N 
ATOM     22  N   UNL     1       7.959   8.098  16.664  0.00  0.00    +0.000 NA
ATOM     23  H   UNL     1       7.927   6.048  15.277  0.00  0.00    +0.000 HD
BRANCH  21  24
ATOM     24  C   UNL     1       8.135  10.245  17.804  0.00  0.00    +0.000 C 
BRANCH  24  25
ATOM     25  C   UNL     1       9.364  10.774  18.494  0.00  0.00    +0.000 A 
ATOM     26  C   UNL     1       9.392  10.932  19.887  0.00  0.00    +0.000 A 
ATOM     27  C   UNL     1      10.537  11.411  20.525  0.00  0.00    +0.000 A 
ATOM     28  C   UNL     1      11.669  11.729  19.779  0.00  0.00    +0.000 A 
ATOM     29  C   UNL     1      11.660  11.562  18.396  0.00  0.00    +0.000 A 
ATOM     30  C   UNL     1      10.515  11.086  17.755  0.00  0.00    +0.000 A 
ENDBRANCH  24  25
ENDBRANCH  21  24
ENDBRANCH   1  17
TORSDOF 4
ENDMDL
MODEL 8
REMARK VINA RESULT:      -8.2      2.339      8.565
REMARK  Name = 
REMARK  4 active torsions:
REMARK  status: ('A' for Active; 'I' for Inactive)
REMARK    1  A    between atoms: C_8  and  S_9
REMARK    2  A    between atoms: S_9  and  N_12
REMARK    3  A    between atoms: N_16  and  C_17
REMARK    4  A    between atoms: C_17  and  C_18
REMARK                            x       y       z     vdW  Elec       q    Type
REMARK                         _______ _______ _______ _____ _____    ______ ____
ROOT
ATOM      1  S   UNL     1       2.520   5.683  19.685  0.00  0.00    +0.000 S 
ATOM      2  O   UNL     1       2.173   5.366  21.056  0.00  0.00    +0.000 OA
ATOM      3  O   UNL     1       1.991   4.915  18.573  0.00  0.00    +0.000 OA
ENDROOT
BRANCH   1  11
ATOM      4  O   UNL     1      -1.281  12.360  18.129  0.00  0.00    +0.000 OA
ATOM      5  C   UNL     1      -0.594  11.757  18.964  0.00  0.00    +0.000 C 
ATOM      6  C   UNL     1      -0.993  11.806  20.418  0.00  0.00    +0.000 C 
ATOM      7  C   UNL     1      -0.728  10.601  21.294  0.00  0.00    +0.000 C 
ATOM      8  C   UNL     1       0.755  10.307  21.398  0.00  0.00    +0.000 C 
ATOM      9  C   UNL     1       1.198   9.494  20.218  0.00  0.00    +0.000 A 
ATOM     10  C   UNL     1       1.674   8.188  20.441  0.00  0.00    +0.000 A 
ATOM     11  C   UNL     1       2.080   7.382  19.372  0.00  0.00    +0.000 A 
ATOM     12  C   UNL     1       2.122   7.896  18.080  0.00  0.00    +0.000 A 
ATOM     13  C   UNL     1       1.681   9.202  17.860  0.00  0.00    +0.000 A 
ATOM     14  C   UNL     1       1.156   9.981  18.908  0.00  0.00    +0.000 A 
ATOM     15  N   UNL     1       0.553  11.186  18.507  0.00  0.00    +0.000 N 
ATOM     16  H   UNL     1       0.650  11.403  17.522  0.00  0.00    +0.000 HD
ENDBRANCH   1  11
BRANCH   1  17
ATOM     17  N   UNL     1       4.209   5.687  19.528  0.00  0.00    +0.000 N 
ATOM     18  C   UNL     1       4.728   5.553  18.251  0.00  0.00    +0.000 A 
ATOM     19  C   UNL     1       4.977   6.583  17.329  0.00  0.00    +0.000 A 
ATOM     20  C   UNL     1       5.500   5.944  16.229  0.00  0.00    +0.000 A 
ATOM     21  N   UNL     1       5.508   4.611  16.537  0.00  0.00    +0.000 N 
ATOM     22  N   UNL     1       5.112   4.360  17.807  0.00  0.00    +0.000 NA
ATOM     23  H   UNL     1       4.583   4.972  20.146  0.00  0.00    +0.000 HD
BRANCH  21  24
ATOM     24  C   UNL     1       5.751   3.506  15.615  0.00  0.00    +0.000 C 
BRANCH  24  25
ATOM     25  C   UNL     1       6.351   3.965  14.312  0.00  0.00    +0.000 A 
ATOM     26  C   UNL     1       7.366   4.932  14.292  0.00  0.00    +0.000 A 
ATOM     27  C   UNL     1       7.928   5.346  13.084  0.00  0.00    +0.000 A 
ATOM     28  C   UNL     1       7.491   4.791  11.884  0.00  0.00    +0.000 A 
ATOM     29  C   UNL     1       6.495   3.817  11.891  0.00  0.00    +0.000 A 
ATOM     30  C   UNL     1       5.928   3.403  13.098  0.00  0.00    +0.000 A 
ENDBRANCH  24  25
ENDBRANCH  21  24
ENDBRANCH   1  17
TORSDOF 4
ENDMDL
MODEL 9
REMARK VINA RESULT:      -8.1      2.649      8.417
REMARK  Name = 
REMARK  4 active torsions:
REMARK  status: ('A' for Active; 'I' for Inactive)
REMARK    1  A    between atoms: C_8  and  S_9
REMARK    2  A    between atoms: S_9  and  N_12
REMARK    3  A    between atoms: N_16  and  C_17
REMARK    4  A    between atoms: C_17  and  C_18
REMARK                            x       y       z     vdW  Elec       q    Type
REMARK                         _______ _______ _______ _____ _____    ______ ____
ROOT
ATOM      1  S   UNL     1       2.574   5.474  19.825  0.00  0.00    +0.000 S 
ATOM      2  O   UNL     1       2.491   4.749  21.077  0.00  0.00    +0.000 OA
ATOM      3  O   UNL     1       2.000   4.941  18.603  0.00  0.00    +0.000 OA
ENDROOT
BRANCH   1  11
ATOM      4  O   UNL     1       1.304  13.069  21.288  0.00  0.00    +0.000 OA
ATOM      5  C   UNL     1       1.241  12.179  20.430  0.00  0.00    +0.000 C 
ATOM      6  C   UNL     1       1.717  12.474  19.029  0.00  0.00    +0.000 C 
ATOM      7  C   UNL     1       2.356  11.364  18.222  0.00  0.00    +0.000 C 
ATOM      8  C   UNL     1       1.385  10.227  17.977  0.00  0.00    +0.000 C 
ATOM      9  C   UNL     1       1.374   9.303  19.159  0.00  0.00    +0.000 A 
ATOM     10  C   UNL     1       1.821   7.980  18.983  0.00  0.00    +0.000 A 
ATOM     11  C   UNL     1       1.848   7.085  20.058  0.00  0.00    +0.000 A 
ATOM     12  C   UNL     1       1.332   7.457  21.295  0.00  0.00    +0.000 A 
ATOM     13  C   UNL     1       0.858   8.758  21.464  0.00  0.00    +0.000 A 
ATOM     14  C   UNL     1       0.937   9.704  20.425  0.00  0.00    +0.000 A 
ATOM     15  N   UNL     1       0.626  11.023  20.799  0.00  0.00    +0.000 N 
ATOM     16  H   UNL     1       0.288  11.129  21.749  0.00  0.00    +0.000 HD
ENDBRANCH   1  11
BRANCH   1  17
ATOM     17  N   UNL     1       4.201   5.828  19.496  0.00  0.00    +0.000 N 
ATOM     18  C   UNL     1       4.636   5.659  18.193  0.00  0.00    +0.000 A 
ATOM     19  C   UNL     1       4.571   6.601  17.153  0.00  0.00    +0.000 A 
ATOM     20  C   UNL     1       5.140   5.964  16.074  0.00  0.00    +0.000 A 
ATOM     21  N   UNL     1       5.476   4.711  16.511  0.00  0.00    +0.000 N 
ATOM     22  N   UNL     1       5.248   4.534  17.833  0.00  0.00    +0.000 NA
ATOM     23  H   UNL     1       4.775   5.291  20.141  0.00  0.00    +0.000 HD
BRANCH  21  24
ATOM     24  C   UNL     1       5.893   3.585  15.682  0.00  0.00    +0.000 C 
BRANCH  24  25
ATOM     25  C   UNL     1       6.409   4.018  14.336  0.00  0.00    +0.000 A 
ATOM     26  C   UNL     1       7.450   4.953  14.235  0.00  0.00    +0.000 A 
ATOM     27  C   UNL     1       7.934   5.344  12.986  0.00  0.00    +0.000 A 
ATOM     28  C   UNL     1       7.391   4.798  11.825  0.00  0.00    +0.000 A 
ATOM     29  C   UNL     1       6.368   3.857  11.912  0.00  0.00    +0.000 A 
ATOM     30  C   UNL     1       5.879   3.466  13.160  0.00  0.00    +0.000 A 
ENDBRANCH  24  25
ENDBRANCH  21  24
ENDBRANCH   1  17
TORSDOF 4
ENDMDL
