MODEL 1
REMARK VINA RESULT:      -8.6      0.000      0.000
REMARK  Name = 
REMARK  8 active torsions:
REMARK  status: ('A' for Active; 'I' for Inactive)
REMARK    1  A    between atoms: C_1  and  N_2
REMARK    2  A    between atoms: C_6  and  C_7
REMARK    3  A    between atoms: C_7  and  C_8
REMARK    4  A    between atoms: C_8  and  C_9
REMARK    5  A    between atoms: C_13  and  N_14
REMARK    6  A    between atoms: C_17  and  C_18
REMARK    7  A    between atoms: C_18  and  C_19
REMARK    8  A    between atoms: C_19  and  C_20
REMARK                            x       y       z     vdW  Elec       q    Type
REMARK                         _______ _______ _______ _____ _____    ______ ____
ROOT
ATOM      1  C   UNL     1       4.506   4.865  17.162  0.00  0.00    +0.000 A 
ATOM      2  C   UNL     1       3.662   3.756  16.988  0.00  0.00    +0.000 A 
ATOM      3  C   UNL     1       2.354   3.753  17.474  0.00  0.00    +0.000 A 
ATOM      4  C   UNL     1       1.853   4.868  18.146  0.00  0.00    +0.000 A 
ATOM      5  C   UNL     1       2.637   6.011  18.313  0.00  0.00    +0.000 A 
ATOM      6  C   UNL     1       3.935   5.993  17.786  0.00  0.00    +0.000 A 
ENDROOT
BRANCH   5   7
ATOM      7  N   UNL     1       2.190   7.150  19.032  0.00  0.00    +0.000 N 
ATOM      8  C   UNL     1       1.877   7.091  20.439  0.00  0.00    +0.000 C 
ATOM      9  C   UNL     1       1.309   8.437  20.690  0.00  0.00    +0.000 C 
ATOM     10  C   UNL     1       1.315   9.205  19.598  0.00  0.00    +0.000 C 
ATOM     11  C   UNL     1       1.928   8.416  18.511  0.00  0.00    +0.000 C 
ATOM     12  O   UNL     1       2.110   8.862  17.395  0.00  0.00    +0.000 OA
BRANCH  10  13
ATOM     13  C   UNL     1       0.804  10.591  19.423  0.00  0.00    +0.000 C 
BRANCH  13  14
ATOM     14  C   UNL     1      -0.619  10.767  19.952  0.00  0.00    +0.000 C 
BRANCH  14  15
ATOM     15  C   UNL     1      -0.646  11.541  21.253  0.00  0.00    +0.000 C 
ATOM     16  F   UNL     1      -1.788  12.240  21.418  0.00  0.00    +0.000 F 
ATOM     17  F   UNL     1      -0.516  10.714  22.313  0.00  0.00    +0.000 F 
ATOM     18  F   UNL     1       0.379  12.423  21.301  0.00  0.00    +0.000 F 
ENDBRANCH  14  15
ENDBRANCH  13  14
ENDBRANCH  10  13
ENDBRANCH   5   7
BRANCH   1  19
ATOM     19  C   UNL     1       6.059   4.858  16.751  0.00  0.00    +0.000 C 
ATOM     20  C   UNL     1       6.771   6.243  16.643  0.00  0.00    +0.000 C 
ATOM     21  O   UNL     1       7.603   5.976  17.791  0.00  0.00    +0.000 OA
ATOM     22  C   UNL     1       7.053   4.653  17.932  0.00  0.00    +0.000 C 
BRANCH  19  23
ATOM     23  C   UNL     1       6.317   3.895  15.575  0.00  0.00    +0.000 C 
BRANCH  23  29
ATOM     24  C   UNL     1       5.766   3.336  12.486  0.00  0.00    +0.000 C 
ATOM     25  N   UNL     1       6.705   4.262  13.060  0.00  0.00    +0.000 N 
ATOM     26  C   UNL     1       7.562   5.042  12.341  0.00  0.00    +0.000 A 
ATOM     27  N   UNL     1       8.270   5.783  13.157  0.00  0.00    +0.000 NA
ATOM     28  N   UNL     1       7.887   5.472  14.437  0.00  0.00    +0.000 NA
ATOM     29  C   UNL     1       6.948   4.547  14.384  0.00  0.00    +0.000 A 
ENDBRANCH  23  29
ENDBRANCH  19  23
ENDBRANCH   1  19
TORSDOF 7
ENDMDL
MODEL 2
REMARK VINA RESULT:      -8.6      0.984      1.337
REMARK  Name = 
REMARK  8 active torsions:
REMARK  status: ('A' for Active; 'I' for Inactive)
REMARK    1  A    between atoms: C_1  and  N_2
REMARK    2  A    between atoms: C_6  and  C_7
REMARK    3  A    between atoms: C_7  and  C_8
REMARK    4  A    between atoms: C_8  and  C_9
REMARK    5  A    between atoms: C_13  and  N_14
REMARK    6  A    between atoms: C_17  and  C_18
REMARK    7  A    between atoms: C_18  and  C_19
REMARK    8  A    between atoms: C_19  and  C_20
REMARK                            x       y       z     vdW  Elec       q    Type
REMARK                         _______ _______ _______ _____ _____    ______ ____
ROOT
ATOM      1  C   UNL     1       4.583   4.899  17.142  0.00  0.00    +0.000 A 
ATOM      2  C   UNL     1       3.748   3.786  16.953  0.00  0.00    +0.000 A 
ATOM      3  C   UNL     1       2.432   3.776  17.415  0.00  0.00    +0.000 A 
ATOM      4  C   UNL     1       1.913   4.889  18.079  0.00  0.00    +0.000 A 
ATOM      5  C   UNL     1       2.689   6.036  18.260  0.00  0.00    +0.000 A 
ATOM      6  C   UNL     1       3.997   6.023  17.756  0.00  0.00    +0.000 A 
ENDROOT
BRANCH   5   7
ATOM      7  N   UNL     1       2.224   7.172  18.972  0.00  0.00    +0.000 N 
ATOM      8  C   UNL     1       1.919   7.120  20.380  0.00  0.00    +0.000 C 
ATOM      9  C   UNL     1       1.326   8.457  20.623  0.00  0.00    +0.000 C 
ATOM     10  C   UNL     1       1.313   9.215  19.524  0.00  0.00    +0.000 C 
ATOM     11  C   UNL     1       1.936   8.429  18.441  0.00  0.00    +0.000 C 
ATOM     12  O   UNL     1       2.105   8.869  17.320  0.00  0.00    +0.000 OA
BRANCH  10  13
ATOM     13  C   UNL     1       0.775  10.590  19.340  0.00  0.00    +0.000 C 
BRANCH  13  14
ATOM     14  C   UNL     1      -0.405  10.638  18.371  0.00  0.00    +0.000 C 
BRANCH  14  15
ATOM     15  C   UNL     1      -1.492  11.577  18.852  0.00  0.00    +0.000 C 
ATOM     16  F   UNL     1      -1.336  11.933  20.144  0.00  0.00    +0.000 F 
ATOM     17  F   UNL     1      -1.516  12.710  18.116  0.00  0.00    +0.000 F 
ATOM     18  F   UNL     1      -2.707  10.994  18.737  0.00  0.00    +0.000 F 
ENDBRANCH  14  15
ENDBRANCH  13  14
ENDBRANCH  10  13
ENDBRANCH   5   7
BRANCH   1  19
ATOM     19  C   UNL     1       6.144   4.899  16.759  0.00  0.00    +0.000 C 
ATOM     20  C   UNL     1       6.843   6.288  16.631  0.00  0.00    +0.000 C 
ATOM     21  O   UNL     1       7.657   6.058  17.799  0.00  0.00    +0.000 OA
ATOM     22  C   UNL     1       7.118   4.733  17.963  0.00  0.00    +0.000 C 
BRANCH  19  23
ATOM     23  C   UNL     1       6.433   3.912  15.611  0.00  0.00    +0.000 C 
BRANCH  23  29
ATOM     24  C   UNL     1       5.775   3.287  12.556  0.00  0.00    +0.000 C 
ATOM     25  N   UNL     1       6.715   4.242  13.078  0.00  0.00    +0.000 N 
ATOM     26  C   UNL     1       7.526   5.027  12.312  0.00  0.00    +0.000 A 
ATOM     27  N   UNL     1       8.249   5.798  13.087  0.00  0.00    +0.000 NA
ATOM     28  N   UNL     1       7.923   5.501  14.387  0.00  0.00    +0.000 NA
ATOM     29  C   UNL     1       7.003   4.556  14.386  0.00  0.00    +0.000 A 
ENDBRANCH  23  29
ENDBRANCH  19  23
ENDBRANCH   1  19
TORSDOF 7
ENDMDL
MODEL 3
REMARK VINA RESULT:      -8.5      1.071      1.528
REMARK  Name = 
REMARK  8 active torsions:
REMARK  status: ('A' for Active; 'I' for Inactive)
REMARK    1  A    between atoms: C_1  and  N_2
REMARK    2  A    between atoms: C_6  and  C_7
REMARK    3  A    between atoms: C_7  and  C_8
REMARK    4  A    between atoms: C_8  and  C_9
REMARK    5  A    between atoms: C_13  and  N_14
REMARK    6  A    between atoms: C_17  and  C_18
REMARK    7  A    between atoms: C_18  and  C_19
REMARK    8  A    between atoms: C_19  and  C_20
REMARK                            x       y       z     vdW  Elec       q    Type
REMARK                         _______ _______ _______ _____ _____    ______ ____
ROOT
ATOM      1  C   UNL     1       4.525   4.776  17.094  0.00  0.00    +0.000 A 
ATOM      2  C   UNL     1       3.730   3.629  16.938  0.00  0.00    +0.000 A 
ATOM      3  C   UNL     1       2.420   3.581  17.415  0.00  0.00    +0.000 A 
ATOM      4  C   UNL     1       1.866   4.689  18.060  0.00  0.00    +0.000 A 
ATOM      5  C   UNL     1       2.600   5.867  18.207  0.00  0.00    +0.000 A 
ATOM      6  C   UNL     1       3.903   5.892  17.689  0.00  0.00    +0.000 A 
ENDROOT
BRANCH   5   7
ATOM      7  N   UNL     1       2.100   7.001  18.898  0.00  0.00    +0.000 N 
ATOM      8  C   UNL     1       1.983   8.291  18.266  0.00  0.00    +0.000 C 
ATOM      9  C   UNL     1       1.590   9.162  19.399  0.00  0.00    +0.000 C 
ATOM     10  C   UNL     1       1.455   8.483  20.540  0.00  0.00    +0.000 C 
ATOM     11  C   UNL     1       1.730   7.063  20.241  0.00  0.00    +0.000 C 
ATOM     12  O   UNL     1       1.648   6.185  21.078  0.00  0.00    +0.000 OA
BRANCH  10  13
ATOM     13  C   UNL     1       1.113   8.988  21.898  0.00  0.00    +0.000 C 
BRANCH  13  14
ATOM     14  C   UNL     1      -0.358   9.375  22.030  0.00  0.00    +0.000 C 
BRANCH  14  15
ATOM     15  C   UNL     1      -0.548  10.878  22.033  0.00  0.00    +0.000 C 
ATOM     16  F   UNL     1       0.580  11.544  21.707  0.00  0.00    +0.000 F 
ATOM     17  F   UNL     1      -1.509  11.248  21.159  0.00  0.00    +0.000 F 
ATOM     18  F   UNL     1      -0.929  11.305  23.258  0.00  0.00    +0.000 F 
ENDBRANCH  14  15
ENDBRANCH  13  14
ENDBRANCH  10  13
ENDBRANCH   5   7
BRANCH   1  19
ATOM     19  C   UNL     1       6.080   4.826  16.694  0.00  0.00    +0.000 C 
ATOM     20  C   UNL     1       6.741   6.236  16.587  0.00  0.00    +0.000 C 
ATOM     21  O   UNL     1       7.574   6.003  17.741  0.00  0.00    +0.000 OA
ATOM     22  C   UNL     1       7.073   4.662  17.883  0.00  0.00    +0.000 C 
BRANCH  19  23
ATOM     23  C   UNL     1       6.382   3.871  15.522  0.00  0.00    +0.000 C 
BRANCH  23  29
ATOM     24  C   UNL     1       5.783   3.349  12.436  0.00  0.00    +0.000 C 
ATOM     25  N   UNL     1       6.723   4.275  13.007  0.00  0.00    +0.000 N 
ATOM     26  C   UNL     1       7.561   5.072  12.284  0.00  0.00    +0.000 A 
ATOM     27  N   UNL     1       8.276   5.809  13.097  0.00  0.00    +0.000 NA
ATOM     28  N   UNL     1       7.918   5.477  14.380  0.00  0.00    +0.000 NA
ATOM     29  C   UNL     1       6.986   4.544  14.330  0.00  0.00    +0.000 A 
ENDBRANCH  23  29
ENDBRANCH  19  23
ENDBRANCH   1  19
TORSDOF 7
ENDMDL
MODEL 4
REMARK VINA RESULT:      -8.5      1.821      2.356
REMARK  Name = 
REMARK  8 active torsions:
REMARK  status: ('A' for Active; 'I' for Inactive)
REMARK    1  A    between atoms: C_1  and  N_2
REMARK    2  A    between atoms: C_6  and  C_7
REMARK    3  A    between atoms: C_7  and  C_8
REMARK    4  A    between atoms: C_8  and  C_9
REMARK    5  A    between atoms: C_13  and  N_14
REMARK    6  A    between atoms: C_17  and  C_18
REMARK    7  A    between atoms: C_18  and  C_19
REMARK    8  A    between atoms: C_19  and  C_20
REMARK                            x       y       z     vdW  Elec       q    Type
REMARK                         _______ _______ _______ _____ _____    ______ ____
ROOT
ATOM      1  C   UNL     1       5.478   5.450  18.625  0.00  0.00    +0.000 A 
ATOM      2  C   UNL     1       5.021   4.300  19.291  0.00  0.00    +0.000 A 
ATOM      3  C   UNL     1       3.726   4.222  19.803  0.00  0.00    +0.000 A 
ATOM      4  C   UNL     1       2.846   5.296  19.656  0.00  0.00    +0.000 A 
ATOM      5  C   UNL     1       3.237   6.447  18.969  0.00  0.00    +0.000 A 
ATOM      6  C   UNL     1       4.535   6.482  18.442  0.00  0.00    +0.000 A 
ENDROOT
BRANCH   5   7
ATOM      7  N   UNL     1       2.398   7.584  18.838  0.00  0.00    +0.000 N 
ATOM      8  C   UNL     1       2.284   8.310  17.597  0.00  0.00    +0.000 C 
ATOM      9  C   UNL     1       1.455   9.475  17.991  0.00  0.00    +0.000 C 
ATOM     10  C   UNL     1       1.094   9.432  19.275  0.00  0.00    +0.000 C 
ATOM     11  C   UNL     1       1.647   8.188  19.846  0.00  0.00    +0.000 C 
ATOM     12  O   UNL     1       1.453   7.847  20.996  0.00  0.00    +0.000 OA
BRANCH  10  13
ATOM     13  C   UNL     1       0.301  10.417  20.060  0.00  0.00    +0.000 C 
BRANCH  13  14
ATOM     14  C   UNL     1      -0.164  11.604  19.218  0.00  0.00    +0.000 C 
BRANCH  14  15
ATOM     15  C   UNL     1      -1.611  11.461  18.792  0.00  0.00    +0.000 C 
ATOM     16  F   UNL     1      -2.471  11.985  19.691  0.00  0.00    +0.000 F 
ATOM     17  F   UNL     1      -1.832  12.074  17.609  0.00  0.00    +0.000 F 
ATOM     18  F   UNL     1      -1.932  10.156  18.638  0.00  0.00    +0.000 F 
ENDBRANCH  14  15
ENDBRANCH  13  14
ENDBRANCH  10  13
ENDBRANCH   5   7
BRANCH   1  19
ATOM     19  C   UNL     1       7.001   5.642  18.152  0.00  0.00    +0.000 C 
ATOM     20  C   UNL     1       7.417   7.063  17.659  0.00  0.00    +0.000 C 
ATOM     21  O   UNL     1       8.284   7.273  18.793  0.00  0.00    +0.000 OA
ATOM     22  C   UNL     1       8.013   5.951  19.295  0.00  0.00    +0.000 C 
BRANCH  19  23
ATOM     23  C   UNL     1       7.452   4.477  17.248  0.00  0.00    +0.000 C 
BRANCH  23  29
ATOM     24  C   UNL     1       4.758   3.440  15.897  0.00  0.00    +0.000 C 
ATOM     25  N   UNL     1       5.853   4.126  15.266  0.00  0.00    +0.000 N 
ATOM     26  C   UNL     1       5.923   4.412  13.934  0.00  0.00    +0.000 A 
ATOM     27  N   UNL     1       7.036   5.055  13.682  0.00  0.00    +0.000 NA
ATOM     28  N   UNL     1       7.721   5.178  14.865  0.00  0.00    +0.000 NA
ATOM     29  C   UNL     1       7.014   4.610  15.823  0.00  0.00    +0.000 A 
ENDBRANCH  23  29
ENDBRANCH  19  23
ENDBRANCH   1  19
TORSDOF 7
ENDMDL
MODEL 5
REMARK VINA RESULT:      -8.5      3.942      5.444
REMARK  Name = 
REMARK  8 active torsions:
REMARK  status: ('A' for Active; 'I' for Inactive)
REMARK    1  A    between atoms: C_1  and  N_2
REMARK    2  A    between atoms: C_6  and  C_7
REMARK    3  A    between atoms: C_7  and  C_8
REMARK    4  A    between atoms: C_8  and  C_9
REMARK    5  A    between atoms: C_13  and  N_14
REMARK    6  A    between atoms: C_17  and  C_18
REMARK    7  A    between atoms: C_18  and  C_19
REMARK    8  A    between atoms: C_19  and  C_20
REMARK                            x       y       z     vdW  Elec       q    Type
REMARK                         _______ _______ _______ _____ _____    ______ ____
ROOT
ATOM      1  C   UNL     1       2.596   7.315  18.603  0.00  0.00    +0.000 A 
ATOM      2  C   UNL     1       2.646   8.180  17.498  0.00  0.00    +0.000 A 
ATOM      3  C   UNL     1       2.041   9.436  17.529  0.00  0.00    +0.000 A 
ATOM      4  C   UNL     1       1.369   9.864  18.676  0.00  0.00    +0.000 A 
ATOM      5  C   UNL     1       1.322   9.059  19.815  0.00  0.00    +0.000 A 
ATOM      6  C   UNL     1       1.967   7.816  19.761  0.00  0.00    +0.000 A 
ENDROOT
BRANCH   5   7
ATOM      7  N   UNL     1       0.610   9.428  20.986  0.00  0.00    +0.000 N 
ATOM      8  C   UNL     1       0.063   8.446  21.889  0.00  0.00    +0.000 C 
ATOM      9  C   UNL     1      -0.711   9.286  22.834  0.00  0.00    +0.000 C 
ATOM     10  C   UNL     1      -0.611  10.588  22.558  0.00  0.00    +0.000 C 
ATOM     11  C   UNL     1       0.283  10.722  21.391  0.00  0.00    +0.000 C 
ATOM     12  O   UNL     1       0.601  11.798  20.924  0.00  0.00    +0.000 OA
BRANCH  10  13
ATOM     13  C   UNL     1      -1.259  11.743  23.237  0.00  0.00    +0.000 C 
BRANCH  13  14
ATOM     14  C   UNL     1      -2.593  12.128  22.602  0.00  0.00    +0.000 C 
BRANCH  14  15
ATOM     15  C   UNL     1      -3.550  12.721  23.615  0.00  0.00    +0.000 C 
ATOM     16  F   UNL     1      -4.679  13.194  23.048  0.00  0.00    +0.000 F 
ATOM     17  F   UNL     1      -3.910  11.803  24.539  0.00  0.00    +0.000 F 
ATOM     18  F   UNL     1      -2.967  13.749  24.273  0.00  0.00    +0.000 F 
ENDBRANCH  14  15
ENDBRANCH  13  14
ENDBRANCH  10  13
ENDBRANCH   5   7
BRANCH   1  19
ATOM     19  C   UNL     1       3.149   5.807  18.562  0.00  0.00    +0.000 C 
ATOM     20  C   UNL     1       4.104   5.433  17.386  0.00  0.00    +0.000 C 
ATOM     21  O   UNL     1       5.234   5.277  18.269  0.00  0.00    +0.000 OA
ATOM     22  C   UNL     1       4.419   5.546  19.424  0.00  0.00    +0.000 C 
BRANCH  19  23
ATOM     23  C   UNL     1       2.018   4.795  18.835  0.00  0.00    +0.000 C 
BRANCH  23  29
ATOM     24  C   UNL     1       3.402   1.933  19.068  0.00  0.00    +0.000 C 
ATOM     25  N   UNL     1       2.811   2.715  20.121  0.00  0.00    +0.000 N 
ATOM     26  C   UNL     1       2.715   2.315  21.421  0.00  0.00    +0.000 A 
ATOM     27  N   UNL     1       2.143   3.258  22.129  0.00  0.00    +0.000 NA
ATOM     28  N   UNL     1       1.838   4.288  21.276  0.00  0.00    +0.000 NA
ATOM     29  C   UNL     1       2.232   3.961  20.060  0.00  0.00    +0.000 A 
ENDBRANCH  23  29
ENDBRANCH  19  23
ENDBRANCH   1  19
TORSDOF 7
ENDMDL
MODEL 6
REMARK VINA RESULT:      -8.4      4.178      5.624
REMARK  Name = 
REMARK  8 active torsions:
REMARK  status: ('A' for Active; 'I' for Inactive)
REMARK    1  A    between atoms: C_1  and  N_2
REMARK    2  A    between atoms: C_6  and  C_7
REMARK    3  A    between atoms: C_7  and  C_8
REMARK    4  A    between atoms: C_8  and  C_9
REMARK    5  A    between atoms: C_13  and  N_14
REMARK    6  A    between atoms: C_17  and  C_18
REMARK    7  A    between atoms: C_18  and  C_19
REMARK    8  A    between atoms: C_19  and  C_20
REMARK                            x       y       z     vdW  Elec       q    Type
REMARK                         _______ _______ _______ _____ _____    ______ ____
ROOT
ATOM      1  C   UNL     1       2.310   7.596  19.004  0.00  0.00    +0.000 A 
ATOM      2  C   UNL     1       2.351   8.359  17.826  0.00  0.00    +0.000 A 
ATOM      3  C   UNL     1       1.764   9.623  17.756  0.00  0.00    +0.000 A 
ATOM      4  C   UNL     1       1.122  10.161  18.873  0.00  0.00    +0.000 A 
ATOM      5  C   UNL     1       1.085   9.460  20.079  0.00  0.00    +0.000 A 
ATOM      6  C   UNL     1       1.710   8.206  20.124  0.00  0.00    +0.000 A 
ENDROOT
BRANCH   5   7
ATOM      7  N   UNL     1       0.402   9.942  21.226  0.00  0.00    +0.000 N 
ATOM      8  C   UNL     1       0.020   9.072  22.310  0.00  0.00    +0.000 C 
ATOM      9  C   UNL     1      -0.791   9.972  23.164  0.00  0.00    +0.000 C 
ATOM     10  C   UNL     1      -0.854  11.214  22.679  0.00  0.00    +0.000 C 
ATOM     11  C   UNL     1      -0.047  11.244  21.444  0.00  0.00    +0.000 C 
ATOM     12  O   UNL     1       0.121  12.256  20.790  0.00  0.00    +0.000 OA
BRANCH  10  13
ATOM     13  C   UNL     1      -1.590  12.393  23.212  0.00  0.00    +0.000 C 
BRANCH  13  14
ATOM     14  C   UNL     1      -3.107  12.215  23.160  0.00  0.00    +0.000 C 
BRANCH  14  15
ATOM     15  C   UNL     1      -3.809  13.052  24.209  0.00  0.00    +0.000 C 
ATOM     16  F   UNL     1      -4.855  13.742  23.708  0.00  0.00    +0.000 F 
ATOM     17  F   UNL     1      -4.273  12.280  25.216  0.00  0.00    +0.000 F 
ATOM     18  F   UNL     1      -2.954  13.949  24.749  0.00  0.00    +0.000 F 
ENDBRANCH  14  15
ENDBRANCH  13  14
ENDBRANCH  10  13
ENDBRANCH   5   7
BRANCH   1  19
ATOM     19  C   UNL     1       2.839   6.081  19.087  0.00  0.00    +0.000 C 
ATOM     20  C   UNL     1       3.182   5.374  17.737  0.00  0.00    +0.000 C 
ATOM     21  O   UNL     1       4.592   5.340  18.041  0.00  0.00    +0.000 OA
ATOM     22  C   UNL     1       4.369   5.929  19.335  0.00  0.00    +0.000 C 
BRANCH  19  23
ATOM     23  C   UNL     1       1.986   5.248  20.064  0.00  0.00    +0.000 C 
BRANCH  23  29
ATOM     24  C   UNL     1       3.694   2.584  20.447  0.00  0.00    +0.000 C 
ATOM     25  N   UNL     1       2.453   2.741  19.737  0.00  0.00    +0.000 N 
ATOM     26  C   UNL     1       1.817   1.743  19.061  0.00  0.00    +0.000 A 
ATOM     27  N   UNL     1       0.707   2.204  18.539  0.00  0.00    +0.000 NA
ATOM     28  N   UNL     1       0.622   3.536  18.859  0.00  0.00    +0.000 NA
ATOM     29  C   UNL     1       1.679   3.867  19.576  0.00  0.00    +0.000 A 
ENDBRANCH  23  29
ENDBRANCH  19  23
ENDBRANCH   1  19
TORSDOF 7
ENDMDL
MODEL 7
REMARK VINA RESULT:      -8.3      1.692      1.907
REMARK  Name = 
REMARK  8 active torsions:
REMARK  status: ('A' for Active; 'I' for Inactive)
REMARK    1  A    between atoms: C_1  and  N_2
REMARK    2  A    between atoms: C_6  and  C_7
REMARK    3  A    between atoms: C_7  and  C_8
REMARK    4  A    between atoms: C_8  and  C_9
REMARK    5  A    between atoms: C_13  and  N_14
REMARK    6  A    between atoms: C_17  and  C_18
REMARK    7  A    between atoms: C_18  and  C_19
REMARK    8  A    between atoms: C_19  and  C_20
REMARK                            x       y       z     vdW  Elec       q    Type
REMARK                         _______ _______ _______ _____ _____    ______ ____
ROOT
ATOM      1  C   UNL     1       4.917   5.386  17.486  0.00  0.00    +0.000 A 
ATOM      2  C   UNL     1       4.171   4.229  17.209  0.00  0.00    +0.000 A 
ATOM      3  C   UNL     1       2.810   4.152  17.507  0.00  0.00    +0.000 A 
ATOM      4  C   UNL     1       2.156   5.239  18.089  0.00  0.00    +0.000 A 
ATOM      5  C   UNL     1       2.843   6.426  18.350  0.00  0.00    +0.000 A 
ATOM      6  C   UNL     1       4.202   6.481  18.011  0.00  0.00    +0.000 A 
ENDROOT
BRANCH   5   7
ATOM      7  N   UNL     1       2.235   7.539  18.986  0.00  0.00    +0.000 N 
ATOM      8  C   UNL     1       1.807   7.494  20.363  0.00  0.00    +0.000 C 
ATOM      9  C   UNL     1       1.101   8.788  20.515  0.00  0.00    +0.000 C 
ATOM     10  C   UNL     1       1.135   9.521  19.400  0.00  0.00    +0.000 C 
ATOM     11  C   UNL     1       1.909   8.761  18.398  0.00  0.00    +0.000 C 
ATOM     12  O   UNL     1       2.148   9.189  17.286  0.00  0.00    +0.000 OA
BRANCH  10  13
ATOM     13  C   UNL     1       0.520  10.849  19.131  0.00  0.00    +0.000 C 
BRANCH  13  14
ATOM     14  C   UNL     1       1.311  12.001  19.748  0.00  0.00    +0.000 C 
BRANCH  14  15
ATOM     15  C   UNL     1       1.950  12.877  18.689  0.00  0.00    +0.000 C 
ATOM     16  F   UNL     1       2.674  13.885  19.218  0.00  0.00    +0.000 F 
ATOM     17  F   UNL     1       2.771  12.157  17.894  0.00  0.00    +0.000 F 
ATOM     18  F   UNL     1       1.003  13.430  17.898  0.00  0.00    +0.000 F 
ENDBRANCH  14  15
ENDBRANCH  13  14
ENDBRANCH  10  13
ENDBRANCH   5   7
BRANCH   1  19
ATOM     19  C   UNL     1       6.511   5.467  17.297  0.00  0.00    +0.000 C 
ATOM     20  C   UNL     1       7.125   6.880  17.042  0.00  0.00    +0.000 C 
ATOM     21  O   UNL     1       7.792   6.890  18.321  0.00  0.00    +0.000 OA
ATOM     22  C   UNL     1       7.328   5.561  18.619  0.00  0.00    +0.000 C 
BRANCH  19  23
ATOM     23  C   UNL     1       7.015   4.355  16.356  0.00  0.00    +0.000 C 
BRANCH  23  29
ATOM     24  C   UNL     1       5.372   3.625  13.724  0.00  0.00    +0.000 C 
ATOM     25  N   UNL     1       6.541   4.455  13.831  0.00  0.00    +0.000 N 
ATOM     26  C   UNL     1       7.170   5.046  12.775  0.00  0.00    +0.000 A 
ATOM     27  N   UNL     1       8.190   5.746  13.208  0.00  0.00    +0.000 NA
ATOM     28  N   UNL     1       8.245   5.598  14.570  0.00  0.00    +0.000 NA
ATOM     29  C   UNL     1       7.256   4.812  14.951  0.00  0.00    +0.000 A 
ENDBRANCH  23  29
ENDBRANCH  19  23
ENDBRANCH   1  19
TORSDOF 7
ENDMDL
MODEL 8
REMARK VINA RESULT:      -8.2      5.075      9.265
REMARK  Name = 
REMARK  8 active torsions:
REMARK  status: ('A' for Active; 'I' for Inactive)
REMARK    1  A    between atoms: C_1  and  N_2
REMARK    2  A    between atoms: C_6  and  C_7
REMARK    3  A    between atoms: C_7  and  C_8
REMARK    4  A    between atoms: C_8  and  C_9
REMARK    5  A    between atoms: C_13  and  N_14
REMARK    6  A    between atoms: C_17  and  C_18
REMARK    7  A    between atoms: C_18  and  C_19
REMARK    8  A    between atoms: C_19  and  C_20
REMARK                            x       y       z     vdW  Elec       q    Type
REMARK                         _______ _______ _______ _____ _____    ______ ____
ROOT
ATOM      1  C   UNL     1      -0.516  11.162  20.330  0.00  0.00    +0.000 A 
ATOM      2  C   UNL     1      -0.630  10.992  21.720  0.00  0.00    +0.000 A 
ATOM      3  C   UNL     1       0.014   9.945  22.380  0.00  0.00    +0.000 A 
ATOM      4  C   UNL     1       0.799   9.040  21.663  0.00  0.00    +0.000 A 
ATOM      5  C   UNL     1       0.976   9.186  20.286  0.00  0.00    +0.000 A 
ATOM      6  C   UNL     1       0.339  10.265  19.658  0.00  0.00    +0.000 A 
ENDROOT
BRANCH   5   7
ATOM      7  N   UNL     1       1.721   8.264  19.507  0.00  0.00    +0.000 N 
ATOM      8  C   UNL     1       2.308   8.631  18.242  0.00  0.00    +0.000 C 
ATOM      9  C   UNL     1       2.819   7.332  17.744  0.00  0.00    +0.000 C 
ATOM     10  C   UNL     1       2.603   6.335  18.605  0.00  0.00    +0.000 C 
ATOM     11  C   UNL     1       1.935   6.915  19.788  0.00  0.00    +0.000 C 
ATOM     12  O   UNL     1       1.642   6.258  20.768  0.00  0.00    +0.000 OA
BRANCH  10  13
ATOM     13  C   UNL     1       2.926   4.889  18.467  0.00  0.00    +0.000 C 
BRANCH  13  14
ATOM     14  C   UNL     1       1.720   4.053  18.042  0.00  0.00    +0.000 C 
BRANCH  14  15
ATOM     15  C   UNL     1       1.318   3.058  19.111  0.00  0.00    +0.000 C 
ATOM     16  F   UNL     1       0.768   1.938  18.597  0.00  0.00    +0.000 F 
ATOM     17  F   UNL     1       2.383   2.686  19.854  0.00  0.00    +0.000 F 
ATOM     18  F   UNL     1       0.410   3.606  19.950  0.00  0.00    +0.000 F 
ENDBRANCH  14  15
ENDBRANCH  13  14
ENDBRANCH  10  13
ENDBRANCH   5   7
BRANCH   1  19
ATOM     19  C   UNL     1      -1.356  12.259  19.509  0.00  0.00    +0.000 C 
ATOM     20  C   UNL     1      -1.309  13.728  20.035  0.00  0.00    +0.000 C 
ATOM     21  O   UNL     1      -0.569  14.184  18.884  0.00  0.00    +0.000 OA
ATOM     22  C   UNL     1      -0.617  12.876  18.286  0.00  0.00    +0.000 C 
BRANCH  19  23
ATOM     23  C   UNL     1      -2.762  11.733  19.160  0.00  0.00    +0.000 C 
BRANCH  23  29
ATOM     24  C   UNL     1      -5.216  12.102  17.161  0.00  0.00    +0.000 C 
ATOM     25  N   UNL     1      -3.983  11.401  16.923  0.00  0.00    +0.000 N 
ATOM     26  C   UNL     1      -3.684  10.729  15.775  0.00  0.00    +0.000 A 
ATOM     27  N   UNL     1      -2.483  10.215  15.868  0.00  0.00    +0.000 NA
ATOM     28  N   UNL     1      -1.989  10.536  17.107  0.00  0.00    +0.000 NA
ATOM     29  C   UNL     1      -2.896  11.246  17.751  0.00  0.00    +0.000 A 
ENDBRANCH  23  29
ENDBRANCH  19  23
ENDBRANCH   1  19
TORSDOF 7
ENDMDL
MODEL 9
REMARK VINA RESULT:      -8.2      4.841      9.245
REMARK  Name = 
REMARK  8 active torsions:
REMARK  status: ('A' for Active; 'I' for Inactive)
REMARK    1  A    between atoms: C_1  and  N_2
REMARK    2  A    between atoms: C_6  and  C_7
REMARK    3  A    between atoms: C_7  and  C_8
REMARK    4  A    between atoms: C_8  and  C_9
REMARK    5  A    between atoms: C_13  and  N_14
REMARK    6  A    between atoms: C_17  and  C_18
REMARK    7  A    between atoms: C_18  and  C_19
REMARK    8  A    between atoms: C_19  and  C_20
REMARK                            x       y       z     vdW  Elec       q    Type
REMARK                         _______ _______ _______ _____ _____    ______ ____
ROOT
ATOM      1  C   UNL     1       1.612   7.277  20.517  0.00  0.00    +0.000 A 
ATOM      2  C   UNL     1       1.163   6.048  21.028  0.00  0.00    +0.000 A 
ATOM      3  C   UNL     1       1.682   4.837  20.569  0.00  0.00    +0.000 A 
ATOM      4  C   UNL     1       2.673   4.825  19.587  0.00  0.00    +0.000 A 
ATOM      5  C   UNL     1       3.181   6.019  19.073  0.00  0.00    +0.000 A 
ATOM      6  C   UNL     1       2.660   7.219  19.577  0.00  0.00    +0.000 A 
ENDROOT
BRANCH   5   7
ATOM      7  N   UNL     1       4.151   6.057  18.038  0.00  0.00    +0.000 N 
ATOM      8  C   UNL     1       4.117   7.052  16.995  0.00  0.00    +0.000 C 
ATOM      9  C   UNL     1       5.194   6.591  16.086  0.00  0.00    +0.000 C 
ATOM     10  C   UNL     1       5.811   5.498  16.541  0.00  0.00    +0.000 C 
ATOM     11  C   UNL     1       5.192   5.151  17.836  0.00  0.00    +0.000 C 
ATOM     12  O   UNL     1       5.569   4.218  18.518  0.00  0.00    +0.000 OA
BRANCH  10  13
ATOM     13  C   UNL     1       6.908   4.711  15.915  0.00  0.00    +0.000 C 
BRANCH  13  14
ATOM     14  C   UNL     1       6.391   3.554  15.062  0.00  0.00    +0.000 C 
BRANCH  14  15
ATOM     15  C   UNL     1       6.216   3.957  13.612  0.00  0.00    +0.000 C 
ATOM     16  F   UNL     1       7.010   4.990  13.261  0.00  0.00    +0.000 F 
ATOM     17  F   UNL     1       6.495   2.927  12.784  0.00  0.00    +0.000 F 
ATOM     18  F   UNL     1       4.938   4.330  13.375  0.00  0.00    +0.000 F 
ENDBRANCH  14  15
ENDBRANCH  13  14
ENDBRANCH  10  13
ENDBRANCH   5   7
BRANCH   1  19
ATOM     19  C   UNL     1       0.942   8.685  20.906  0.00  0.00    +0.000 C 
ATOM     20  C   UNL     1      -0.457   8.639  21.597  0.00  0.00    +0.000 C 
ATOM     21  O   UNL     1       0.072   9.131  22.845  0.00  0.00    +0.000 OA
ATOM     22  C   UNL     1       1.388   9.272  22.278  0.00  0.00    +0.000 C 
BRANCH  19  23
ATOM     23  C   UNL     1       1.068   9.697  19.750  0.00  0.00    +0.000 C 
BRANCH  23  29
ATOM     24  C   UNL     1       0.280  12.468  21.111  0.00  0.00    +0.000 C 
ATOM     25  N   UNL     1      -0.481  11.707  20.157  0.00  0.00    +0.000 N 
ATOM     26  C   UNL     1      -1.720  12.052  19.704  0.00  0.00    +0.000 A 
ATOM     27  N   UNL     1      -2.131  11.163  18.833  0.00  0.00    +0.000 NA
ATOM     28  N   UNL     1      -1.155  10.205  18.726  0.00  0.00    +0.000 NA
ATOM     29  C   UNL     1      -0.159  10.526  19.531  0.00  0.00    +0.000 A 
ENDBRANCH  23  29
ENDBRANCH  19  23
ENDBRANCH   1  19
TORSDOF 7
ENDMDL
