MODEL 1
REMARK VINA RESULT:      -8.6      0.000      0.000
REMARK  Name = 
REMARK  2 active torsions:
REMARK  status: ('A' for Active; 'I' for Inactive)
REMARK    1  A    between atoms: C_2  and  C_3
REMARK    2  A    between atoms: C_3  and  C_4
REMARK                            x       y       z     vdW  Elec       q    Type
REMARK                         _______ _______ _______ _____ _____    ______ ____
ROOT
ATOM      1  O   UNL     1       7.794   4.735  15.679  0.00  0.00    +0.000 OA
ATOM      2  C   UNL     1       6.566   4.760  15.774  0.00  0.00    +0.000 C 
ATOM      3  N   UNL     1       5.929   4.644  16.990  0.00  0.00    +0.000 N 
ATOM      4  C   UNL     1       6.661   4.639  18.235  0.00  0.00    +0.000 C 
ATOM      5  C   UNL     1       5.673   5.210  19.251  0.00  0.00    +0.000 C 
ATOM      6  C   UNL     1       4.282   4.991  18.631  0.00  0.00    +0.000 C 
ATOM      7  C   UNL     1       4.522   4.395  17.245  0.00  0.00    +0.000 C 
ATOM      8  C   UNL     1       3.527   6.329  18.439  0.00  0.00    +0.000 C 
ATOM      9  O   UNL     1       3.893   7.300  17.798  0.00  0.00    +0.000 OA
ATOM     10  N   UNL     1       2.317   6.224  19.110  0.00  0.00    +0.000 N 
ATOM     11  C   UNL     1       2.193   4.999  19.742  0.00  0.00    +0.000 A 
ATOM     12  C   UNL     1       1.142   4.566  20.519  0.00  0.00    +0.000 A 
ATOM     13  C   UNL     1       1.245   3.293  21.081  0.00  0.00    +0.000 A 
ATOM     14  C   UNL     1       2.380   2.494  20.848  0.00  0.00    +0.000 A 
ATOM     15  C   UNL     1       3.430   2.953  20.047  0.00  0.00    +0.000 A 
ATOM     16  C   UNL     1       3.324   4.219  19.497  0.00  0.00    +0.000 A 
ATOM     17  H   UNL     1       1.638   6.970  19.129  0.00  0.00    +0.000 HD
ENDROOT
BRANCH   2  18
ATOM     18  C   UNL     1       5.700   4.964  14.541  0.00  0.00    +0.000 C 
BRANCH  18  19
ATOM     19  C   UNL     1       6.166   4.194  13.336  0.00  0.00    +0.000 A 
ATOM     20  C   UNL     1       5.520   3.009  12.953  0.00  0.00    +0.000 A 
ATOM     21  C   UNL     1       5.991   2.283  11.861  0.00  0.00    +0.000 A 
ATOM     22  F   UNL     1       5.371   1.149  11.508  0.00  0.00    +0.000 F 
ATOM     23  C   UNL     1       7.098   2.707  11.136  0.00  0.00    +0.000 A 
ATOM     24  C   UNL     1       7.745   3.886  11.505  0.00  0.00    +0.000 A 
ATOM     25  C   UNL     1       7.276   4.617  12.595  0.00  0.00    +0.000 A 
ATOM     26  F   UNL     1       7.917   5.745  12.931  0.00  0.00    +0.000 F 
ENDBRANCH  18  19
ENDBRANCH   2  18
TORSDOF 2
ENDMDL
MODEL 2
REMARK VINA RESULT:      -8.6      1.776      2.232
REMARK  Name = 
REMARK  2 active torsions:
REMARK  status: ('A' for Active; 'I' for Inactive)
REMARK    1  A    between atoms: C_2  and  C_3
REMARK    2  A    between atoms: C_3  and  C_4
REMARK                            x       y       z     vdW  Elec       q    Type
REMARK                         _______ _______ _______ _____ _____    ______ ____
ROOT
ATOM      1  O   UNL     1       6.037   7.014  15.946  0.00  0.00    +0.000 OA
ATOM      2  C   UNL     1       5.805   5.880  16.367  0.00  0.00    +0.000 C 
ATOM      3  N   UNL     1       4.764   5.624  17.230  0.00  0.00    +0.000 N 
ATOM      4  C   UNL     1       3.792   6.637  17.573  0.00  0.00    +0.000 C 
ATOM      5  C   UNL     1       2.524   5.846  17.890  0.00  0.00    +0.000 C 
ATOM      6  C   UNL     1       3.007   4.426  18.235  0.00  0.00    +0.000 C 
ATOM      7  C   UNL     1       4.518   4.424  18.009  0.00  0.00    +0.000 C 
ATOM      8  C   UNL     1       2.392   3.370  17.286  0.00  0.00    +0.000 C 
ATOM      9  O   UNL     1       2.474   3.329  16.070  0.00  0.00    +0.000 OA
ATOM     10  N   UNL     1       1.741   2.431  18.075  0.00  0.00    +0.000 N 
ATOM     11  C   UNL     1       1.827   2.752  19.419  0.00  0.00    +0.000 A 
ATOM     12  C   UNL     1       1.274   2.064  20.476  0.00  0.00    +0.000 A 
ATOM     13  C   UNL     1       1.469   2.591  21.753  0.00  0.00    +0.000 A 
ATOM     14  C   UNL     1       2.208   3.774  21.938  0.00  0.00    +0.000 A 
ATOM     15  C   UNL     1       2.767   4.450  20.848  0.00  0.00    +0.000 A 
ATOM     16  C   UNL     1       2.565   3.925  19.583  0.00  0.00    +0.000 A 
ATOM     17  H   UNL     1       1.263   1.631  17.688  0.00  0.00    +0.000 HD
ENDROOT
BRANCH   2  18
ATOM     18  C   UNL     1       6.648   4.699  15.909  0.00  0.00    +0.000 C 
BRANCH  18  19
ATOM     19  C   UNL     1       6.626   4.477  14.422  0.00  0.00    +0.000 A 
ATOM     20  C   UNL     1       5.644   3.664  13.836  0.00  0.00    +0.000 A 
ATOM     21  C   UNL     1       5.663   3.431  12.463  0.00  0.00    +0.000 A 
ATOM     22  F   UNL     1       4.724   2.648  11.915  0.00  0.00    +0.000 F 
ATOM     23  C   UNL     1       6.643   3.989  11.651  0.00  0.00    +0.000 A 
ATOM     24  C   UNL     1       7.622   4.802  12.221  0.00  0.00    +0.000 A 
ATOM     25  C   UNL     1       7.605   5.040  13.594  0.00  0.00    +0.000 A 
ATOM     26  F   UNL     1       8.558   5.822  14.119  0.00  0.00    +0.000 F 
ENDBRANCH  18  19
ENDBRANCH   2  18
TORSDOF 2
ENDMDL
MODEL 3
REMARK VINA RESULT:      -8.6      1.902      2.811
REMARK  Name = 
REMARK  2 active torsions:
REMARK  status: ('A' for Active; 'I' for Inactive)
REMARK    1  A    between atoms: C_2  and  C_3
REMARK    2  A    between atoms: C_3  and  C_4
REMARK                            x       y       z     vdW  Elec       q    Type
REMARK                         _______ _______ _______ _____ _____    ______ ____
ROOT
ATOM      1  O   UNL     1       6.564   7.439  16.572  0.00  0.00    +0.000 OA
ATOM      2  C   UNL     1       6.305   6.274  16.880  0.00  0.00    +0.000 C 
ATOM      3  N   UNL     1       5.174   5.946  17.593  0.00  0.00    +0.000 N 
ATOM      4  C   UNL     1       4.150   6.922  17.888  0.00  0.00    +0.000 C 
ATOM      5  C   UNL     1       2.868   6.099  17.995  0.00  0.00    +0.000 C 
ATOM      6  C   UNL     1       3.333   4.662  18.293  0.00  0.00    +0.000 C 
ATOM      7  C   UNL     1       4.860   4.691  18.250  0.00  0.00    +0.000 C 
ATOM      8  C   UNL     1       2.854   3.671  17.205  0.00  0.00    +0.000 C 
ATOM      9  O   UNL     1       3.079   3.721  16.008  0.00  0.00    +0.000 OA
ATOM     10  N   UNL     1       2.131   2.672  17.841  0.00  0.00    +0.000 N 
ATOM     11  C   UNL     1       2.052   2.895  19.205  0.00  0.00    +0.000 A 
ATOM     12  C   UNL     1       1.391   2.126  20.137  0.00  0.00    +0.000 A 
ATOM     13  C   UNL     1       1.424   2.560  21.463  0.00  0.00    +0.000 A 
ATOM     14  C   UNL     1       2.114   3.734  21.818  0.00  0.00    +0.000 A 
ATOM     15  C   UNL     1       2.786   4.492  20.854  0.00  0.00    +0.000 A 
ATOM     16  C   UNL     1       2.744   4.059  19.540  0.00  0.00    +0.000 A 
ATOM     17  H   UNL     1       1.717   1.898  17.344  0.00  0.00    +0.000 HD
ENDROOT
BRANCH   2  18
ATOM     18  C   UNL     1       7.218   5.139  16.443  0.00  0.00    +0.000 C 
BRANCH  18  19
ATOM     19  C   UNL     1       7.082   4.775  14.990  0.00  0.00    +0.000 A 
ATOM     20  C   UNL     1       7.705   5.549  14.000  0.00  0.00    +0.000 A 
ATOM     21  C   UNL     1       7.534   5.226  12.655  0.00  0.00    +0.000 A 
ATOM     22  F   UNL     1       8.128   5.977  11.717  0.00  0.00    +0.000 F 
ATOM     23  C   UNL     1       6.753   4.145  12.268  0.00  0.00    +0.000 A 
ATOM     24  C   UNL     1       6.133   3.365  13.243  0.00  0.00    +0.000 A 
ATOM     25  C   UNL     1       6.303   3.683  14.589  0.00  0.00    +0.000 A 
ATOM     26  F   UNL     1       5.695   2.920  15.508  0.00  0.00    +0.000 F 
ENDBRANCH  18  19
ENDBRANCH   2  18
TORSDOF 2
ENDMDL
MODEL 4
REMARK VINA RESULT:      -7.7      0.995      2.079
REMARK  Name = 
REMARK  2 active torsions:
REMARK  status: ('A' for Active; 'I' for Inactive)
REMARK    1  A    between atoms: C_2  and  C_3
REMARK    2  A    between atoms: C_3  and  C_4
REMARK                            x       y       z     vdW  Elec       q    Type
REMARK                         _______ _______ _______ _____ _____    ______ ____
ROOT
ATOM      1  O   UNL     1       7.824   4.447  16.276  0.00  0.00    +0.000 OA
ATOM      2  C   UNL     1       6.625   4.166  16.308  0.00  0.00    +0.000 C 
ATOM      3  N   UNL     1       5.895   4.228  17.474  0.00  0.00    +0.000 N 
ATOM      4  C   UNL     1       6.451   4.771  18.692  0.00  0.00    +0.000 C 
ATOM      5  C   UNL     1       5.240   5.316  19.446  0.00  0.00    +0.000 C 
ATOM      6  C   UNL     1       4.028   4.566  18.863  0.00  0.00    +0.000 C 
ATOM      7  C   UNL     1       4.572   3.692  17.734  0.00  0.00    +0.000 C 
ATOM      8  C   UNL     1       2.998   5.541  18.245  0.00  0.00    +0.000 C 
ATOM      9  O   UNL     1       3.189   6.354  17.356  0.00  0.00    +0.000 OA
ATOM     10  N   UNL     1       1.779   5.308  18.865  0.00  0.00    +0.000 N 
ATOM     11  C   UNL     1       1.884   4.322  19.832  0.00  0.00    +0.000 A 
ATOM     12  C   UNL     1       0.886   3.858  20.660  0.00  0.00    +0.000 A 
ATOM     13  C   UNL     1       1.229   2.871  21.584  0.00  0.00    +0.000 A 
ATOM     14  C   UNL     1       2.544   2.375  21.651  0.00  0.00    +0.000 A 
ATOM     15  C   UNL     1       3.538   2.856  20.793  0.00  0.00    +0.000 A 
ATOM     16  C   UNL     1       3.192   3.840  19.882  0.00  0.00    +0.000 A 
ATOM     17  H   UNL     1       0.941   5.817  18.629  0.00  0.00    +0.000 HD
ENDROOT
BRANCH   2  18
ATOM     18  C   UNL     1       5.889   3.774  15.036  0.00  0.00    +0.000 C 
BRANCH  18  19
ATOM     19  C   UNL     1       6.595   4.189  13.773  0.00  0.00    +0.000 A 
ATOM     20  C   UNL     1       7.542   5.223  13.792  0.00  0.00    +0.000 A 
ATOM     21  C   UNL     1       8.155   5.626  12.608  0.00  0.00    +0.000 A 
ATOM     22  F   UNL     1       9.053   6.620  12.636  0.00  0.00    +0.000 F 
ATOM     23  C   UNL     1       7.845   5.023  11.395  0.00  0.00    +0.000 A 
ATOM     24  C   UNL     1       6.909   3.990  11.365  0.00  0.00    +0.000 A 
ATOM     25  C   UNL     1       6.296   3.582  12.548  0.00  0.00    +0.000 A 
ATOM     26  F   UNL     1       5.397   2.590  12.492  0.00  0.00    +0.000 F 
ENDBRANCH  18  19
ENDBRANCH   2  18
TORSDOF 2
ENDMDL
MODEL 5
REMARK VINA RESULT:      -7.4      5.604      8.342
REMARK  Name = 
REMARK  2 active torsions:
REMARK  status: ('A' for Active; 'I' for Inactive)
REMARK    1  A    between atoms: C_2  and  C_3
REMARK    2  A    between atoms: C_3  and  C_4
REMARK                            x       y       z     vdW  Elec       q    Type
REMARK                         _______ _______ _______ _____ _____    ______ ____
ROOT
ATOM      1  O   UNL     1       2.539  10.232  17.396  0.00  0.00    +0.000 OA
ATOM      2  C   UNL     1       1.790   9.336  17.789  0.00  0.00    +0.000 C 
ATOM      3  N   UNL     1       2.242   8.053  18.000  0.00  0.00    +0.000 N 
ATOM      4  C   UNL     1       3.645   7.716  17.922  0.00  0.00    +0.000 C 
ATOM      5  C   UNL     1       3.797   6.525  18.866  0.00  0.00    +0.000 C 
ATOM      6  C   UNL     1       2.385   5.927  18.995  0.00  0.00    +0.000 C 
ATOM      7  C   UNL     1       1.458   6.848  18.204  0.00  0.00    +0.000 C 
ATOM      8  C   UNL     1       1.899   5.926  20.464  0.00  0.00    +0.000 C 
ATOM      9  O   UNL     1       1.789   6.886  21.208  0.00  0.00    +0.000 OA
ATOM     10  N   UNL     1       1.569   4.619  20.793  0.00  0.00    +0.000 N 
ATOM     11  C   UNL     1       1.803   3.757  19.736  0.00  0.00    +0.000 A 
ATOM     12  C   UNL     1       1.618   2.392  19.718  0.00  0.00    +0.000 A 
ATOM     13  C   UNL     1       1.947   1.718  18.542  0.00  0.00    +0.000 A 
ATOM     14  C   UNL     1       2.441   2.419  17.425  0.00  0.00    +0.000 A 
ATOM     15  C   UNL     1       2.610   3.807  17.465  0.00  0.00    +0.000 A 
ATOM     16  C   UNL     1       2.287   4.468  18.638  0.00  0.00    +0.000 A 
ATOM     17  H   UNL     1       1.217   4.358  21.702  0.00  0.00    +0.000 HD
ENDROOT
BRANCH   2  18
ATOM     18  C   UNL     1       0.331   9.630  18.098  0.00  0.00    +0.000 C 
BRANCH  18  19
ATOM     19  C   UNL     1       0.111  10.285  19.435  0.00  0.00    +0.000 A 
ATOM     20  C   UNL     1      -0.148   9.510  20.574  0.00  0.00    +0.000 A 
ATOM     21  C   UNL     1      -0.393  10.132  21.797  0.00  0.00    +0.000 A 
ATOM     22  F   UNL     1      -0.647   9.382  22.878  0.00  0.00    +0.000 F 
ATOM     23  C   UNL     1      -0.388  11.516  21.915  0.00  0.00    +0.000 A 
ATOM     24  C   UNL     1      -0.127  12.297  20.789  0.00  0.00    +0.000 A 
ATOM     25  C   UNL     1       0.121  11.679  19.565  0.00  0.00    +0.000 A 
ATOM     26  F   UNL     1       0.367  12.451  18.498  0.00  0.00    +0.000 F 
ENDBRANCH  18  19
ENDBRANCH   2  18
TORSDOF 2
ENDMDL
MODEL 6
REMARK VINA RESULT:      -7.4     10.182     13.063
REMARK  Name = 
REMARK  2 active torsions:
REMARK  status: ('A' for Active; 'I' for Inactive)
REMARK    1  A    between atoms: C_2  and  C_3
REMARK    2  A    between atoms: C_3  and  C_4
REMARK                            x       y       z     vdW  Elec       q    Type
REMARK                         _______ _______ _______ _____ _____    ______ ____
ROOT
ATOM      1  O   UNL     1      -4.102  12.239  23.320  0.00  0.00    +0.000 OA
ATOM      2  C   UNL     1      -3.665  12.665  22.250  0.00  0.00    +0.000 C 
ATOM      3  N   UNL     1      -2.343  12.518  21.895  0.00  0.00    +0.000 N 
ATOM      4  C   UNL     1      -1.427  11.726  22.682  0.00  0.00    +0.000 C 
ATOM      5  C   UNL     1      -0.395  11.232  21.670  0.00  0.00    +0.000 C 
ATOM      6  C   UNL     1      -0.483  12.215  20.488  0.00  0.00    +0.000 C 
ATOM      7  C   UNL     1      -1.625  13.175  20.818  0.00  0.00    +0.000 C 
ATOM      8  C   UNL     1      -0.848  11.490  19.171  0.00  0.00    +0.000 C 
ATOM      9  O   UNL     1      -1.834  10.807  18.950  0.00  0.00    +0.000 OA
ATOM     10  N   UNL     1       0.145  11.780  18.247  0.00  0.00    +0.000 N 
ATOM     11  C   UNL     1       1.130  12.582  18.797  0.00  0.00    +0.000 A 
ATOM     12  C   UNL     1       2.274  13.037  18.181  0.00  0.00    +0.000 A 
ATOM     13  C   UNL     1       3.144  13.816  18.944  0.00  0.00    +0.000 A 
ATOM     14  C   UNL     1       2.848  14.121  20.285  0.00  0.00    +0.000 A 
ATOM     15  C   UNL     1       1.675  13.654  20.886  0.00  0.00    +0.000 A 
ATOM     16  C   UNL     1       0.819  12.877  20.125  0.00  0.00    +0.000 A 
ATOM     17  H   UNL     1       0.130  11.427  17.301  0.00  0.00    +0.000 HD
ENDROOT
BRANCH   2  18
ATOM     18  C   UNL     1      -4.593  13.341  21.252  0.00  0.00    +0.000 C 
BRANCH  18  19
ATOM     19  C   UNL     1      -5.339  12.381  20.367  0.00  0.00    +0.000 A 
ATOM     20  C   UNL     1      -4.870  12.086  19.078  0.00  0.00    +0.000 A 
ATOM     21  C   UNL     1      -5.596  11.229  18.254  0.00  0.00    +0.000 A 
ATOM     22  F   UNL     1      -5.142  10.961  17.022  0.00  0.00    +0.000 F 
ATOM     23  C   UNL     1      -6.786  10.654  18.682  0.00  0.00    +0.000 A 
ATOM     24  C   UNL     1      -7.259  10.935  19.963  0.00  0.00    +0.000 A 
ATOM     25  C   UNL     1      -6.535  11.790  20.792  0.00  0.00    +0.000 A 
ATOM     26  F   UNL     1      -7.012  12.047  22.018  0.00  0.00    +0.000 F 
ENDBRANCH  18  19
ENDBRANCH   2  18
TORSDOF 2
ENDMDL
MODEL 7
REMARK VINA RESULT:      -7.3      8.839     12.142
REMARK  Name = 
REMARK  2 active torsions:
REMARK  status: ('A' for Active; 'I' for Inactive)
REMARK    1  A    between atoms: C_2  and  C_3
REMARK    2  A    between atoms: C_3  and  C_4
REMARK                            x       y       z     vdW  Elec       q    Type
REMARK                         _______ _______ _______ _____ _____    ______ ____
ROOT
ATOM      1  O   UNL     1      -2.755  14.562  20.617  0.00  0.00    +0.000 OA
ATOM      2  C   UNL     1      -2.673  13.335  20.699  0.00  0.00    +0.000 C 
ATOM      3  N   UNL     1      -1.503  12.665  20.419  0.00  0.00    +0.000 N 
ATOM      4  C   UNL     1      -0.266  13.367  20.162  0.00  0.00    +0.000 C 
ATOM      5  C   UNL     1       0.819  12.391  20.612  0.00  0.00    +0.000 C 
ATOM      6  C   UNL     1       0.153  11.003  20.584  0.00  0.00    +0.000 C 
ATOM      7  C   UNL     1      -1.311  11.241  20.215  0.00  0.00    +0.000 C 
ATOM      8  C   UNL     1       0.180  10.330  21.977  0.00  0.00    +0.000 C 
ATOM      9  O   UNL     1      -0.284  10.764  23.018  0.00  0.00    +0.000 OA
ATOM     10  N   UNL     1       0.808   9.102  21.834  0.00  0.00    +0.000 N 
ATOM     11  C   UNL     1       1.222   8.894  20.529  0.00  0.00    +0.000 A 
ATOM     12  C   UNL     1       1.902   7.803  20.035  0.00  0.00    +0.000 A 
ATOM     13  C   UNL     1       2.242   7.821  18.682  0.00  0.00    +0.000 A 
ATOM     14  C   UNL     1       1.892   8.913  17.867  0.00  0.00    +0.000 A 
ATOM     15  C   UNL     1       1.193  10.006  18.391  0.00  0.00    +0.000 A 
ATOM     16  C   UNL     1       0.864   9.984  19.735  0.00  0.00    +0.000 A 
ATOM     17  H   UNL     1       0.944   8.465  22.605  0.00  0.00    +0.000 HD
ENDROOT
BRANCH   2  18
ATOM     18  C   UNL     1      -3.865  12.510  21.159  0.00  0.00    +0.000 C 
BRANCH  18  19
ATOM     19  C   UNL     1      -4.903  12.294  20.091  0.00  0.00    +0.000 A 
ATOM     20  C   UNL     1      -4.521  11.997  18.775  0.00  0.00    +0.000 A 
ATOM     21  C   UNL     1      -5.492  11.843  17.788  0.00  0.00    +0.000 A 
ATOM     22  F   UNL     1      -5.115  11.566  16.532  0.00  0.00    +0.000 F 
ATOM     23  C   UNL     1      -6.843  11.981  18.079  0.00  0.00    +0.000 A 
ATOM     24  C   UNL     1      -7.235  12.272  19.385  0.00  0.00    +0.000 A 
ATOM     25  C   UNL     1      -6.267  12.424  20.376  0.00  0.00    +0.000 A 
ATOM     26  F   UNL     1      -6.669  12.706  21.623  0.00  0.00    +0.000 F 
ENDBRANCH  18  19
ENDBRANCH   2  18
TORSDOF 2
ENDMDL
MODEL 8
REMARK VINA RESULT:      -7.2      6.769      9.022
REMARK  Name = 
REMARK  2 active torsions:
REMARK  status: ('A' for Active; 'I' for Inactive)
REMARK    1  A    between atoms: C_2  and  C_3
REMARK    2  A    between atoms: C_3  and  C_4
REMARK                            x       y       z     vdW  Elec       q    Type
REMARK                         _______ _______ _______ _____ _____    ______ ____
ROOT
ATOM      1  O   UNL     1       2.677  10.606  18.127  0.00  0.00    +0.000 OA
ATOM      2  C   UNL     1       1.521  10.221  18.310  0.00  0.00    +0.000 C 
ATOM      3  N   UNL     1       0.527  11.079  18.725  0.00  0.00    +0.000 N 
ATOM      4  C   UNL     1       0.743  12.504  18.823  0.00  0.00    +0.000 C 
ATOM      5  C   UNL     1      -0.640  13.109  18.590  0.00  0.00    +0.000 C 
ATOM      6  C   UNL     1      -1.636  11.982  18.916  0.00  0.00    +0.000 C 
ATOM      7  C   UNL     1      -0.793  10.746  19.228  0.00  0.00    +0.000 C 
ATOM      8  C   UNL     1      -2.529  11.642  17.699  0.00  0.00    +0.000 C 
ATOM      9  O   UNL     1      -2.166  11.288  16.590  0.00  0.00    +0.000 OA
ATOM     10  N   UNL     1      -3.850  11.780  18.100  0.00  0.00    +0.000 N 
ATOM     11  C   UNL     1      -3.938  12.194  19.418  0.00  0.00    +0.000 A 
ATOM     12  C   UNL     1      -5.085  12.460  20.133  0.00  0.00    +0.000 A 
ATOM     13  C   UNL     1      -4.930  12.894  21.450  0.00  0.00    +0.000 A 
ATOM     14  C   UNL     1      -3.649  13.042  22.013  0.00  0.00    +0.000 A 
ATOM     15  C   UNL     1      -2.500  12.757  21.269  0.00  0.00    +0.000 A 
ATOM     16  C   UNL     1      -2.660  12.333  19.961  0.00  0.00    +0.000 A 
ATOM     17  H   UNL     1      -4.629  11.606  17.483  0.00  0.00    +0.000 HD
ENDROOT
BRANCH   2  18
ATOM     18  C   UNL     1       1.137   8.775  18.040  0.00  0.00    +0.000 C 
BRANCH  18  19
ATOM     19  C   UNL     1       2.273   7.803  18.205  0.00  0.00    +0.000 A 
ATOM     20  C   UNL     1       3.226   7.640  17.189  0.00  0.00    +0.000 A 
ATOM     21  C   UNL     1       4.248   6.704  17.338  0.00  0.00    +0.000 A 
ATOM     22  F   UNL     1       5.148   6.552  16.357  0.00  0.00    +0.000 F 
ATOM     23  C   UNL     1       4.345   5.919  18.480  0.00  0.00    +0.000 A 
ATOM     24  C   UNL     1       3.406   6.076  19.499  0.00  0.00    +0.000 A 
ATOM     25  C   UNL     1       2.384   7.013  19.355  0.00  0.00    +0.000 A 
ATOM     26  F   UNL     1       1.493   7.143  20.347  0.00  0.00    +0.000 F 
ENDBRANCH  18  19
ENDBRANCH   2  18
TORSDOF 2
ENDMDL
MODEL 9
REMARK VINA RESULT:      -7.2      1.367      1.747
REMARK  Name = 
REMARK  2 active torsions:
REMARK  status: ('A' for Active; 'I' for Inactive)
REMARK    1  A    between atoms: C_2  and  C_3
REMARK    2  A    between atoms: C_3  and  C_4
REMARK                            x       y       z     vdW  Elec       q    Type
REMARK                         _______ _______ _______ _____ _____    ______ ____
ROOT
ATOM      1  O   UNL     1       7.881   4.793  14.645  0.00  0.00    +0.000 OA
ATOM      2  C   UNL     1       6.671   4.739  14.872  0.00  0.00    +0.000 C 
ATOM      3  N   UNL     1       6.175   4.665  16.154  0.00  0.00    +0.000 N 
ATOM      4  C   UNL     1       7.031   4.801  17.311  0.00  0.00    +0.000 C 
ATOM      5  C   UNL     1       6.114   5.372  18.390  0.00  0.00    +0.000 C 
ATOM      6  C   UNL     1       4.686   5.013  17.940  0.00  0.00    +0.000 C 
ATOM      7  C   UNL     1       4.826   4.338  16.577  0.00  0.00    +0.000 C 
ATOM      8  C   UNL     1       3.815   6.278  17.747  0.00  0.00    +0.000 C 
ATOM      9  O   UNL     1       4.036   7.224  17.010  0.00  0.00    +0.000 OA
ATOM     10  N   UNL     1       2.693   6.137  18.552  0.00  0.00    +0.000 N 
ATOM     11  C   UNL     1       2.730   4.954  19.269  0.00  0.00    +0.000 A 
ATOM     12  C   UNL     1       1.802   4.505  20.183  0.00  0.00    +0.000 A 
ATOM     13  C   UNL     1       2.061   3.286  20.810  0.00  0.00    +0.000 A 
ATOM     14  C   UNL     1       3.223   2.553  20.505  0.00  0.00    +0.000 A 
ATOM     15  C   UNL     1       4.146   3.026  19.567  0.00  0.00    +0.000 A 
ATOM     16  C   UNL     1       3.886   4.239  18.953  0.00  0.00    +0.000 A 
ATOM     17  H   UNL     1       1.964   6.833  18.597  0.00  0.00    +0.000 HD
ENDROOT
BRANCH   2  18
ATOM     18  C   UNL     1       5.668   4.794  13.730  0.00  0.00    +0.000 C 
BRANCH  18  19
ATOM     19  C   UNL     1       5.837   3.693  12.719  0.00  0.00    +0.000 A 
ATOM     20  C   UNL     1       7.116   3.284  12.315  0.00  0.00    +0.000 A 
ATOM     21  C   UNL     1       7.256   2.294  11.345  0.00  0.00    +0.000 A 
ATOM     22  F   UNL     1       8.483   1.916  10.962  0.00  0.00    +0.000 F 
ATOM     23  C   UNL     1       6.146   1.695  10.762  0.00  0.00    +0.000 A 
ATOM     24  C   UNL     1       4.869   2.090  11.159  0.00  0.00    +0.000 A 
ATOM     25  C   UNL     1       4.725   3.078  12.130  0.00  0.00    +0.000 A 
ATOM     26  F   UNL     1       3.487   3.442  12.493  0.00  0.00    +0.000 F 
ENDBRANCH  18  19
ENDBRANCH   2  18
TORSDOF 2
ENDMDL
