MODEL 1
REMARK VINA RESULT:      -8.0      0.000      0.000
REMARK  Name = 
REMARK  4 active torsions:
REMARK  status: ('A' for Active; 'I' for Inactive)
REMARK    1  A    between atoms: C_2  and  O_3
REMARK    2  A    between atoms: C_2  and  C_4
REMARK    3  A    between atoms: C_8  and  S_9
REMARK    4  A    between atoms: S_9  and  N_12
REMARK                            x       y       z     vdW  Elec       q    Type
REMARK                         _______ _______ _______ _____ _____    ______ ____
ROOT
ATOM      1  S   UNL     1      -0.303  12.098  19.637  0.00  0.00    +0.000 S 
ATOM      2  O   UNL     1       0.508  12.470  18.498  0.00  0.00    +0.000 OA
ATOM      3  O   UNL     1      -0.507  13.058  20.706  0.00  0.00    +0.000 OA
ENDROOT
BRANCH   1   4
ATOM      4  N   UNL     1       0.243  10.642  20.336  0.00  0.00    +0.000 N 
ATOM      5  C   UNL     1      -0.509  10.189  21.535  0.00  0.00    +0.000 C 
ATOM      6  C   UNL     1       0.464   9.493  22.468  0.00  0.00    +0.000 C 
ATOM      7  C   UNL     1       1.022   8.251  21.794  0.00  0.00    +0.000 C 
ATOM      8  C   UNL     1       1.392   8.469  20.346  0.00  0.00    +0.000 A 
ATOM      9  C   UNL     1       2.167   7.474  19.721  0.00  0.00    +0.000 A 
ATOM     10  C   UNL     1       2.507   7.594  18.384  0.00  0.00    +0.000 A 
ATOM     11  F   UNL     1       3.252   6.648  17.800  0.00  0.00    +0.000 F 
ATOM     12  C   UNL     1       2.087   8.689  17.650  0.00  0.00    +0.000 A 
ATOM     13  C   UNL     1       1.325   9.689  18.266  0.00  0.00    +0.000 A 
ATOM     14  C   UNL     1       0.946   9.595  19.611  0.00  0.00    +0.000 A 
ENDBRANCH   1   4
BRANCH   1  19
ATOM     15  C   UNL     1      -6.498  11.535  18.708  0.00  0.00    +0.000 C 
ATOM     16  C   UNL     1      -5.615  12.583  19.389  0.00  0.00    +0.000 C 
ATOM     17  C   UNL     1      -4.285  12.025  19.047  0.00  0.00    +0.000 A 
ATOM     18  C   UNL     1      -3.039  12.353  19.546  0.00  0.00    +0.000 A 
ATOM     19  C   UNL     1      -1.927  11.677  19.026  0.00  0.00    +0.000 A 
ATOM     20  C   UNL     1      -2.071  10.753  17.973  0.00  0.00    +0.000 A 
ATOM     21  C   UNL     1      -3.340  10.448  17.473  0.00  0.00    +0.000 A 
ATOM     22  C   UNL     1      -4.425  11.087  18.035  0.00  0.00    +0.000 A 
ATOM     23  O   UNL     1      -5.729  10.877  17.659  0.00  0.00    +0.000 OA
BRANCH  15  25
ATOM     24  O   UNL     1      -7.024  10.588  20.901  0.00  0.00    +0.000 OA
ATOM     25  C   UNL     1      -6.996  10.467  19.685  0.00  0.00    +0.000 C 
BRANCH  25  26
ATOM     26  O   UNL     1      -7.460   9.358  19.054  0.00  0.00    +0.000 OA
ATOM     27  H   UNL     1      -8.333   9.542  18.642  0.00  0.00    +0.000 HD
ENDBRANCH  25  26
ENDBRANCH  15  25
ENDBRANCH   1  19
TORSDOF 4
ENDMDL
MODEL 2
REMARK VINA RESULT:      -7.7      8.342     11.610
REMARK  Name = 
REMARK  4 active torsions:
REMARK  status: ('A' for Active; 'I' for Inactive)
REMARK    1  A    between atoms: C_2  and  O_3
REMARK    2  A    between atoms: C_2  and  C_4
REMARK    3  A    between atoms: C_8  and  S_9
REMARK    4  A    between atoms: S_9  and  N_12
REMARK                            x       y       z     vdW  Elec       q    Type
REMARK                         _______ _______ _______ _____ _____    ______ ____
ROOT
ATOM      1  S   UNL     1       6.589   5.206  17.342  0.00  0.00    +0.000 S 
ATOM      2  O   UNL     1       6.943   3.977  18.019  0.00  0.00    +0.000 OA
ATOM      3  O   UNL     1       7.349   6.411  17.617  0.00  0.00    +0.000 OA
ENDROOT
BRANCH   1   4
ATOM      4  N   UNL     1       4.936   5.570  17.546  0.00  0.00    +0.000 N 
ATOM      5  C   UNL     1       4.495   6.871  16.980  0.00  0.00    +0.000 C 
ATOM      6  C   UNL     1       3.397   7.425  17.868  0.00  0.00    +0.000 C 
ATOM      7  C   UNL     1       2.196   6.495  17.841  0.00  0.00    +0.000 C 
ATOM      8  C   UNL     1       2.567   5.034  17.925  0.00  0.00    +0.000 A 
ATOM      9  C   UNL     1       1.530   4.119  18.187  0.00  0.00    +0.000 A 
ATOM     10  C   UNL     1       1.796   2.761  18.237  0.00  0.00    +0.000 A 
ATOM     11  F   UNL     1       0.805   1.899  18.496  0.00  0.00    +0.000 F 
ATOM     12  C   UNL     1       3.080   2.291  18.029  0.00  0.00    +0.000 A 
ATOM     13  C   UNL     1       4.120   3.194  17.778  0.00  0.00    +0.000 A 
ATOM     14  C   UNL     1       3.888   4.573  17.702  0.00  0.00    +0.000 A 
ENDBRANCH   1   4
BRANCH   1  19
ATOM     15  C   UNL     1       5.898   3.137  11.444  0.00  0.00    +0.000 C 
ATOM     16  C   UNL     1       4.976   3.203  12.663  0.00  0.00    +0.000 C 
ATOM     17  C   UNL     1       5.867   3.943  13.588  0.00  0.00    +0.000 A 
ATOM     18  C   UNL     1       5.747   4.144  14.950  0.00  0.00    +0.000 A 
ATOM     19  C   UNL     1       6.732   4.912  15.587  0.00  0.00    +0.000 A 
ATOM     20  C   UNL     1       7.762   5.523  14.847  0.00  0.00    +0.000 A 
ATOM     21  C   UNL     1       7.854   5.319  13.467  0.00  0.00    +0.000 A 
ATOM     22  C   UNL     1       6.904   4.518  12.869  0.00  0.00    +0.000 A 
ATOM     23  O   UNL     1       6.876   4.214  11.530  0.00  0.00    +0.000 OA
BRANCH  15  25
ATOM     24  O   UNL     1       7.836   1.690  11.084  0.00  0.00    +0.000 OA
ATOM     25  C   UNL     1       6.649   1.807  11.351  0.00  0.00    +0.000 C 
BRANCH  25  26
ATOM     26  O   UNL     1       5.861   0.741  11.646  0.00  0.00    +0.000 OA
ATOM     27  H   UNL     1       6.415  -0.031  11.896  0.00  0.00    +0.000 HD
ENDBRANCH  25  26
ENDBRANCH  15  25
ENDBRANCH   1  19
TORSDOF 4
ENDMDL
MODEL 3
REMARK VINA RESULT:      -7.5      4.117      7.786
REMARK  Name = 
REMARK  4 active torsions:
REMARK  status: ('A' for Active; 'I' for Inactive)
REMARK    1  A    between atoms: C_2  and  O_3
REMARK    2  A    between atoms: C_2  and  C_4
REMARK    3  A    between atoms: C_8  and  S_9
REMARK    4  A    between atoms: S_9  and  N_12
REMARK                            x       y       z     vdW  Elec       q    Type
REMARK                         _______ _______ _______ _____ _____    ______ ____
ROOT
ATOM      1  S   UNL     1       0.624   9.200  21.435  0.00  0.00    +0.000 S 
ATOM      2  O   UNL     1      -0.633   8.550  21.733  0.00  0.00    +0.000 OA
ATOM      3  O   UNL     1       1.553   9.477  22.514  0.00  0.00    +0.000 OA
ENDROOT
BRANCH   1   4
ATOM      4  N   UNL     1       0.381  10.648  20.567  0.00  0.00    +0.000 N 
ATOM      5  C   UNL     1       1.493  11.632  20.644  0.00  0.00    +0.000 C 
ATOM      6  C   UNL     1       0.893  13.025  20.602  0.00  0.00    +0.000 C 
ATOM      7  C   UNL     1       0.193  13.244  19.272  0.00  0.00    +0.000 C 
ATOM      8  C   UNL     1      -0.627  12.058  18.824  0.00  0.00    +0.000 A 
ATOM      9  C   UNL     1      -1.526  12.260  17.760  0.00  0.00    +0.000 A 
ATOM     10  C   UNL     1      -2.279  11.204  17.274  0.00  0.00    +0.000 A 
ATOM     11  F   UNL     1      -3.138  11.408  16.268  0.00  0.00    +0.000 F 
ATOM     12  C   UNL     1      -2.154   9.943  17.828  0.00  0.00    +0.000 A 
ATOM     13  C   UNL     1      -1.270   9.734  18.893  0.00  0.00    +0.000 A 
ATOM     14  C   UNL     1      -0.479  10.772  19.400  0.00  0.00    +0.000 A 
ENDBRANCH   1   4
BRANCH   1  19
ATOM     15  C   UNL     1       3.599   4.483  18.528  0.00  0.00    +0.000 C 
ATOM     16  C   UNL     1       2.572   4.556  19.661  0.00  0.00    +0.000 C 
ATOM     17  C   UNL     1       2.303   6.013  19.636  0.00  0.00    +0.000 A 
ATOM     18  C   UNL     1       1.636   6.800  20.556  0.00  0.00    +0.000 A 
ATOM     19  C   UNL     1       1.501   8.166  20.273  0.00  0.00    +0.000 A 
ATOM     20  C   UNL     1       1.958   8.700  19.053  0.00  0.00    +0.000 A 
ATOM     21  C   UNL     1       2.615   7.882  18.129  0.00  0.00    +0.000 A 
ATOM     22  C   UNL     1       2.784   6.551  18.451  0.00  0.00    +0.000 A 
ATOM     23  O   UNL     1       3.422   5.634  17.653  0.00  0.00    +0.000 OA
BRANCH  15  25
ATOM     24  O   UNL     1       5.740   5.477  19.165  0.00  0.00    +0.000 OA
ATOM     25  C   UNL     1       5.039   4.484  19.045  0.00  0.00    +0.000 C 
BRANCH  25  26
ATOM     26  O   UNL     1       5.464   3.246  19.411  0.00  0.00    +0.000 OA
ATOM     27  H   UNL     1       5.728   3.244  20.357  0.00  0.00    +0.000 HD
ENDBRANCH  25  26
ENDBRANCH  15  25
ENDBRANCH   1  19
TORSDOF 4
ENDMDL
MODEL 4
REMARK VINA RESULT:      -7.5      7.071     10.295
REMARK  Name = 
REMARK  4 active torsions:
REMARK  status: ('A' for Active; 'I' for Inactive)
REMARK    1  A    between atoms: C_2  and  O_3
REMARK    2  A    between atoms: C_2  and  C_4
REMARK    3  A    between atoms: C_8  and  S_9
REMARK    4  A    between atoms: S_9  and  N_12
REMARK                            x       y       z     vdW  Elec       q    Type
REMARK                         _______ _______ _______ _____ _____    ______ ____
ROOT
ATOM      1  S   UNL     1       3.233   2.809  17.605  0.00  0.00    +0.000 S 
ATOM      2  O   UNL     1       2.192   2.956  16.612  0.00  0.00    +0.000 OA
ATOM      3  O   UNL     1       3.806   1.498  17.845  0.00  0.00    +0.000 OA
ENDROOT
BRANCH   1   4
ATOM      4  N   UNL     1       2.748   3.453  19.108  0.00  0.00    +0.000 N 
ATOM      5  C   UNL     1       3.141   2.656  20.299  0.00  0.00    +0.000 C 
ATOM      6  C   UNL     1       2.054   2.807  21.347  0.00  0.00    +0.000 C 
ATOM      7  C   UNL     1       1.963   4.257  21.789  0.00  0.00    +0.000 C 
ATOM      8  C   UNL     1       2.047   5.239  20.645  0.00  0.00    +0.000 A 
ATOM      9  C   UNL     1       1.696   6.575  20.914  0.00  0.00    +0.000 A 
ATOM     10  C   UNL     1       1.788   7.534  19.918  0.00  0.00    +0.000 A 
ATOM     11  F   UNL     1       1.444   8.800  20.181  0.00  0.00    +0.000 F 
ATOM     12  C   UNL     1       2.228   7.188  18.653  0.00  0.00    +0.000 A 
ATOM     13  C   UNL     1       2.569   5.860  18.373  0.00  0.00    +0.000 A 
ATOM     14  C   UNL     1       2.506   4.866  19.357  0.00  0.00    +0.000 A 
ENDBRANCH   1   4
BRANCH   1  19
ATOM     15  C   UNL     1       8.127   6.758  17.490  0.00  0.00    +0.000 C 
ATOM     16  C   UNL     1       7.557   5.800  18.538  0.00  0.00    +0.000 C 
ATOM     17  C   UNL     1       6.497   5.165  17.721  0.00  0.00    +0.000 A 
ATOM     18  C   UNL     1       5.444   4.362  18.117  0.00  0.00    +0.000 A 
ATOM     19  C   UNL     1       4.588   3.867  17.122  0.00  0.00    +0.000 A 
ATOM     20  C   UNL     1       4.843   4.116  15.761  0.00  0.00    +0.000 A 
ATOM     21  C   UNL     1       5.924   4.918  15.382  0.00  0.00    +0.000 A 
ATOM     22  C   UNL     1       6.723   5.437  16.380  0.00  0.00    +0.000 A 
ATOM     23  O   UNL     1       7.806   6.252  16.162  0.00  0.00    +0.000 OA
BRANCH  15  25
ATOM     24  O   UNL     1       6.460   8.526  17.212  0.00  0.00    +0.000 OA
ATOM     25  C   UNL     1       7.557   8.172  17.619  0.00  0.00    +0.000 C 
BRANCH  25  26
ATOM     26  O   UNL     1       8.389   9.012  18.288  0.00  0.00    +0.000 OA
ATOM     27  H   UNL     1       8.966   9.493  17.655  0.00  0.00    +0.000 HD
ENDBRANCH  25  26
ENDBRANCH  15  25
ENDBRANCH   1  19
TORSDOF 4
ENDMDL
MODEL 5
REMARK VINA RESULT:      -7.4      4.713      7.179
REMARK  Name = 
REMARK  4 active torsions:
REMARK  status: ('A' for Active; 'I' for Inactive)
REMARK    1  A    between atoms: C_2  and  O_3
REMARK    2  A    between atoms: C_2  and  C_4
REMARK    3  A    between atoms: C_8  and  S_9
REMARK    4  A    between atoms: S_9  and  N_12
REMARK                            x       y       z     vdW  Elec       q    Type
REMARK                         _______ _______ _______ _____ _____    ______ ____
ROOT
ATOM      1  S   UNL     1       3.135   5.009  18.781  0.00  0.00    +0.000 S 
ATOM      2  O   UNL     1       2.927   4.558  20.140  0.00  0.00    +0.000 OA
ATOM      3  O   UNL     1       2.446   4.334  17.697  0.00  0.00    +0.000 OA
ENDROOT
BRANCH   1   4
ATOM      4  N   UNL     1       4.795   5.062  18.396  0.00  0.00    +0.000 N 
ATOM      5  C   UNL     1       5.721   4.808  19.531  0.00  0.00    +0.000 C 
ATOM      6  C   UNL     1       6.969   5.645  19.318  0.00  0.00    +0.000 C 
ATOM      7  C   UNL     1       7.679   5.197  18.052  0.00  0.00    +0.000 C 
ATOM      8  C   UNL     1       6.740   4.938  16.898  0.00  0.00    +0.000 A 
ATOM      9  C   UNL     1       7.313   4.793  15.621  0.00  0.00    +0.000 A 
ATOM     10  C   UNL     1       6.512   4.515  14.526  0.00  0.00    +0.000 A 
ATOM     11  F   UNL     1       7.064   4.387  13.313  0.00  0.00    +0.000 F 
ATOM     12  C   UNL     1       5.144   4.375  14.677  0.00  0.00    +0.000 A 
ATOM     13  C   UNL     1       4.564   4.529  15.942  0.00  0.00    +0.000 A 
ATOM     14  C   UNL     1       5.342   4.792  17.076  0.00  0.00    +0.000 A 
ENDBRANCH   1   4
BRANCH   1  19
ATOM     15  C   UNL     1       0.584  10.659  19.836  0.00  0.00    +0.000 C 
ATOM     16  C   UNL     1       0.918   9.460  20.726  0.00  0.00    +0.000 C 
ATOM     17  C   UNL     1       1.607   8.613  19.724  0.00  0.00    +0.000 A 
ATOM     18  C   UNL     1       1.967   7.280  19.799  0.00  0.00    +0.000 A 
ATOM     19  C   UNL     1       2.639   6.722  18.702  0.00  0.00    +0.000 A 
ATOM     20  C   UNL     1       3.004   7.516  17.598  0.00  0.00    +0.000 A 
ATOM     21  C   UNL     1       2.643   8.865  17.551  0.00  0.00    +0.000 A 
ATOM     22  C   UNL     1       1.937   9.381  18.618  0.00  0.00    +0.000 A 
ATOM     23  O   UNL     1       1.502  10.681  18.705  0.00  0.00    +0.000 OA
BRANCH  15  25
ATOM     24  O   UNL     1      -1.203   9.972  18.315  0.00  0.00    +0.000 OA
ATOM     25  C   UNL     1      -0.848  10.606  19.297  0.00  0.00    +0.000 C 
BRANCH  25  26
ATOM     26  O   UNL     1      -1.720  11.312  20.062  0.00  0.00    +0.000 OA
ATOM     27  H   UNL     1      -1.610  12.275  19.900  0.00  0.00    +0.000 HD
ENDBRANCH  25  26
ENDBRANCH  15  25
ENDBRANCH   1  19
TORSDOF 4
ENDMDL
MODEL 6
REMARK VINA RESULT:      -7.3      4.527      8.016
REMARK  Name = 
REMARK  4 active torsions:
REMARK  status: ('A' for Active; 'I' for Inactive)
REMARK    1  A    between atoms: C_2  and  O_3
REMARK    2  A    between atoms: C_2  and  C_4
REMARK    3  A    between atoms: C_8  and  S_9
REMARK    4  A    between atoms: S_9  and  N_12
REMARK                            x       y       z     vdW  Elec       q    Type
REMARK                         _______ _______ _______ _____ _____    ______ ____
ROOT
ATOM      1  S   UNL     1       1.466   9.236  18.054  0.00  0.00    +0.000 S 
ATOM      2  O   UNL     1       2.372  10.322  17.749  0.00  0.00    +0.000 OA
ATOM      3  O   UNL     1       0.277   9.054  17.242  0.00  0.00    +0.000 OA
ENDROOT
BRANCH   1   4
ATOM      4  N   UNL     1       0.985   9.273  19.689  0.00  0.00    +0.000 N 
ATOM      5  C   UNL     1       1.791   8.429  20.610  0.00  0.00    +0.000 C 
ATOM      6  C   UNL     1       0.870   7.903  21.695  0.00  0.00    +0.000 C 
ATOM      7  C   UNL     1       0.325   9.062  22.512  0.00  0.00    +0.000 C 
ATOM      8  C   UNL     1      -0.100  10.242  21.671  0.00  0.00    +0.000 A 
ATOM      9  C   UNL     1      -0.867  11.240  22.300  0.00  0.00    +0.000 A 
ATOM     10  C   UNL     1      -1.256  12.367  21.595  0.00  0.00    +0.000 A 
ATOM     11  F   UNL     1      -1.993  13.307  22.199  0.00  0.00    +0.000 F 
ATOM     12  C   UNL     1      -0.892  12.524  20.270  0.00  0.00    +0.000 A 
ATOM     13  C   UNL     1      -0.138  11.531  19.633  0.00  0.00    +0.000 A 
ATOM     14  C   UNL     1       0.289  10.386  20.316  0.00  0.00    +0.000 A 
ENDBRANCH   1   4
BRANCH   1  19
ATOM     15  C   UNL     1       3.354   3.238  18.147  0.00  0.00    +0.000 C 
ATOM     16  C   UNL     1       1.990   3.922  18.033  0.00  0.00    +0.000 C 
ATOM     17  C   UNL     1       2.444   5.331  17.956  0.00  0.00    +0.000 A 
ATOM     18  C   UNL     1       1.711   6.497  18.071  0.00  0.00    +0.000 A 
ATOM     19  C   UNL     1       2.393   7.714  17.932  0.00  0.00    +0.000 A 
ATOM     20  C   UNL     1       3.762   7.742  17.607  0.00  0.00    +0.000 A 
ATOM     21  C   UNL     1       4.480   6.549  17.480  0.00  0.00    +0.000 A 
ATOM     22  C   UNL     1       3.800   5.364  17.671  0.00  0.00    +0.000 A 
ATOM     23  O   UNL     1       4.375   4.119  17.596  0.00  0.00    +0.000 OA
BRANCH  15  25
ATOM     24  O   UNL     1       2.955   2.953  20.543  0.00  0.00    +0.000 OA
ATOM     25  C   UNL     1       3.726   2.914  19.596  0.00  0.00    +0.000 C 
BRANCH  25  26
ATOM     26  O   UNL     1       5.021   2.524  19.728  0.00  0.00    +0.000 OA
ATOM     27  H   UNL     1       5.505   3.148  20.311  0.00  0.00    +0.000 HD
ENDBRANCH  25  26
ENDBRANCH  15  25
ENDBRANCH   1  19
TORSDOF 4
ENDMDL
MODEL 7
REMARK VINA RESULT:      -7.3      4.366      8.094
REMARK  Name = 
REMARK  4 active torsions:
REMARK  status: ('A' for Active; 'I' for Inactive)
REMARK    1  A    between atoms: C_2  and  O_3
REMARK    2  A    between atoms: C_2  and  C_4
REMARK    3  A    between atoms: C_8  and  S_9
REMARK    4  A    between atoms: S_9  and  N_12
REMARK                            x       y       z     vdW  Elec       q    Type
REMARK                         _______ _______ _______ _____ _____    ______ ____
ROOT
ATOM      1  S   UNL     1       0.703   9.242  20.943  0.00  0.00    +0.000 S 
ATOM      2  O   UNL     1      -0.348   8.438  21.530  0.00  0.00    +0.000 OA
ATOM      3  O   UNL     1       1.663   9.897  21.811  0.00  0.00    +0.000 OA
ENDROOT
BRANCH   1   4
ATOM      4  N   UNL     1       0.064  10.416  19.885  0.00  0.00    +0.000 N 
ATOM      5  C   UNL     1      -1.320  10.158  19.407  0.00  0.00    +0.000 C 
ATOM      6  C   UNL     1      -1.436  10.691  17.991  0.00  0.00    +0.000 C 
ATOM      7  C   UNL     1      -1.236  12.196  17.989  0.00  0.00    +0.000 C 
ATOM      8  C   UNL     1      -0.099  12.651  18.873  0.00  0.00    +0.000 A 
ATOM      9  C   UNL     1       0.342  13.979  18.725  0.00  0.00    +0.000 A 
ATOM     10  C   UNL     1       1.355  14.471  19.532  0.00  0.00    +0.000 A 
ATOM     11  F   UNL     1       1.774  15.732  19.379  0.00  0.00    +0.000 F 
ATOM     12  C   UNL     1       1.940  13.663  20.491  0.00  0.00    +0.000 A 
ATOM     13  C   UNL     1       1.515  12.337  20.638  0.00  0.00    +0.000 A 
ATOM     14  C   UNL     1       0.483  11.809  19.853  0.00  0.00    +0.000 A 
ENDBRANCH   1   4
BRANCH   1  19
ATOM     15  C   UNL     1       4.078   4.570  18.428  0.00  0.00    +0.000 C 
ATOM     16  C   UNL     1       3.090   4.661  19.592  0.00  0.00    +0.000 C 
ATOM     17  C   UNL     1       2.660   6.069  19.422  0.00  0.00    +0.000 A 
ATOM     18  C   UNL     1       1.943   6.879  20.283  0.00  0.00    +0.000 A 
ATOM     19  C   UNL     1       1.647   8.182  19.860  0.00  0.00    +0.000 A 
ATOM     20  C   UNL     1       2.001   8.621  18.570  0.00  0.00    +0.000 A 
ATOM     21  C   UNL     1       2.712   7.779  17.710  0.00  0.00    +0.000 A 
ATOM     22  C   UNL     1       3.038   6.518  18.166  0.00  0.00    +0.000 A 
ATOM     23  O   UNL     1       3.746   5.591  17.442  0.00  0.00    +0.000 OA
BRANCH  15  25
ATOM     24  O   UNL     1       5.882   5.527  19.774  0.00  0.00    +0.000 OA
ATOM     25  C   UNL     1       5.527   4.781  18.873  0.00  0.00    +0.000 C 
BRANCH  25  26
ATOM     26  O   UNL     1       6.404   4.006  18.184  0.00  0.00    +0.000 OA
ATOM     27  H   UNL     1       5.968   3.175  17.896  0.00  0.00    +0.000 HD
ENDBRANCH  25  26
ENDBRANCH  15  25
ENDBRANCH   1  19
TORSDOF 4
ENDMDL
MODEL 8
REMARK VINA RESULT:      -7.2      5.483      9.606
REMARK  Name = 
REMARK  4 active torsions:
REMARK  status: ('A' for Active; 'I' for Inactive)
REMARK    1  A    between atoms: C_2  and  O_3
REMARK    2  A    between atoms: C_2  and  C_4
REMARK    3  A    between atoms: C_8  and  S_9
REMARK    4  A    between atoms: S_9  and  N_12
REMARK                            x       y       z     vdW  Elec       q    Type
REMARK                         _______ _______ _______ _____ _____    ______ ____
ROOT
ATOM      1  S   UNL     1       1.940   5.723  20.198  0.00  0.00    +0.000 S 
ATOM      2  O   UNL     1       0.704   4.983  20.072  0.00  0.00    +0.000 OA
ATOM      3  O   UNL     1       2.638   5.728  21.471  0.00  0.00    +0.000 OA
ENDROOT
BRANCH   1   4
ATOM      4  N   UNL     1       1.745   7.342  19.700  0.00  0.00    +0.000 N 
ATOM      5  C   UNL     1       1.758   7.562  18.230  0.00  0.00    +0.000 C 
ATOM      6  C   UNL     1       2.393   8.914  17.962  0.00  0.00    +0.000 C 
ATOM      7  C   UNL     1       1.539  10.013  18.571  0.00  0.00    +0.000 C 
ATOM      8  C   UNL     1       1.032   9.681  19.955  0.00  0.00    +0.000 A 
ATOM      9  C   UNL     1       0.476  10.732  20.707  0.00  0.00    +0.000 A 
ATOM     10  C   UNL     1      -0.043  10.487  21.968  0.00  0.00    +0.000 A 
ATOM     11  F   UNL     1      -0.563  11.493  22.680  0.00  0.00    +0.000 F 
ATOM     12  C   UNL     1      -0.021   9.209  22.497  0.00  0.00    +0.000 A 
ATOM     13  C   UNL     1       0.540   8.160  21.760  0.00  0.00    +0.000 A 
ATOM     14  C   UNL     1       1.059   8.364  20.475  0.00  0.00    +0.000 A 
ENDBRANCH   1   4
BRANCH   1  19
ATOM     15  C   UNL     1       7.014   4.346  16.746  0.00  0.00    +0.000 C 
ATOM     16  C   UNL     1       6.805   4.877  18.166  0.00  0.00    +0.000 C 
ATOM     17  C   UNL     1       5.327   4.785  18.233  0.00  0.00    +0.000 A 
ATOM     18  C   UNL     1       4.455   5.322  19.161  0.00  0.00    +0.000 A 
ATOM     19  C   UNL     1       3.087   5.060  19.001  0.00  0.00    +0.000 A 
ATOM     20  C   UNL     1       2.629   4.211  17.975  0.00  0.00    +0.000 A 
ATOM     21  C   UNL     1       3.532   3.666  17.058  0.00  0.00    +0.000 A 
ATOM     22  C   UNL     1       4.868   3.979  17.203  0.00  0.00    +0.000 A 
ATOM     23  O   UNL     1       5.864   3.532  16.371  0.00  0.00    +0.000 OA
BRANCH  15  25
ATOM     24  O   UNL     1       6.905   5.372  14.529  0.00  0.00    +0.000 OA
ATOM     25  C   UNL     1       7.168   5.469  15.719  0.00  0.00    +0.000 C 
BRANCH  25  26
ATOM     26  O   UNL     1       7.594   6.632  16.277  0.00  0.00    +0.000 OA
ATOM     27  H   UNL     1       7.258   7.399  15.761  0.00  0.00    +0.000 HD
ENDBRANCH  25  26
ENDBRANCH  15  25
ENDBRANCH   1  19
TORSDOF 4
ENDMDL
MODEL 9
REMARK VINA RESULT:      -7.1      3.830      7.458
REMARK  Name = 
REMARK  4 active torsions:
REMARK  status: ('A' for Active; 'I' for Inactive)
REMARK    1  A    between atoms: C_2  and  O_3
REMARK    2  A    between atoms: C_2  and  C_4
REMARK    3  A    between atoms: C_8  and  S_9
REMARK    4  A    between atoms: S_9  and  N_12
REMARK                            x       y       z     vdW  Elec       q    Type
REMARK                         _______ _______ _______ _____ _____    ______ ____
ROOT
ATOM      1  S   UNL     1       0.811  11.110  19.053  0.00  0.00    +0.000 S 
ATOM      2  O   UNL     1       0.871  11.886  20.272  0.00  0.00    +0.000 OA
ATOM      3  O   UNL     1       1.650  11.485  17.931  0.00  0.00    +0.000 OA
ENDROOT
BRANCH   1   4
ATOM      4  N   UNL     1      -0.792  10.971  18.487  0.00  0.00    +0.000 N 
ATOM      5  C   UNL     1      -1.074   9.768  17.661  0.00  0.00    +0.000 C 
ATOM      6  C   UNL     1      -2.110  10.144  16.618  0.00  0.00    +0.000 C 
ATOM      7  C   UNL     1      -3.410  10.533  17.302  0.00  0.00    +0.000 C 
ATOM      8  C   UNL     1      -3.211  11.409  18.516  0.00  0.00    +0.000 A 
ATOM      9  C   UNL     1      -4.349  12.044  19.046  0.00  0.00    +0.000 A 
ATOM     10  C   UNL     1      -4.241  12.831  20.182  0.00  0.00    +0.000 A 
ATOM     11  F   UNL     1      -5.327  13.438  20.674  0.00  0.00    +0.000 F 
ATOM     12  C   UNL     1      -3.018  12.996  20.805  0.00  0.00    +0.000 A 
ATOM     13  C   UNL     1      -1.878  12.376  20.278  0.00  0.00    +0.000 A 
ATOM     14  C   UNL     1      -1.949  11.560  19.143  0.00  0.00    +0.000 A 
ENDBRANCH   1   4
BRANCH   1  19
ATOM     15  C   UNL     1       2.736   5.124  18.948  0.00  0.00    +0.000 C 
ATOM     16  C   UNL     1       3.031   6.351  18.084  0.00  0.00    +0.000 C 
ATOM     17  C   UNL     1       2.287   7.368  18.864  0.00  0.00    +0.000 A 
ATOM     18  C   UNL     1       1.942   8.661  18.518  0.00  0.00    +0.000 A 
ATOM     19  C   UNL     1       1.248   9.428  19.465  0.00  0.00    +0.000 A 
ATOM     20  C   UNL     1       0.985   8.922  20.752  0.00  0.00    +0.000 A 
ATOM     21  C   UNL     1       1.357   7.616  21.084  0.00  0.00    +0.000 A 
ATOM     22  C   UNL     1       1.993   6.862  20.121  0.00  0.00    +0.000 A 
ATOM     23  O   UNL     1       2.401   5.562  20.296  0.00  0.00    +0.000 OA
BRANCH  15  25
ATOM     24  O   UNL     1       1.216   4.262  17.236  0.00  0.00    +0.000 OA
ATOM     25  C   UNL     1       1.570   4.294  18.406  0.00  0.00    +0.000 C 
BRANCH  25  26
ATOM     26  O   UNL     1       0.975   3.539  19.366  0.00  0.00    +0.000 OA
ATOM     27  H   UNL     1       1.655   3.061  19.890  0.00  0.00    +0.000 HD
ENDBRANCH  25  26
ENDBRANCH  15  25
ENDBRANCH   1  19
TORSDOF 4
ENDMDL
