MODEL 1
REMARK VINA RESULT:      -8.6      0.000      0.000
REMARK  Name = 
REMARK  8 active torsions:
REMARK  status: ('A' for Active; 'I' for Inactive)
REMARK    1  A    between atoms: C_2  and  C_3
REMARK    2  A    between atoms: C_7  and  C_8
REMARK    3  A    between atoms: N_14  and  C_15
REMARK    4  A    between atoms: C_19  and  N_20
REMARK    5  A    between atoms: N_20  and  C_21
REMARK    6  A    between atoms: C_21  and  C_22
REMARK    7  A    between atoms: C_22  and  C_23
REMARK    8  A    between atoms: N_27  and  C_28
REMARK                            x       y       z     vdW  Elec       q    Type
REMARK                         _______ _______ _______ _____ _____    ______ ____
ROOT
ATOM      1  C   UNL     1       0.206  11.395  19.478  0.00  0.00    +0.000 A 
ATOM      2  C   UNL     1       0.978  10.466  18.794  0.00  0.00    +0.000 A 
ATOM      3  C   UNL     1       1.291   9.292  19.453  0.00  0.00    +0.000 A 
ATOM      4  C   UNL     1       0.876   8.980  20.745  0.00  0.00    +0.000 A 
ATOM      5  C   UNL     1       0.119   9.913  21.452  0.00  0.00    +0.000 A 
ATOM      6  C   UNL     1      -0.212  11.126  20.795  0.00  0.00    +0.000 A 
ATOM      7  C   UNL     1       1.371   7.602  21.100  0.00  0.00    +0.000 C 
ATOM      8  N   UNL     1       2.088   7.181  19.897  0.00  0.00    +0.000 N 
ATOM      9  C   UNL     1       2.088   8.192  18.933  0.00  0.00    +0.000 C 
ATOM     10  O   UNL     1       2.615   8.269  17.840  0.00  0.00    +0.000 OA
ENDROOT
BRANCH   8  11
ATOM     11  C   UNL     1       2.626   5.875  19.695  0.00  0.00    +0.000 A 
ATOM     12  C   UNL     1       1.802   4.751  19.845  0.00  0.00    +0.000 A 
ATOM     13  C   UNL     1       2.296   3.459  19.724  0.00  0.00    +0.000 A 
ATOM     14  C   UNL     1       3.632   3.265  19.422  0.00  0.00    +0.000 A 
ATOM     15  C   UNL     1       4.483   4.347  19.173  0.00  0.00    +0.000 A 
ATOM     16  C   UNL     1       3.978   5.653  19.366  0.00  0.00    +0.000 A 
BRANCH  15  17
ATOM     17  N   UNL     1       5.826   4.155  18.833  0.00  0.00    +0.000 N 
ATOM     18  H   UNL     1       6.216   3.268  19.143  0.00  0.00    +0.000 HD
BRANCH  17  19
ATOM     19  C   UNL     1       6.786   5.263  18.997  0.00  0.00    +0.000 C 
BRANCH  19  20
ATOM     20  C   UNL     1       7.497   5.646  17.690  0.00  0.00    +0.000 C 
BRANCH  20  21
ATOM     21  C   UNL     1       6.795   5.093  16.500  0.00  0.00    +0.000 A 
ATOM     22  N   UNL     1       7.097   3.964  15.890  0.00  0.00    +0.000 NA
ATOM     23  N   UNL     1       6.232   3.799  14.839  0.00  0.00    +0.000 NA
ATOM     24  C   UNL     1       5.415   4.825  14.832  0.00  0.00    +0.000 A 
ATOM     25  N   UNL     1       5.734   5.670  15.850  0.00  0.00    +0.000 N 
ATOM     26  C   UNL     1       5.070   6.910  16.150  0.00  0.00    +0.000 C 
ENDBRANCH  20  21
ENDBRANCH  19  20
ENDBRANCH  17  19
ENDBRANCH  15  17
ENDBRANCH   8  11
BRANCH   5  27
ATOM     27  C   UNL     1      -0.344   9.702  22.868  0.00  0.00    +0.000 C 
ATOM     28  F   UNL     1      -1.046  10.753  23.372  0.00  0.00    +0.000 F 
ATOM     29  F   UNL     1      -1.158   8.617  22.985  0.00  0.00    +0.000 F 
ATOM     30  F   UNL     1       0.690   9.492  23.727  0.00  0.00    +0.000 F 
ENDBRANCH   5  27
BRANCH   1  32
ATOM     31  C   UNL     1      -0.479  13.654  18.319  0.00  0.00    +0.000 C 
ATOM     32  C   UNL     1      -0.154  12.618  18.832  0.00  0.00    +0.000 C 
ENDBRANCH   1  32
TORSDOF 7
ENDMDL
MODEL 2
REMARK VINA RESULT:      -8.5      1.167      1.822
REMARK  Name = 
REMARK  8 active torsions:
REMARK  status: ('A' for Active; 'I' for Inactive)
REMARK    1  A    between atoms: C_2  and  C_3
REMARK    2  A    between atoms: C_7  and  C_8
REMARK    3  A    between atoms: N_14  and  C_15
REMARK    4  A    between atoms: C_19  and  N_20
REMARK    5  A    between atoms: N_20  and  C_21
REMARK    6  A    between atoms: C_21  and  C_22
REMARK    7  A    between atoms: C_22  and  C_23
REMARK    8  A    between atoms: N_27  and  C_28
REMARK                            x       y       z     vdW  Elec       q    Type
REMARK                         _______ _______ _______ _____ _____    ______ ____
ROOT
ATOM      1  C   UNL     1       0.299  11.340  19.322  0.00  0.00    +0.000 A 
ATOM      2  C   UNL     1       1.086  10.435  18.625  0.00  0.00    +0.000 A 
ATOM      3  C   UNL     1       1.401   9.248  19.258  0.00  0.00    +0.000 A 
ATOM      4  C   UNL     1       0.974   8.901  20.538  0.00  0.00    +0.000 A 
ATOM      5  C   UNL     1       0.203   9.810  21.259  0.00  0.00    +0.000 A 
ATOM      6  C   UNL     1      -0.131  11.036  20.627  0.00  0.00    +0.000 A 
ATOM      7  C   UNL     1       1.477   7.518  20.864  0.00  0.00    +0.000 C 
ATOM      8  N   UNL     1       2.211   7.132  19.659  0.00  0.00    +0.000 N 
ATOM      9  C   UNL     1       2.213   8.167  18.720  0.00  0.00    +0.000 C 
ATOM     10  O   UNL     1       2.750   8.275  17.635  0.00  0.00    +0.000 OA
ENDROOT
BRANCH   8  11
ATOM     11  C   UNL     1       2.762   5.837  19.431  0.00  0.00    +0.000 A 
ATOM     12  C   UNL     1       2.111   4.703  19.940  0.00  0.00    +0.000 A 
ATOM     13  C   UNL     1       2.643   3.429  19.801  0.00  0.00    +0.000 A 
ATOM     14  C   UNL     1       3.836   3.258  19.121  0.00  0.00    +0.000 A 
ATOM     15  C   UNL     1       4.486   4.339  18.516  0.00  0.00    +0.000 A 
ATOM     16  C   UNL     1       3.963   5.636  18.724  0.00  0.00    +0.000 A 
BRANCH  15  17
ATOM     17  N   UNL     1       5.674   4.166  17.797  0.00  0.00    +0.000 N 
ATOM     18  H   UNL     1       6.279   4.985  17.783  0.00  0.00    +0.000 HD
BRANCH  17  19
ATOM     19  C   UNL     1       5.643   3.484  16.490  0.00  0.00    +0.000 C 
BRANCH  19  20
ATOM     20  C   UNL     1       5.235   4.410  15.334  0.00  0.00    +0.000 C 
BRANCH  20  21
ATOM     21  C   UNL     1       6.395   4.750  14.466  0.00  0.00    +0.000 A 
ATOM     22  N   UNL     1       7.380   5.563  14.791  0.00  0.00    +0.000 NA
ATOM     23  N   UNL     1       8.252   5.625  13.735  0.00  0.00    +0.000 NA
ATOM     24  C   UNL     1       7.788   4.843  12.790  0.00  0.00    +0.000 A 
ATOM     25  N   UNL     1       6.619   4.279  13.198  0.00  0.00    +0.000 N 
ATOM     26  C   UNL     1       5.809   3.375  12.424  0.00  0.00    +0.000 C 
ENDBRANCH  20  21
ENDBRANCH  19  20
ENDBRANCH  17  19
ENDBRANCH  15  17
ENDBRANCH   8  11
BRANCH   5  27
ATOM     27  C   UNL     1      -0.274   9.561  22.664  0.00  0.00    +0.000 C 
ATOM     28  F   UNL     1       0.735   9.466  23.571  0.00  0.00    +0.000 F 
ATOM     29  F   UNL     1      -1.089  10.555  23.113  0.00  0.00    +0.000 F 
ATOM     30  F   UNL     1      -0.990   8.409  22.773  0.00  0.00    +0.000 F 
ENDBRANCH   5  27
BRANCH   1  32
ATOM     31  C   UNL     1      -0.406  13.602  18.178  0.00  0.00    +0.000 C 
ATOM     32  C   UNL     1      -0.065  12.577  18.702  0.00  0.00    +0.000 C 
ENDBRANCH   1  32
TORSDOF 7
ENDMDL
MODEL 3
REMARK VINA RESULT:      -8.4      1.439      2.028
REMARK  Name = 
REMARK  8 active torsions:
REMARK  status: ('A' for Active; 'I' for Inactive)
REMARK    1  A    between atoms: C_2  and  C_3
REMARK    2  A    between atoms: C_7  and  C_8
REMARK    3  A    between atoms: N_14  and  C_15
REMARK    4  A    between atoms: C_19  and  N_20
REMARK    5  A    between atoms: N_20  and  C_21
REMARK    6  A    between atoms: C_21  and  C_22
REMARK    7  A    between atoms: C_22  and  C_23
REMARK    8  A    between atoms: N_27  and  C_28
REMARK                            x       y       z     vdW  Elec       q    Type
REMARK                         _______ _______ _______ _____ _____    ______ ____
ROOT
ATOM      1  C   UNL     1       0.977  11.528  19.372  0.00  0.00    +0.000 A 
ATOM      2  C   UNL     1       1.534  10.642  18.461  0.00  0.00    +0.000 A 
ATOM      3  C   UNL     1       1.700   9.332  18.870  0.00  0.00    +0.000 A 
ATOM      4  C   UNL     1       1.339   8.847  20.124  0.00  0.00    +0.000 A 
ATOM      5  C   UNL     1       0.800   9.731  21.057  0.00  0.00    +0.000 A 
ATOM      6  C   UNL     1       0.622  11.081  20.658  0.00  0.00    +0.000 A 
ATOM      7  C   UNL     1       1.628   7.369  20.180  0.00  0.00    +0.000 C 
ATOM      8  N   UNL     1       2.173   7.081  18.855  0.00  0.00    +0.000 N 
ATOM      9  C   UNL     1       2.265   8.244  18.086  0.00  0.00    +0.000 C 
ATOM     10  O   UNL     1       2.713   8.447  16.974  0.00  0.00    +0.000 OA
ENDROOT
BRANCH   8  11
ATOM     11  C   UNL     1       2.475   5.772  18.374  0.00  0.00    +0.000 A 
ATOM     12  C   UNL     1       1.446   4.832  18.219  0.00  0.00    +0.000 A 
ATOM     13  C   UNL     1       1.699   3.528  17.819  0.00  0.00    +0.000 A 
ATOM     14  C   UNL     1       2.997   3.140  17.537  0.00  0.00    +0.000 A 
ATOM     15  C   UNL     1       4.054   4.056  17.588  0.00  0.00    +0.000 A 
ATOM     16  C   UNL     1       3.785   5.361  18.061  0.00  0.00    +0.000 A 
BRANCH  15  17
ATOM     17  N   UNL     1       5.362   3.677  17.271  0.00  0.00    +0.000 N 
ATOM     18  H   UNL     1       6.038   3.835  18.016  0.00  0.00    +0.000 HD
BRANCH  17  19
ATOM     19  C   UNL     1       5.918   4.014  15.947  0.00  0.00    +0.000 C 
BRANCH  19  20
ATOM     20  C   UNL     1       6.934   5.166  15.992  0.00  0.00    +0.000 C 
BRANCH  20  21
ATOM     21  C   UNL     1       7.432   5.405  17.374  0.00  0.00    +0.000 A 
ATOM     22  N   UNL     1       7.790   4.470  18.230  0.00  0.00    +0.000 NA
ATOM     23  N   UNL     1       8.184   5.079  19.393  0.00  0.00    +0.000 NA
ATOM     24  C   UNL     1       8.068   6.374  19.222  0.00  0.00    +0.000 A 
ATOM     25  N   UNL     1       7.590   6.628  17.973  0.00  0.00    +0.000 N 
ATOM     26  C   UNL     1       7.317   7.932  17.429  0.00  0.00    +0.000 C 
ENDBRANCH  20  21
ENDBRANCH  19  20
ENDBRANCH  17  19
ENDBRANCH  15  17
ENDBRANCH   8  11
BRANCH   5  27
ATOM     27  C   UNL     1       0.417   9.328  22.456  0.00  0.00    +0.000 C 
ATOM     28  F   UNL     1      -0.333  10.261  23.103  0.00  0.00    +0.000 F 
ATOM     29  F   UNL     1      -0.313   8.180  22.477  0.00  0.00    +0.000 F 
ATOM     30  F   UNL     1       1.501   9.100  23.246  0.00  0.00    +0.000 F 
ENDBRANCH   5  27
BRANCH   1  32
ATOM     31  C   UNL     1       0.584  14.023  18.636  0.00  0.00    +0.000 C 
ATOM     32  C   UNL     1       0.773  12.891  18.989  0.00  0.00    +0.000 C 
ENDBRANCH   1  32
TORSDOF 7
ENDMDL
MODEL 4
REMARK VINA RESULT:      -8.4      1.460      2.101
REMARK  Name = 
REMARK  8 active torsions:
REMARK  status: ('A' for Active; 'I' for Inactive)
REMARK    1  A    between atoms: C_2  and  C_3
REMARK    2  A    between atoms: C_7  and  C_8
REMARK    3  A    between atoms: N_14  and  C_15
REMARK    4  A    between atoms: C_19  and  N_20
REMARK    5  A    between atoms: N_20  and  C_21
REMARK    6  A    between atoms: C_21  and  C_22
REMARK    7  A    between atoms: C_22  and  C_23
REMARK    8  A    between atoms: N_27  and  C_28
REMARK                            x       y       z     vdW  Elec       q    Type
REMARK                         _______ _______ _______ _____ _____    ______ ____
ROOT
ATOM      1  C   UNL     1      -0.021  11.968  19.768  0.00  0.00    +0.000 A 
ATOM      2  C   UNL     1       0.735  11.208  18.887  0.00  0.00    +0.000 A 
ATOM      3  C   UNL     1       1.129   9.953  19.310  0.00  0.00    +0.000 A 
ATOM      4  C   UNL     1       0.812   9.404  20.550  0.00  0.00    +0.000 A 
ATOM      5  C   UNL     1       0.073  10.165  21.453  0.00  0.00    +0.000 A 
ATOM      6  C   UNL     1      -0.341  11.458  21.039  0.00  0.00    +0.000 A 
ATOM      7  C   UNL     1       1.376   8.008  20.627  0.00  0.00    +0.000 C 
ATOM      8  N   UNL     1       2.025   7.834  19.329  0.00  0.00    +0.000 N 
ATOM      9  C   UNL     1       1.927   8.996  18.558  0.00  0.00    +0.000 C 
ATOM     10  O   UNL     1       2.377   9.284  17.466  0.00  0.00    +0.000 OA
ENDROOT
BRANCH   8  11
ATOM     11  C   UNL     1       2.593   6.609  18.869  0.00  0.00    +0.000 A 
ATOM     12  C   UNL     1       1.960   5.393  19.165  0.00  0.00    +0.000 A 
ATOM     13  C   UNL     1       2.508   4.172  18.797  0.00  0.00    +0.000 A 
ATOM     14  C   UNL     1       3.700   4.143  18.095  0.00  0.00    +0.000 A 
ATOM     15  C   UNL     1       4.333   5.325  17.694  0.00  0.00    +0.000 A 
ATOM     16  C   UNL     1       3.794   6.556  18.135  0.00  0.00    +0.000 A 
BRANCH  15  17
ATOM     17  N   UNL     1       5.520   5.302  16.955  0.00  0.00    +0.000 N 
ATOM     18  H   UNL     1       5.560   5.987  16.203  0.00  0.00    +0.000 HD
BRANCH  17  19
ATOM     19  C   UNL     1       6.103   4.009  16.551  0.00  0.00    +0.000 C 
BRANCH  19  20
ATOM     20  C   UNL     1       5.779   3.627  15.098  0.00  0.00    +0.000 C 
BRANCH  20  21
ATOM     21  C   UNL     1       6.666   4.332  14.134  0.00  0.00    +0.000 A 
ATOM     22  N   UNL     1       7.500   5.307  14.435  0.00  0.00    +0.000 NA
ATOM     23  N   UNL     1       8.135   5.701  13.285  0.00  0.00    +0.000 NA
ATOM     24  C   UNL     1       7.684   4.952  12.306  0.00  0.00    +0.000 A 
ATOM     25  N   UNL     1       6.752   4.085  12.788  0.00  0.00    +0.000 N 
ATOM     26  C   UNL     1       6.025   3.118  12.008  0.00  0.00    +0.000 C 
ENDBRANCH  20  21
ENDBRANCH  19  20
ENDBRANCH  17  19
ENDBRANCH  15  17
ENDBRANCH   8  11
BRANCH   5  27
ATOM     27  C   UNL     1      -0.288   9.692  22.835  0.00  0.00    +0.000 C 
ATOM     28  F   UNL     1      -0.993   8.529  22.844  0.00  0.00    +0.000 F 
ATOM     29  F   UNL     1       0.813   9.469  23.605  0.00  0.00    +0.000 F 
ATOM     30  F   UNL     1      -1.044  10.598  23.513  0.00  0.00    +0.000 F 
ENDBRANCH   5  27
BRANCH   1  32
ATOM     31  C   UNL     1      -0.802  14.373  19.041  0.00  0.00    +0.000 C 
ATOM     32  C   UNL     1      -0.465  13.268  19.368  0.00  0.00    +0.000 C 
ENDBRANCH   1  32
TORSDOF 7
ENDMDL
MODEL 5
REMARK VINA RESULT:      -8.1      1.211      2.061
REMARK  Name = 
REMARK  8 active torsions:
REMARK  status: ('A' for Active; 'I' for Inactive)
REMARK    1  A    between atoms: C_2  and  C_3
REMARK    2  A    between atoms: C_7  and  C_8
REMARK    3  A    between atoms: N_14  and  C_15
REMARK    4  A    between atoms: C_19  and  N_20
REMARK    5  A    between atoms: N_20  and  C_21
REMARK    6  A    between atoms: C_21  and  C_22
REMARK    7  A    between atoms: C_22  and  C_23
REMARK    8  A    between atoms: N_27  and  C_28
REMARK                            x       y       z     vdW  Elec       q    Type
REMARK                         _______ _______ _______ _____ _____    ______ ____
ROOT
ATOM      1  C   UNL     1       0.387  11.571  19.596  0.00  0.00    +0.000 A 
ATOM      2  C   UNL     1       1.082  10.622  18.860  0.00  0.00    +0.000 A 
ATOM      3  C   UNL     1       1.306   9.396  19.457  0.00  0.00    +0.000 A 
ATOM      4  C   UNL     1       0.875   9.052  20.736  0.00  0.00    +0.000 A 
ATOM      5  C   UNL     1       0.197  10.003  21.495  0.00  0.00    +0.000 A 
ATOM      6  C   UNL     1      -0.043  11.270  20.901  0.00  0.00    +0.000 A 
ATOM      7  C   UNL     1       1.264   7.623  21.017  0.00  0.00    +0.000 C 
ATOM      8  N   UNL     1       1.940   7.209  19.788  0.00  0.00    +0.000 N 
ATOM      9  C   UNL     1       2.013   8.265  18.875  0.00  0.00    +0.000 C 
ATOM     10  O   UNL     1       2.538   8.355  17.782  0.00  0.00    +0.000 OA
ENDROOT
BRANCH   8  11
ATOM     11  C   UNL     1       2.375   5.878  19.516  0.00  0.00    +0.000 A 
ATOM     12  C   UNL     1       2.312   4.905  20.524  0.00  0.00    +0.000 A 
ATOM     13  C   UNL     1       2.785   3.615  20.328  0.00  0.00    +0.000 A 
ATOM     14  C   UNL     1       3.312   3.261  19.098  0.00  0.00    +0.000 A 
ATOM     15  C   UNL     1       3.320   4.162  18.027  0.00  0.00    +0.000 A 
ATOM     16  C   UNL     1       2.895   5.489  18.267  0.00  0.00    +0.000 A 
BRANCH  15  17
ATOM     17  N   UNL     1       3.819   3.798  16.772  0.00  0.00    +0.000 N 
ATOM     18  H   UNL     1       3.464   2.912  16.419  0.00  0.00    +0.000 HD
BRANCH  17  19
ATOM     19  C   UNL     1       5.254   3.969  16.481  0.00  0.00    +0.000 C 
BRANCH  19  20
ATOM     20  C   UNL     1       5.741   5.416  16.662  0.00  0.00    +0.000 C 
BRANCH  20  21
ATOM     21  C   UNL     1       6.594   5.561  17.872  0.00  0.00    +0.000 A 
ATOM     22  N   UNL     1       6.656   4.703  18.871  0.00  0.00    +0.000 NA
ATOM     23  N   UNL     1       7.545   5.185  19.797  0.00  0.00    +0.000 NA
ATOM     24  C   UNL     1       8.014   6.323  19.343  0.00  0.00    +0.000 A 
ATOM     25  N   UNL     1       7.440   6.606  18.142  0.00  0.00    +0.000 N 
ATOM     26  C   UNL     1       7.694   7.778  17.347  0.00  0.00    +0.000 C 
ENDBRANCH  20  21
ENDBRANCH  19  20
ENDBRANCH  17  19
ENDBRANCH  15  17
ENDBRANCH   8  11
BRANCH   5  27
ATOM     27  C   UNL     1      -0.274   9.758  22.903  0.00  0.00    +0.000 C 
ATOM     28  F   UNL     1      -1.128   8.704  23.014  0.00  0.00    +0.000 F 
ATOM     29  F   UNL     1       0.758   9.494  23.750  0.00  0.00    +0.000 F 
ATOM     30  F   UNL     1      -0.927  10.830  23.426  0.00  0.00    +0.000 F 
ENDBRANCH   5  27
BRANCH   1  32
ATOM     31  C   UNL     1      -0.143  13.921  18.538  0.00  0.00    +0.000 C 
ATOM     32  C   UNL     1       0.119  12.850  19.014  0.00  0.00    +0.000 C 
ENDBRANCH   1  32
TORSDOF 7
ENDMDL
MODEL 6
REMARK VINA RESULT:      -8.1      3.841      8.229
REMARK  Name = 
REMARK  8 active torsions:
REMARK  status: ('A' for Active; 'I' for Inactive)
REMARK    1  A    between atoms: C_2  and  C_3
REMARK    2  A    between atoms: C_7  and  C_8
REMARK    3  A    between atoms: N_14  and  C_15
REMARK    4  A    between atoms: C_19  and  N_20
REMARK    5  A    between atoms: N_20  and  C_21
REMARK    6  A    between atoms: C_21  and  C_22
REMARK    7  A    between atoms: C_22  and  C_23
REMARK    8  A    between atoms: N_27  and  C_28
REMARK                            x       y       z     vdW  Elec       q    Type
REMARK                         _______ _______ _______ _____ _____    ______ ____
ROOT
ATOM      1  C   UNL     1       4.426   4.646  17.146  0.00  0.00    +0.000 A 
ATOM      2  C   UNL     1       3.970   5.953  17.242  0.00  0.00    +0.000 A 
ATOM      3  C   UNL     1       3.139   6.259  18.303  0.00  0.00    +0.000 A 
ATOM      4  C   UNL     1       2.741   5.349  19.279  0.00  0.00    +0.000 A 
ATOM      5  C   UNL     1       3.173   4.028  19.183  0.00  0.00    +0.000 A 
ATOM      6  C   UNL     1       4.027   3.692  18.100  0.00  0.00    +0.000 A 
ATOM      7  C   UNL     1       1.879   6.061  20.291  0.00  0.00    +0.000 C 
ATOM      8  N   UNL     1       1.839   7.435  19.793  0.00  0.00    +0.000 N 
ATOM      9  C   UNL     1       2.542   7.554  18.591  0.00  0.00    +0.000 C 
ATOM     10  O   UNL     1       2.697   8.492  17.834  0.00  0.00    +0.000 OA
ENDROOT
BRANCH   8  11
ATOM     11  C   UNL     1       1.250   8.529  20.494  0.00  0.00    +0.000 A 
ATOM     12  C   UNL     1       1.140   8.484  21.891  0.00  0.00    +0.000 A 
ATOM     13  C   UNL     1       0.515   9.493  22.610  0.00  0.00    +0.000 A 
ATOM     14  C   UNL     1       0.004  10.591  21.941  0.00  0.00    +0.000 A 
ATOM     15  C   UNL     1       0.161  10.735  20.558  0.00  0.00    +0.000 A 
ATOM     16  C   UNL     1       0.742   9.666  19.836  0.00  0.00    +0.000 A 
BRANCH  15  17
ATOM     17  N   UNL     1      -0.323  11.859  19.881  0.00  0.00    +0.000 N 
ATOM     18  H   UNL     1      -0.880  12.488  20.456  0.00  0.00    +0.000 HD
BRANCH  17  19
ATOM     19  C   UNL     1      -0.886  11.710  18.527  0.00  0.00    +0.000 C 
BRANCH  19  20
ATOM     20  C   UNL     1      -2.338  11.205  18.528  0.00  0.00    +0.000 C 
BRANCH  20  21
ATOM     21  C   UNL     1      -2.774  10.783  17.169  0.00  0.00    +0.000 A 
ATOM     22  N   UNL     1      -2.086  10.010  16.352  0.00  0.00    +0.000 NA
ATOM     23  N   UNL     1      -2.811   9.852  15.199  0.00  0.00    +0.000 NA
ATOM     24  C   UNL     1      -3.929  10.523  15.338  0.00  0.00    +0.000 A 
ATOM     25  N   UNL     1      -3.948  11.132  16.554  0.00  0.00    +0.000 N 
ATOM     26  C   UNL     1      -5.006  11.969  17.056  0.00  0.00    +0.000 C 
ENDBRANCH  20  21
ENDBRANCH  19  20
ENDBRANCH  17  19
ENDBRANCH  15  17
ENDBRANCH   8  11
BRANCH   5  27
ATOM     27  C   UNL     1       2.770   2.951  20.154  0.00  0.00    +0.000 C 
ATOM     28  F   UNL     1       3.813   2.442  20.864  0.00  0.00    +0.000 F 
ATOM     29  F   UNL     1       1.874   3.400  21.075  0.00  0.00    +0.000 F 
ATOM     30  F   UNL     1       2.179   1.891  19.538  0.00  0.00    +0.000 F 
ENDBRANCH   5  27
BRANCH   1  32
ATOM     31  C   UNL     1       6.052   4.018  15.176  0.00  0.00    +0.000 C 
ATOM     32  C   UNL     1       5.301   4.286  16.073  0.00  0.00    +0.000 C 
ENDBRANCH   1  32
TORSDOF 7
ENDMDL
MODEL 7
REMARK VINA RESULT:      -8.0      4.215      8.692
REMARK  Name = 
REMARK  8 active torsions:
REMARK  status: ('A' for Active; 'I' for Inactive)
REMARK    1  A    between atoms: C_2  and  C_3
REMARK    2  A    between atoms: C_7  and  C_8
REMARK    3  A    between atoms: N_14  and  C_15
REMARK    4  A    between atoms: C_19  and  N_20
REMARK    5  A    between atoms: N_20  and  C_21
REMARK    6  A    between atoms: C_21  and  C_22
REMARK    7  A    between atoms: C_22  and  C_23
REMARK    8  A    between atoms: N_27  and  C_28
REMARK                            x       y       z     vdW  Elec       q    Type
REMARK                         _______ _______ _______ _____ _____    ______ ____
ROOT
ATOM      1  C   UNL     1       5.057   4.907  16.363  0.00  0.00    +0.000 A 
ATOM      2  C   UNL     1       4.577   6.185  16.612  0.00  0.00    +0.000 A 
ATOM      3  C   UNL     1       3.670   6.332  17.644  0.00  0.00    +0.000 A 
ATOM      4  C   UNL     1       3.218   5.290  18.450  0.00  0.00    +0.000 A 
ATOM      5  C   UNL     1       3.675   3.998  18.197  0.00  0.00    +0.000 A 
ATOM      6  C   UNL     1       4.606   3.824  17.140  0.00  0.00    +0.000 A 
ATOM      7  C   UNL     1       2.279   5.846  19.489  0.00  0.00    +0.000 C 
ATOM      8  N   UNL     1       2.254   7.277  19.191  0.00  0.00    +0.000 N 
ATOM      9  C   UNL     1       3.036   7.571  18.071  0.00  0.00    +0.000 C 
ATOM     10  O   UNL     1       3.230   8.608  17.468  0.00  0.00    +0.000 OA
ENDROOT
BRANCH   8  11
ATOM     11  C   UNL     1       1.602   8.257  19.997  0.00  0.00    +0.000 A 
ATOM     12  C   UNL     1       1.660   8.161  21.395  0.00  0.00    +0.000 A 
ATOM     13  C   UNL     1       0.987   9.052  22.219  0.00  0.00    +0.000 A 
ATOM     14  C   UNL     1       0.255  10.083  21.657  0.00  0.00    +0.000 A 
ATOM     15  C   UNL     1       0.231  10.282  20.272  0.00  0.00    +0.000 A 
ATOM     16  C   UNL     1       0.869   9.327  19.448  0.00  0.00    +0.000 A 
BRANCH  15  17
ATOM     17  N   UNL     1      -0.478  11.344  19.701  0.00  0.00    +0.000 N 
ATOM     18  H   UNL     1      -1.183  11.754  20.309  0.00  0.00    +0.000 HD
BRANCH  17  19
ATOM     19  C   UNL     1      -0.950  11.239  18.308  0.00  0.00    +0.000 C 
BRANCH  19  20
ATOM     20  C   UNL     1      -2.140  10.281  18.142  0.00  0.00    +0.000 C 
BRANCH  20  21
ATOM     21  C   UNL     1      -3.398  11.016  17.839  0.00  0.00    +0.000 A 
ATOM     22  N   UNL     1      -4.185  11.583  18.731  0.00  0.00    +0.000 NA
ATOM     23  N   UNL     1      -5.243  12.153  18.070  0.00  0.00    +0.000 NA
ATOM     24  C   UNL     1      -5.077  11.931  16.788  0.00  0.00    +0.000 A 
ATOM     25  N   UNL     1      -3.938  11.211  16.594  0.00  0.00    +0.000 N 
ATOM     26  C   UNL     1      -3.435  10.764  15.322  0.00  0.00    +0.000 C 
ENDBRANCH  20  21
ENDBRANCH  19  20
ENDBRANCH  17  19
ENDBRANCH  15  17
ENDBRANCH   8  11
BRANCH   5  27
ATOM     27  C   UNL     1       3.220   2.792  18.973  0.00  0.00    +0.000 C 
ATOM     28  F   UNL     1       3.713   1.619  18.491  0.00  0.00    +0.000 F 
ATOM     29  F   UNL     1       3.600   2.849  20.279  0.00  0.00    +0.000 F 
ATOM     30  F   UNL     1       1.866   2.658  18.980  0.00  0.00    +0.000 F 
ENDBRANCH   5  27
BRANCH   1  32
ATOM     31  C   UNL     1       6.793   4.506  14.427  0.00  0.00    +0.000 C 
ATOM     32  C   UNL     1       6.009   4.708  15.314  0.00  0.00    +0.000 C 
ENDBRANCH   1  32
TORSDOF 7
ENDMDL
MODEL 8
REMARK VINA RESULT:      -7.8      4.083      8.845
REMARK  Name = 
REMARK  8 active torsions:
REMARK  status: ('A' for Active; 'I' for Inactive)
REMARK    1  A    between atoms: C_2  and  C_3
REMARK    2  A    between atoms: C_7  and  C_8
REMARK    3  A    between atoms: N_14  and  C_15
REMARK    4  A    between atoms: C_19  and  N_20
REMARK    5  A    between atoms: N_20  and  C_21
REMARK    6  A    between atoms: C_21  and  C_22
REMARK    7  A    between atoms: C_22  and  C_23
REMARK    8  A    between atoms: N_27  and  C_28
REMARK                            x       y       z     vdW  Elec       q    Type
REMARK                         _______ _______ _______ _____ _____    ______ ____
ROOT
ATOM      1  C   UNL     1       5.001   4.978  16.549  0.00  0.00    +0.000 A 
ATOM      2  C   UNL     1       4.469   6.247  16.724  0.00  0.00    +0.000 A 
ATOM      3  C   UNL     1       3.577   6.423  17.765  0.00  0.00    +0.000 A 
ATOM      4  C   UNL     1       3.188   5.418  18.647  0.00  0.00    +0.000 A 
ATOM      5  C   UNL     1       3.697   4.133  18.468  0.00  0.00    +0.000 A 
ATOM      6  C   UNL     1       4.614   3.930  17.404  0.00  0.00    +0.000 A 
ATOM      7  C   UNL     1       2.246   6.001  19.669  0.00  0.00    +0.000 C 
ATOM      8  N   UNL     1       2.151   7.407  19.279  0.00  0.00    +0.000 N 
ATOM      9  C   UNL     1       2.898   7.659  18.125  0.00  0.00    +0.000 C 
ATOM     10  O   UNL     1       3.034   8.662  17.451  0.00  0.00    +0.000 OA
ENDROOT
BRANCH   8  11
ATOM     11  C   UNL     1       1.473   8.409  20.034  0.00  0.00    +0.000 A 
ATOM     12  C   UNL     1       1.223   8.204  21.398  0.00  0.00    +0.000 A 
ATOM     13  C   UNL     1       0.509   9.119  22.158  0.00  0.00    +0.000 A 
ATOM     14  C   UNL     1       0.046  10.283  21.568  0.00  0.00    +0.000 A 
ATOM     15  C   UNL     1       0.339  10.584  20.233  0.00  0.00    +0.000 A 
ATOM     16  C   UNL     1       1.011   9.609  19.460  0.00  0.00    +0.000 A 
BRANCH  15  17
ATOM     17  N   UNL     1      -0.096  11.774  19.642  0.00  0.00    +0.000 N 
ATOM     18  H   UNL     1      -0.595  12.399  20.272  0.00  0.00    +0.000 HD
BRANCH  17  19
ATOM     19  C   UNL     1      -0.711  11.741  18.303  0.00  0.00    +0.000 C 
BRANCH  19  20
ATOM     20  C   UNL     1      -2.087  11.057  18.286  0.00  0.00    +0.000 C 
BRANCH  20  21
ATOM     21  C   UNL     1      -3.098  11.839  19.048  0.00  0.00    +0.000 A 
ATOM     22  N   UNL     1      -2.838  12.650  20.053  0.00  0.00    +0.000 NA
ATOM     23  N   UNL     1      -4.023  13.180  20.496  0.00  0.00    +0.000 NA
ATOM     24  C   UNL     1      -4.982  12.690  19.747  0.00  0.00    +0.000 A 
ATOM     25  N   UNL     1      -4.452  11.835  18.830  0.00  0.00    +0.000 N 
ATOM     26  C   UNL     1      -5.197  11.095  17.847  0.00  0.00    +0.000 C 
ENDBRANCH  20  21
ENDBRANCH  19  20
ENDBRANCH  17  19
ENDBRANCH  15  17
ENDBRANCH   8  11
BRANCH   5  27
ATOM     27  C   UNL     1       3.312   2.962  19.332  0.00  0.00    +0.000 C 
ATOM     28  F   UNL     1       3.449   3.201  20.664  0.00  0.00    +0.000 F 
ATOM     29  F   UNL     1       2.014   2.595  19.148  0.00  0.00    +0.000 F 
ATOM     30  F   UNL     1       4.058   1.855  19.068  0.00  0.00    +0.000 F 
ENDBRANCH   5  27
BRANCH   1  32
ATOM     31  C   UNL     1       6.751   4.586  14.624  0.00  0.00    +0.000 C 
ATOM     32  C   UNL     1       5.940   4.751  15.493  0.00  0.00    +0.000 C 
ENDBRANCH   1  32
TORSDOF 7
ENDMDL
MODEL 9
REMARK VINA RESULT:      -7.8      3.767      8.322
REMARK  Name = 
REMARK  8 active torsions:
REMARK  status: ('A' for Active; 'I' for Inactive)
REMARK    1  A    between atoms: C_2  and  C_3
REMARK    2  A    between atoms: C_7  and  C_8
REMARK    3  A    between atoms: N_14  and  C_15
REMARK    4  A    between atoms: C_19  and  N_20
REMARK    5  A    between atoms: N_20  and  C_21
REMARK    6  A    between atoms: C_21  and  C_22
REMARK    7  A    between atoms: C_22  and  C_23
REMARK    8  A    between atoms: N_27  and  C_28
REMARK                            x       y       z     vdW  Elec       q    Type
REMARK                         _______ _______ _______ _____ _____    ______ ____
ROOT
ATOM      1  C   UNL     1       4.919   4.960  16.436  0.00  0.00    +0.000 A 
ATOM      2  C   UNL     1       4.448   6.232  16.728  0.00  0.00    +0.000 A 
ATOM      3  C   UNL     1       3.569   6.356  17.787  0.00  0.00    +0.000 A 
ATOM      4  C   UNL     1       3.137   5.296  18.579  0.00  0.00    +0.000 A 
ATOM      5  C   UNL     1       3.583   4.009  18.283  0.00  0.00    +0.000 A 
ATOM      6  C   UNL     1       4.486   3.860  17.198  0.00  0.00    +0.000 A 
ATOM      7  C   UNL     1       2.226   5.828  19.656  0.00  0.00    +0.000 C 
ATOM      8  N   UNL     1       2.197   7.266  19.393  0.00  0.00    +0.000 N 
ATOM      9  C   UNL     1       2.950   7.585  18.260  0.00  0.00    +0.000 C 
ATOM     10  O   UNL     1       3.130   8.636  17.677  0.00  0.00    +0.000 OA
ENDROOT
BRANCH   8  11
ATOM     11  C   UNL     1       1.568   8.227  20.239  0.00  0.00    +0.000 A 
ATOM     12  C   UNL     1       1.778   8.179  21.625  0.00  0.00    +0.000 A 
ATOM     13  C   UNL     1       1.137   9.050  22.494  0.00  0.00    +0.000 A 
ATOM     14  C   UNL     1       0.283  10.014  21.988  0.00  0.00    +0.000 A 
ATOM     15  C   UNL     1       0.102  10.168  20.609  0.00  0.00    +0.000 A 
ATOM     16  C   UNL     1       0.712   9.230  19.745  0.00  0.00    +0.000 A 
BRANCH  15  17
ATOM     17  N   UNL     1      -0.733  11.164  20.090  0.00  0.00    +0.000 N 
ATOM     18  H   UNL     1      -1.661  10.839  19.827  0.00  0.00    +0.000 HD
BRANCH  17  19
ATOM     19  C   UNL     1      -0.195  12.132  19.117  0.00  0.00    +0.000 C 
BRANCH  19  20
ATOM     20  C   UNL     1      -1.224  12.563  18.060  0.00  0.00    +0.000 C 
BRANCH  20  21
ATOM     21  C   UNL     1      -2.203  11.480  17.774  0.00  0.00    +0.000 A 
ATOM     22  N   UNL     1      -1.985  10.437  16.998  0.00  0.00    +0.000 NA
ATOM     23  N   UNL     1      -3.122   9.670  16.979  0.00  0.00    +0.000 NA
ATOM     24  C   UNL     1      -4.008  10.254  17.750  0.00  0.00    +0.000 A 
ATOM     25  N   UNL     1      -3.482  11.399  18.264  0.00  0.00    +0.000 N 
ATOM     26  C   UNL     1      -4.163  12.315  19.140  0.00  0.00    +0.000 C 
ENDBRANCH  20  21
ENDBRANCH  19  20
ENDBRANCH  17  19
ENDBRANCH  15  17
ENDBRANCH   8  11
BRANCH   5  27
ATOM     27  C   UNL     1       3.147   2.785  19.042  0.00  0.00    +0.000 C 
ATOM     28  F   UNL     1       1.797   2.626  19.085  0.00  0.00    +0.000 F 
ATOM     29  F   UNL     1       3.643   1.641  18.497  0.00  0.00    +0.000 F 
ATOM     30  F   UNL     1       3.567   2.800  20.336  0.00  0.00    +0.000 F 
ENDBRANCH   5  27
BRANCH   1  32
ATOM     31  C   UNL     1       6.588   4.624  14.430  0.00  0.00    +0.000 C 
ATOM     32  C   UNL     1       5.842   4.785  15.357  0.00  0.00    +0.000 C 
ENDBRANCH   1  32
TORSDOF 7
ENDMDL
