MODEL 1
REMARK VINA RESULT:      -9.4      0.000      0.000
REMARK  Name = 
REMARK  3 active torsions:
REMARK  status: ('A' for Active; 'I' for Inactive)
REMARK    1  A    between atoms: N_3  and  C_4
REMARK    2  A    between atoms: C_17  and  C_18
REMARK    3  A    between atoms: C_22  and  C_23
REMARK                            x       y       z     vdW  Elec       q    Type
REMARK                         _______ _______ _______ _____ _____    ______ ____
ROOT
ATOM      1  O   UNL     1       2.651   3.389  16.619  0.00  0.00    +0.000 OA
ATOM      2  C   UNL     1       3.372   3.218  17.596  0.00  0.00    +0.000 C 
ATOM      3  N   UNL     1       4.746   3.364  17.593  0.00  0.00    +0.000 N 
ATOM      4  N   UNL     1       2.883   2.743  18.806  0.00  0.00    +0.000 N 
ATOM      5  C   UNL     1       1.534   2.186  18.870  0.00  0.00    +0.000 C 
ATOM      6  C   UNL     1       0.598   3.037  19.728  0.00  0.00    +0.000 C 
ATOM      7  O   UNL     1       1.171   3.380  21.002  0.00  0.00    +0.000 OA
ATOM      8  C   UNL     1       2.449   4.052  20.877  0.00  0.00    +0.000 C 
ATOM      9  C   UNL     1       3.429   3.119  20.114  0.00  0.00    +0.000 C 
ATOM     10  H   UNL     1       5.208   2.659  18.149  0.00  0.00    +0.000 HD
ENDROOT
BRANCH   3  11
ATOM     11  C   UNL     1       5.473   3.845  16.482  0.00  0.00    +0.000 A 
ATOM     12  C   UNL     1       6.172   5.048  16.625  0.00  0.00    +0.000 A 
ATOM     13  C   UNL     1       6.927   5.572  15.570  0.00  0.00    +0.000 A 
ATOM     14  C   UNL     1       6.921   4.913  14.327  0.00  0.00    +0.000 A 
ATOM     15  C   UNL     1       7.533   5.169  13.069  0.00  0.00    +0.000 A 
ATOM     16  C   UNL     1       7.124   4.185  12.198  0.00  0.00    +0.000 A 
ATOM     17  N   UNL     1       6.307   3.328  12.886  0.00  0.00    +0.000 N 
ATOM     18  C   UNL     1       6.183   3.738  14.195  0.00  0.00    +0.000 A 
ATOM     19  C   UNL     1       5.473   3.165  15.260  0.00  0.00    +0.000 A 
ATOM     20  H   UNL     1       5.850   2.514  12.498  0.00  0.00    +0.000 HD
ENDBRANCH   3  11
BRANCH   8  21
ATOM     21  C   UNL     1       2.294   5.490  20.375  0.00  0.00    +0.000 A 
ATOM     22  C   UNL     1       2.895   5.874  19.165  0.00  0.00    +0.000 A 
ATOM     23  C   UNL     1       2.755   7.169  18.663  0.00  0.00    +0.000 A 
ATOM     24  C   UNL     1       1.978   8.100  19.347  0.00  0.00    +0.000 A 
ATOM     25  C   UNL     1       1.330   7.744  20.533  0.00  0.00    +0.000 A 
ATOM     26  C   UNL     1       1.496   6.440  21.040  0.00  0.00    +0.000 A 
BRANCH  25  27
ATOM     27  C   UNL     1       0.452   8.728  21.265  0.00  0.00    +0.000 C 
ATOM     28  F   UNL     1       1.034   9.247  22.384  0.00  0.00    +0.000 F 
ATOM     29  F   UNL     1       0.117   9.798  20.492  0.00  0.00    +0.000 F 
ATOM     30  F   UNL     1      -0.722   8.182  21.681  0.00  0.00    +0.000 F 
ENDBRANCH  25  27
ENDBRANCH   8  21
TORSDOF 3
ENDMDL
MODEL 2
REMARK VINA RESULT:      -8.9      1.793      2.328
REMARK  Name = 
REMARK  3 active torsions:
REMARK  status: ('A' for Active; 'I' for Inactive)
REMARK    1  A    between atoms: N_3  and  C_4
REMARK    2  A    between atoms: C_17  and  C_18
REMARK    3  A    between atoms: C_22  and  C_23
REMARK                            x       y       z     vdW  Elec       q    Type
REMARK                         _______ _______ _______ _____ _____    ______ ____
ROOT
ATOM      1  O   UNL     1       2.679   3.255  16.701  0.00  0.00    +0.000 OA
ATOM      2  C   UNL     1       3.379   3.093  17.695  0.00  0.00    +0.000 C 
ATOM      3  N   UNL     1       4.750   3.270  17.727  0.00  0.00    +0.000 N 
ATOM      4  N   UNL     1       2.871   2.600  18.889  0.00  0.00    +0.000 N 
ATOM      5  C   UNL     1       1.534   2.012  18.917  0.00  0.00    +0.000 C 
ATOM      6  C   UNL     1       0.557   2.837  19.755  0.00  0.00    +0.000 C 
ATOM      7  O   UNL     1       1.091   3.183  21.046  0.00  0.00    +0.000 OA
ATOM      8  C   UNL     1       2.356   3.885  20.957  0.00  0.00    +0.000 C 
ATOM      9  C   UNL     1       3.376   2.979  20.213  0.00  0.00    +0.000 C 
ATOM     10  H   UNL     1       5.213   2.572  18.291  0.00  0.00    +0.000 HD
ENDROOT
BRANCH   3  11
ATOM     11  C   UNL     1       5.493   3.775  16.639  0.00  0.00    +0.000 A 
ATOM     12  C   UNL     1       6.263   4.924  16.844  0.00  0.00    +0.000 A 
ATOM     13  C   UNL     1       7.037   5.466  15.813  0.00  0.00    +0.000 A 
ATOM     14  C   UNL     1       6.981   4.886  14.533  0.00  0.00    +0.000 A 
ATOM     15  C   UNL     1       7.594   5.182  13.285  0.00  0.00    +0.000 A 
ATOM     16  C   UNL     1       7.121   4.278  12.361  0.00  0.00    +0.000 A 
ATOM     17  N   UNL     1       6.262   3.429  13.007  0.00  0.00    +0.000 N 
ATOM     18  C   UNL     1       6.174   3.766  14.340  0.00  0.00    +0.000 A 
ATOM     19  C   UNL     1       5.442   3.171  15.378  0.00  0.00    +0.000 A 
ATOM     20  H   UNL     1       5.754   2.668  12.577  0.00  0.00    +0.000 HD
ENDBRANCH   3  11
BRANCH   8  21
ATOM     21  C   UNL     1       2.181   5.322  20.460  0.00  0.00    +0.000 A 
ATOM     22  C   UNL     1       1.438   6.238  21.223  0.00  0.00    +0.000 A 
ATOM     23  C   UNL     1       1.278   7.563  20.814  0.00  0.00    +0.000 A 
ATOM     24  C   UNL     1       1.889   8.009  19.645  0.00  0.00    +0.000 A 
ATOM     25  C   UNL     1       2.671   7.138  18.880  0.00  0.00    +0.000 A 
ATOM     26  C   UNL     1       2.808   5.798  19.293  0.00  0.00    +0.000 A 
BRANCH  25  27
ATOM     27  C   UNL     1       3.372   7.616  17.633  0.00  0.00    +0.000 C 
ATOM     28  F   UNL     1       4.608   8.140  17.872  0.00  0.00    +0.000 F 
ATOM     29  F   UNL     1       3.564   6.613  16.731  0.00  0.00    +0.000 F 
ATOM     30  F   UNL     1       2.681   8.586  16.976  0.00  0.00    +0.000 F 
ENDBRANCH  25  27
ENDBRANCH   8  21
TORSDOF 3
ENDMDL
MODEL 3
REMARK VINA RESULT:      -8.9      5.269      8.378
REMARK  Name = 
REMARK  3 active torsions:
REMARK  status: ('A' for Active; 'I' for Inactive)
REMARK    1  A    between atoms: N_3  and  C_4
REMARK    2  A    between atoms: C_17  and  C_18
REMARK    3  A    between atoms: C_22  and  C_23
REMARK                            x       y       z     vdW  Elec       q    Type
REMARK                         _______ _______ _______ _____ _____    ______ ____
ROOT
ATOM      1  O   UNL     1      -0.800   9.433  21.805  0.00  0.00    +0.000 OA
ATOM      2  C   UNL     1      -0.353  10.493  21.379  0.00  0.00    +0.000 C 
ATOM      3  N   UNL     1       0.677  10.599  20.463  0.00  0.00    +0.000 N 
ATOM      4  N   UNL     1      -0.771  11.724  21.866  0.00  0.00    +0.000 N 
ATOM      5  C   UNL     1      -1.570  11.785  23.086  0.00  0.00    +0.000 C 
ATOM      6  C   UNL     1      -2.988  12.292  22.824  0.00  0.00    +0.000 C 
ATOM      7  O   UNL     1      -3.009  13.492  22.029  0.00  0.00    +0.000 OA
ATOM      8  C   UNL     1      -2.315  13.337  20.766  0.00  0.00    +0.000 C 
ATOM      9  C   UNL     1      -0.840  12.944  21.055  0.00  0.00    +0.000 C 
ATOM     10  H   UNL     1       1.302  11.362  20.676  0.00  0.00    +0.000 HD
ENDROOT
BRANCH   3  11
ATOM     11  C   UNL     1       1.259   9.486  19.819  0.00  0.00    +0.000 A 
ATOM     12  C   UNL     1       1.443   9.550  18.433  0.00  0.00    +0.000 A 
ATOM     13  C   UNL     1       2.031   8.490  17.736  0.00  0.00    +0.000 A 
ATOM     14  C   UNL     1       2.376   7.316  18.429  0.00  0.00    +0.000 A 
ATOM     15  C   UNL     1       2.948   6.073  18.047  0.00  0.00    +0.000 A 
ATOM     16  C   UNL     1       3.012   5.278  19.169  0.00  0.00    +0.000 A 
ATOM     17  N   UNL     1       2.522   6.002  20.224  0.00  0.00    +0.000 N 
ATOM     18  C   UNL     1       2.145   7.258  19.803  0.00  0.00    +0.000 A 
ATOM     19  C   UNL     1       1.615   8.335  20.529  0.00  0.00    +0.000 A 
ATOM     20  H   UNL     1       2.436   5.670  21.174  0.00  0.00    +0.000 HD
ENDBRANCH   3  11
BRANCH   8  21
ATOM     21  C   UNL     1      -3.105  12.472  19.781  0.00  0.00    +0.000 A 
ATOM     22  C   UNL     1      -4.505  12.409  19.876  0.00  0.00    +0.000 A 
ATOM     23  C   UNL     1      -5.261  11.651  18.980  0.00  0.00    +0.000 A 
ATOM     24  C   UNL     1      -4.631  10.965  17.945  0.00  0.00    +0.000 A 
ATOM     25  C   UNL     1      -3.243  11.036  17.792  0.00  0.00    +0.000 A 
ATOM     26  C   UNL     1      -2.489  11.788  18.716  0.00  0.00    +0.000 A 
BRANCH  25  27
ATOM     27  C   UNL     1      -2.549  10.331  16.654  0.00  0.00    +0.000 C 
ATOM     28  F   UNL     1      -3.264   9.287  16.144  0.00  0.00    +0.000 F 
ATOM     29  F   UNL     1      -2.306  11.162  15.603  0.00  0.00    +0.000 F 
ATOM     30  F   UNL     1      -1.343   9.812  17.010  0.00  0.00    +0.000 F 
ENDBRANCH  25  27
ENDBRANCH   8  21
TORSDOF 3
ENDMDL
MODEL 4
REMARK VINA RESULT:      -8.7      4.631      7.457
REMARK  Name = 
REMARK  3 active torsions:
REMARK  status: ('A' for Active; 'I' for Inactive)
REMARK    1  A    between atoms: N_3  and  C_4
REMARK    2  A    between atoms: C_17  and  C_18
REMARK    3  A    between atoms: C_22  and  C_23
REMARK                            x       y       z     vdW  Elec       q    Type
REMARK                         _______ _______ _______ _____ _____    ______ ____
ROOT
ATOM      1  O   UNL     1      -0.407   8.081  21.650  0.00  0.00    +0.000 OA
ATOM      2  C   UNL     1       0.437   8.897  21.295  0.00  0.00    +0.000 C 
ATOM      3  N   UNL     1       1.572   8.587  20.571  0.00  0.00    +0.000 N 
ATOM      4  N   UNL     1       0.394  10.228  21.688  0.00  0.00    +0.000 N 
ATOM      5  C   UNL     1      -0.519  10.638  22.751  0.00  0.00    +0.000 C 
ATOM      6  C   UNL     1      -1.617  11.572  22.242  0.00  0.00    +0.000 C 
ATOM      7  O   UNL     1      -1.099  12.650  21.441  0.00  0.00    +0.000 OA
ATOM      8  C   UNL     1      -0.310  12.184  20.320  0.00  0.00    +0.000 C 
ATOM      9  C   UNL     1       0.877  11.341  20.864  0.00  0.00    +0.000 C 
ATOM     10  H   UNL     1       2.379   9.109  20.880  0.00  0.00    +0.000 HD
ENDROOT
BRANCH   3  11
ATOM     11  C   UNL     1       1.834   7.302  20.050  0.00  0.00    +0.000 A 
ATOM     12  C   UNL     1       2.311   7.208  18.738  0.00  0.00    +0.000 A 
ATOM     13  C   UNL     1       2.607   5.966  18.167  0.00  0.00    +0.000 A 
ATOM     14  C   UNL     1       2.352   4.793  18.900  0.00  0.00    +0.000 A 
ATOM     15  C   UNL     1       2.503   3.405  18.630  0.00  0.00    +0.000 A 
ATOM     16  C   UNL     1       2.041   2.713  19.727  0.00  0.00    +0.000 A 
ATOM     17  N   UNL     1       1.638   3.630  20.662  0.00  0.00    +0.000 N 
ATOM     18  C   UNL     1       1.837   4.908  20.190  0.00  0.00    +0.000 A 
ATOM     19  C   UNL     1       1.594   6.147  20.802  0.00  0.00    +0.000 A 
ATOM     20  H   UNL     1       1.243   3.411  21.566  0.00  0.00    +0.000 HD
ENDBRANCH   3  11
BRANCH   8  21
ATOM     21  C   UNL     1      -1.181  11.567  19.222  0.00  0.00    +0.000 A 
ATOM     22  C   UNL     1      -0.663  10.538  18.418  0.00  0.00    +0.000 A 
ATOM     23  C   UNL     1      -1.436   9.934  17.424  0.00  0.00    +0.000 A 
ATOM     24  C   UNL     1      -2.758  10.327  17.236  0.00  0.00    +0.000 A 
ATOM     25  C   UNL     1      -3.322  11.320  18.044  0.00  0.00    +0.000 A 
ATOM     26  C   UNL     1      -2.525  11.936  19.030  0.00  0.00    +0.000 A 
BRANCH  25  27
ATOM     27  C   UNL     1      -4.764  11.729  17.880  0.00  0.00    +0.000 C 
ATOM     28  F   UNL     1      -5.638  10.686  17.970  0.00  0.00    +0.000 F 
ATOM     29  F   UNL     1      -5.158  12.625  18.827  0.00  0.00    +0.000 F 
ATOM     30  F   UNL     1      -5.014  12.316  16.679  0.00  0.00    +0.000 F 
ENDBRANCH  25  27
ENDBRANCH   8  21
TORSDOF 3
ENDMDL
MODEL 5
REMARK VINA RESULT:      -8.4      4.548      7.180
REMARK  Name = 
REMARK  3 active torsions:
REMARK  status: ('A' for Active; 'I' for Inactive)
REMARK    1  A    between atoms: N_3  and  C_4
REMARK    2  A    between atoms: C_17  and  C_18
REMARK    3  A    between atoms: C_22  and  C_23
REMARK                            x       y       z     vdW  Elec       q    Type
REMARK                         _______ _______ _______ _____ _____    ______ ____
ROOT
ATOM      1  O   UNL     1      -0.376   8.067  21.661  0.00  0.00    +0.000 OA
ATOM      2  C   UNL     1       0.461   8.890  21.306  0.00  0.00    +0.000 C 
ATOM      3  N   UNL     1       1.605   8.587  20.592  0.00  0.00    +0.000 N 
ATOM      4  N   UNL     1       0.401  10.223  21.688  0.00  0.00    +0.000 N 
ATOM      5  C   UNL     1      -0.524  10.631  22.742  0.00  0.00    +0.000 C 
ATOM      6  C   UNL     1      -1.629  11.549  22.218  0.00  0.00    +0.000 C 
ATOM      7  O   UNL     1      -1.117  12.627  21.413  0.00  0.00    +0.000 OA
ATOM      8  C   UNL     1      -0.315  12.161  20.300  0.00  0.00    +0.000 C 
ATOM      9  C   UNL     1       0.877  11.335  20.859  0.00  0.00    +0.000 C 
ATOM     10  H   UNL     1       2.404   9.120  20.902  0.00  0.00    +0.000 HD
ENDROOT
BRANCH   3  11
ATOM     11  C   UNL     1       1.884   7.301  20.082  0.00  0.00    +0.000 A 
ATOM     12  C   UNL     1       1.492   6.193  20.841  0.00  0.00    +0.000 A 
ATOM     13  C   UNL     1       1.723   4.891  20.386  0.00  0.00    +0.000 A 
ATOM     14  C   UNL     1       2.423   4.696  19.182  0.00  0.00    +0.000 A 
ATOM     15  C   UNL     1       2.843   3.548  18.456  0.00  0.00    +0.000 A 
ATOM     16  C   UNL     1       3.537   3.984  17.350  0.00  0.00    +0.000 A 
ATOM     17  N   UNL     1       3.533   5.353  17.364  0.00  0.00    +0.000 N 
ATOM     18  C   UNL     1       2.841   5.814  18.462  0.00  0.00    +0.000 A 
ATOM     19  C   UNL     1       2.563   7.127  18.871  0.00  0.00    +0.000 A 
ATOM     20  H   UNL     1       3.977   5.949  16.679  0.00  0.00    +0.000 HD
ENDBRANCH   3  11
BRANCH   8  21
ATOM     21  C   UNL     1      -1.171  11.526  19.201  0.00  0.00    +0.000 A 
ATOM     22  C   UNL     1      -0.645  10.481  18.424  0.00  0.00    +0.000 A 
ATOM     23  C   UNL     1      -1.404   9.861  17.430  0.00  0.00    +0.000 A 
ATOM     24  C   UNL     1      -2.723  10.254  17.215  0.00  0.00    +0.000 A 
ATOM     25  C   UNL     1      -3.295  11.263  17.996  0.00  0.00    +0.000 A 
ATOM     26  C   UNL     1      -2.512  11.895  18.982  0.00  0.00    +0.000 A 
BRANCH  25  27
ATOM     27  C   UNL     1      -4.734  11.672  17.804  0.00  0.00    +0.000 C 
ATOM     28  F   UNL     1      -5.182  12.544  18.752  0.00  0.00    +0.000 F 
ATOM     29  F   UNL     1      -4.941  12.289  16.607  0.00  0.00    +0.000 F 
ATOM     30  F   UNL     1      -5.593  10.618  17.837  0.00  0.00    +0.000 F 
ENDBRANCH  25  27
ENDBRANCH   8  21
TORSDOF 3
ENDMDL
MODEL 6
REMARK VINA RESULT:      -8.1      5.610      8.497
REMARK  Name = 
REMARK  3 active torsions:
REMARK  status: ('A' for Active; 'I' for Inactive)
REMARK    1  A    between atoms: N_3  and  C_4
REMARK    2  A    between atoms: C_17  and  C_18
REMARK    3  A    between atoms: C_22  and  C_23
REMARK                            x       y       z     vdW  Elec       q    Type
REMARK                         _______ _______ _______ _____ _____    ______ ____
ROOT
ATOM      1  O   UNL     1      -0.793   9.363  21.802  0.00  0.00    +0.000 OA
ATOM      2  C   UNL     1      -0.307  10.419  21.412  0.00  0.00    +0.000 C 
ATOM      3  N   UNL     1       0.746  10.518  20.522  0.00  0.00    +0.000 N 
ATOM      4  N   UNL     1      -0.701  11.650  21.920  0.00  0.00    +0.000 N 
ATOM      5  C   UNL     1      -1.525  11.704  23.124  0.00  0.00    +0.000 C 
ATOM      6  C   UNL     1      -2.922  12.259  22.844  0.00  0.00    +0.000 C 
ATOM      7  O   UNL     1      -2.890  13.478  22.079  0.00  0.00    +0.000 OA
ATOM      8  C   UNL     1      -2.173  13.333  20.828  0.00  0.00    +0.000 C 
ATOM      9  C   UNL     1      -0.716  12.891  21.139  0.00  0.00    +0.000 C 
ATOM     10  H   UNL     1       1.388  11.257  20.768  0.00  0.00    +0.000 HD
ENDROOT
BRANCH   3  11
ATOM     11  C   UNL     1       1.311   9.405  19.863  0.00  0.00    +0.000 A 
ATOM     12  C   UNL     1       1.455   9.467  18.473  0.00  0.00    +0.000 A 
ATOM     13  C   UNL     1       2.024   8.406  17.760  0.00  0.00    +0.000 A 
ATOM     14  C   UNL     1       2.389   7.234  18.446  0.00  0.00    +0.000 A 
ATOM     15  C   UNL     1       2.953   5.990  18.049  0.00  0.00    +0.000 A 
ATOM     16  C   UNL     1       3.050   5.198  19.170  0.00  0.00    +0.000 A 
ATOM     17  N   UNL     1       2.589   5.923  20.237  0.00  0.00    +0.000 N 
ATOM     18  C   UNL     1       2.199   7.178  19.825  0.00  0.00    +0.000 A 
ATOM     19  C   UNL     1       1.689   8.256  20.565  0.00  0.00    +0.000 A 
ATOM     20  H   UNL     1       2.532   5.593  21.190  0.00  0.00    +0.000 HD
ENDBRANCH   3  11
BRANCH   8  21
ATOM     21  C   UNL     1      -2.965  12.516  19.804  0.00  0.00    +0.000 A 
ATOM     22  C   UNL     1      -2.282  11.796  18.809  0.00  0.00    +0.000 A 
ATOM     23  C   UNL     1      -2.969  11.020  17.874  0.00  0.00    +0.000 A 
ATOM     24  C   UNL     1      -4.356  10.921  17.936  0.00  0.00    +0.000 A 
ATOM     25  C   UNL     1      -5.068  11.590  18.936  0.00  0.00    +0.000 A 
ATOM     26  C   UNL     1      -4.365  12.387  19.862  0.00  0.00    +0.000 A 
BRANCH  25  27
ATOM     27  C   UNL     1      -6.567  11.461  19.042  0.00  0.00    +0.000 C 
ATOM     28  F   UNL     1      -6.994  11.082  20.281  0.00  0.00    +0.000 F 
ATOM     29  F   UNL     1      -7.207  12.632  18.772  0.00  0.00    +0.000 F 
ATOM     30  F   UNL     1      -7.081  10.544  18.179  0.00  0.00    +0.000 F 
ENDBRANCH  25  27
ENDBRANCH   8  21
TORSDOF 3
ENDMDL
MODEL 7
REMARK VINA RESULT:      -8.1      1.135      1.678
REMARK  Name = 
REMARK  3 active torsions:
REMARK  status: ('A' for Active; 'I' for Inactive)
REMARK    1  A    between atoms: N_3  and  C_4
REMARK    2  A    between atoms: C_17  and  C_18
REMARK    3  A    between atoms: C_22  and  C_23
REMARK                            x       y       z     vdW  Elec       q    Type
REMARK                         _______ _______ _______ _____ _____    ______ ____
ROOT
ATOM      1  O   UNL     1       2.750   3.501  16.386  0.00  0.00    +0.000 OA
ATOM      2  C   UNL     1       3.583   3.551  17.285  0.00  0.00    +0.000 C 
ATOM      3  N   UNL     1       4.941   3.715  17.090  0.00  0.00    +0.000 N 
ATOM      4  N   UNL     1       3.252   3.333  18.616  0.00  0.00    +0.000 N 
ATOM      5  C   UNL     1       1.943   2.779  18.954  0.00  0.00    +0.000 C 
ATOM      6  C   UNL     1       1.074   3.776  19.720  0.00  0.00    +0.000 C 
ATOM      7  O   UNL     1       1.772   4.388  20.820  0.00  0.00    +0.000 OA
ATOM      8  C   UNL     1       2.999   5.041  20.409  0.00  0.00    +0.000 C 
ATOM      9  C   UNL     1       3.925   3.984  19.745  0.00  0.00    +0.000 C 
ATOM     10  H   UNL     1       5.490   3.151  17.722  0.00  0.00    +0.000 HD
ENDROOT
BRANCH   3  11
ATOM     11  C   UNL     1       5.519   3.964  15.826  0.00  0.00    +0.000 A 
ATOM     12  C   UNL     1       5.007   3.275  14.722  0.00  0.00    +0.000 A 
ATOM     13  C   UNL     1       5.522   3.489  13.439  0.00  0.00    +0.000 A 
ATOM     14  C   UNL     1       6.616   4.356  13.272  0.00  0.00    +0.000 A 
ATOM     15  C   UNL     1       7.386   4.774  12.152  0.00  0.00    +0.000 A 
ATOM     16  C   UNL     1       8.373   5.615  12.613  0.00  0.00    +0.000 A 
ATOM     17  N   UNL     1       8.217   5.743  13.968  0.00  0.00    +0.000 N 
ATOM     18  C   UNL     1       7.137   5.000  14.393  0.00  0.00    +0.000 A 
ATOM     19  C   UNL     1       6.594   4.847  15.677  0.00  0.00    +0.000 A 
ATOM     20  H   UNL     1       8.806   6.293  14.578  0.00  0.00    +0.000 HD
ENDBRANCH   3  11
BRANCH   8  21
ATOM     21  C   UNL     1       2.730   6.338  19.642  0.00  0.00    +0.000 A 
ATOM     22  C   UNL     1       3.316   6.536  18.380  0.00  0.00    +0.000 A 
ATOM     23  C   UNL     1       3.074   7.695  17.641  0.00  0.00    +0.000 A 
ATOM     24  C   UNL     1       2.210   8.668  18.136  0.00  0.00    +0.000 A 
ATOM     25  C   UNL     1       1.576   8.489  19.369  0.00  0.00    +0.000 A 
ATOM     26  C   UNL     1       1.844   7.324  20.115  0.00  0.00    +0.000 A 
BRANCH  25  27
ATOM     27  C   UNL     1       0.607   9.514  19.901  0.00  0.00    +0.000 C 
ATOM     28  F   UNL     1      -0.216   9.031  20.876  0.00  0.00    +0.000 F 
ATOM     29  F   UNL     1       1.239  10.589  20.449  0.00  0.00    +0.000 F 
ATOM     30  F   UNL     1      -0.216  10.013  18.939  0.00  0.00    +0.000 F 
ENDBRANCH  25  27
ENDBRANCH   8  21
TORSDOF 3
ENDMDL
MODEL 8
REMARK VINA RESULT:      -8.1      3.804      6.907
REMARK  Name = 
REMARK  3 active torsions:
REMARK  status: ('A' for Active; 'I' for Inactive)
REMARK    1  A    between atoms: N_3  and  C_4
REMARK    2  A    between atoms: C_17  and  C_18
REMARK    3  A    between atoms: C_22  and  C_23
REMARK                            x       y       z     vdW  Elec       q    Type
REMARK                         _______ _______ _______ _____ _____    ______ ____
ROOT
ATOM      1  O   UNL     1       3.074   6.182  20.383  0.00  0.00    +0.000 OA
ATOM      2  C   UNL     1       2.448   5.858  19.380  0.00  0.00    +0.000 C 
ATOM      3  N   UNL     1       1.708   6.727  18.601  0.00  0.00    +0.000 N 
ATOM      4  N   UNL     1       2.325   4.534  18.976  0.00  0.00    +0.000 N 
ATOM      5  C   UNL     1       2.724   3.463  19.885  0.00  0.00    +0.000 C 
ATOM      6  C   UNL     1       3.933   2.685  19.365  0.00  0.00    +0.000 C 
ATOM      7  O   UNL     1       3.786   2.287  17.990  0.00  0.00    +0.000 OA
ATOM      8  C   UNL     1       3.524   3.408  17.109  0.00  0.00    +0.000 C 
ATOM      9  C   UNL     1       2.220   4.112  17.576  0.00  0.00    +0.000 C 
ATOM     10  H   UNL     1       0.844   6.314  18.279  0.00  0.00    +0.000 HD
ENDROOT
BRANCH   3  11
ATOM     11  C   UNL     1       1.683   8.124  18.806  0.00  0.00    +0.000 A 
ATOM     12  C   UNL     1       1.046   8.609  19.952  0.00  0.00    +0.000 A 
ATOM     13  C   UNL     1       1.002   9.980  20.225  0.00  0.00    +0.000 A 
ATOM     14  C   UNL     1       1.543  10.885  19.294  0.00  0.00    +0.000 A 
ATOM     15  C   UNL     1       1.646  12.302  19.235  0.00  0.00    +0.000 A 
ATOM     16  C   UNL     1       2.249  12.629  18.042  0.00  0.00    +0.000 A 
ATOM     17  N   UNL     1       2.538  11.462  17.385  0.00  0.00    +0.000 N 
ATOM     18  C   UNL     1       2.136  10.381  18.137  0.00  0.00    +0.000 A 
ATOM     19  C   UNL     1       2.246   9.007  17.879  0.00  0.00    +0.000 A 
ATOM     20  H   UNL     1       2.975  11.393  16.476  0.00  0.00    +0.000 HD
ENDBRANCH   3  11
BRANCH   8  21
ATOM     21  C   UNL     1       4.768   4.275  16.898  0.00  0.00    +0.000 A 
ATOM     22  C   UNL     1       5.003   4.863  15.644  0.00  0.00    +0.000 A 
ATOM     23  C   UNL     1       6.113   5.679  15.421  0.00  0.00    +0.000 A 
ATOM     24  C   UNL     1       6.996   5.953  16.463  0.00  0.00    +0.000 A 
ATOM     25  C   UNL     1       6.774   5.420  17.736  0.00  0.00    +0.000 A 
ATOM     26  C   UNL     1       5.661   4.580  17.943  0.00  0.00    +0.000 A 
BRANCH  25  27
ATOM     27  C   UNL     1       7.697   5.738  18.884  0.00  0.00    +0.000 C 
ATOM     28  F   UNL     1       7.076   5.739  20.098  0.00  0.00    +0.000 F 
ATOM     29  F   UNL     1       8.718   4.843  18.991  0.00  0.00    +0.000 F 
ATOM     30  F   UNL     1       8.281   6.962  18.769  0.00  0.00    +0.000 F 
ENDBRANCH  25  27
ENDBRANCH   8  21
TORSDOF 3
ENDMDL
MODEL 9
REMARK VINA RESULT:      -8.0      3.738      7.083
REMARK  Name = 
REMARK  3 active torsions:
REMARK  status: ('A' for Active; 'I' for Inactive)
REMARK    1  A    between atoms: N_3  and  C_4
REMARK    2  A    between atoms: C_17  and  C_18
REMARK    3  A    between atoms: C_22  and  C_23
REMARK                            x       y       z     vdW  Elec       q    Type
REMARK                         _______ _______ _______ _____ _____    ______ ____
ROOT
ATOM      1  O   UNL     1       3.169   6.050  20.406  0.00  0.00    +0.000 OA
ATOM      2  C   UNL     1       2.524   5.650  19.443  0.00  0.00    +0.000 C 
ATOM      3  N   UNL     1       1.741   6.452  18.634  0.00  0.00    +0.000 N 
ATOM      4  N   UNL     1       2.425   4.302  19.123  0.00  0.00    +0.000 N 
ATOM      5  C   UNL     1       2.876   3.297  20.083  0.00  0.00    +0.000 C 
ATOM      6  C   UNL     1       4.091   2.519  19.576  0.00  0.00    +0.000 C 
ATOM      7  O   UNL     1       3.917   2.035  18.232  0.00  0.00    +0.000 OA
ATOM      8  C   UNL     1       3.603   3.094  17.294  0.00  0.00    +0.000 C 
ATOM      9  C   UNL     1       2.294   3.793  17.754  0.00  0.00    +0.000 C 
ATOM     10  H   UNL     1       0.881   6.000  18.363  0.00  0.00    +0.000 HD
ENDROOT
BRANCH   3  11
ATOM     11  C   UNL     1       1.686   7.857  18.756  0.00  0.00    +0.000 A 
ATOM     12  C   UNL     1       2.225   8.629  17.721  0.00  0.00    +0.000 A 
ATOM     13  C   UNL     1       2.187  10.026  17.770  0.00  0.00    +0.000 A 
ATOM     14  C   UNL     1       1.663  10.661  18.910  0.00  0.00    +0.000 A 
ATOM     15  C   UNL     1       1.498  12.018  19.299  0.00  0.00    +0.000 A 
ATOM     16  C   UNL     1       0.957  12.028  20.565  0.00  0.00    +0.000 A 
ATOM     17  N   UNL     1       0.766  10.727  20.949  0.00  0.00    +0.000 N 
ATOM     18  C   UNL     1       1.170   9.872  19.948  0.00  0.00    +0.000 A 
ATOM     19  C   UNL     1       1.142   8.471  19.889  0.00  0.00    +0.000 A 
ATOM     20  H   UNL     1       0.391  10.427  21.839  0.00  0.00    +0.000 HD
ENDBRANCH   3  11
BRANCH   8  21
ATOM     21  C   UNL     1       4.818   3.976  16.996  0.00  0.00    +0.000 A 
ATOM     22  C   UNL     1       5.029   4.454  15.692  0.00  0.00    +0.000 A 
ATOM     23  C   UNL     1       6.112   5.281  15.388  0.00  0.00    +0.000 A 
ATOM     24  C   UNL     1       6.989   5.677  16.394  0.00  0.00    +0.000 A 
ATOM     25  C   UNL     1       6.789   5.255  17.712  0.00  0.00    +0.000 A 
ATOM     26  C   UNL     1       5.705   4.403  18.002  0.00  0.00    +0.000 A 
BRANCH  25  27
ATOM     27  C   UNL     1       7.707   5.705  18.821  0.00  0.00    +0.000 C 
ATOM     28  F   UNL     1       7.092   5.791  20.035  0.00  0.00    +0.000 F 
ATOM     29  F   UNL     1       8.760   4.859  18.997  0.00  0.00    +0.000 F 
ATOM     30  F   UNL     1       8.247   6.933  18.594  0.00  0.00    +0.000 F 
ENDBRANCH  25  27
ENDBRANCH   8  21
TORSDOF 3
ENDMDL
