MODEL 1
REMARK VINA RESULT:      -9.3      0.000      0.000
REMARK  Name = 
REMARK  5 active torsions:
REMARK  status: ('A' for Active; 'I' for Inactive)
REMARK    1  A    between atoms: C_2  and  C_3
REMARK    2  A    between atoms: C_3  and  C_4
REMARK    3  A    between atoms: C_4  and  C_5
REMARK    4  A    between atoms: N_14  and  C_15
REMARK    5  A    between atoms: C_15  and  C_16
REMARK                            x       y       z     vdW  Elec       q    Type
REMARK                         _______ _______ _______ _____ _____    ______ ____
ROOT
ATOM      1  C   UNL     1       3.539   6.989  17.439  0.00  0.00    +0.000 A 
ATOM      2  N   UNL     1       2.561   6.235  17.851  0.00  0.00    +0.000 NA
ATOM      3  C   UNL     1       2.749   4.847  17.823  0.00  0.00    +0.000 A 
ATOM      4  C   UNL     1       1.677   4.052  18.250  0.00  0.00    +0.000 A 
ATOM      5  C   UNL     1       1.797   2.668  18.342  0.00  0.00    +0.000 A 
ATOM      6 CL   UNL     1       0.475   1.709  18.845  0.00  0.00    +0.000 Cl
ATOM      7  C   UNL     1       3.016   2.064  18.025  0.00  0.00    +0.000 A 
ATOM      8  C   UNL     1       4.093   2.846  17.581  0.00  0.00    +0.000 A 
ATOM      9  C   UNL     1       3.958   4.237  17.449  0.00  0.00    +0.000 A 
ATOM     10  N   UNL     1       5.005   5.070  16.943  0.00  0.00    +0.000 N 
ATOM     11  C   UNL     1       4.807   6.439  16.822  0.00  0.00    +0.000 A 
ATOM     12  O   UNL     1       5.583   7.221  16.274  0.00  0.00    +0.000 OA
ENDROOT
BRANCH   1  13
ATOM     13  C   UNL     1       3.452   8.487  17.650  0.00  0.00    +0.000 C 
BRANCH  13  14
ATOM     14  C   UNL     1       1.999   8.881  17.896  0.00  0.00    +0.000 C 
BRANCH  14  16
ATOM     15  O   UNL     1       2.398  11.173  17.489  0.00  0.00    +0.000 OA
ATOM     16  C   UNL     1       1.834  10.349  18.219  0.00  0.00    +0.000 C 
ATOM     17  N   UNL     1       1.002  10.759  19.222  0.00  0.00    +0.000 N 
ATOM     18  C   UNL     1       0.710  12.196  19.417  0.00  0.00    +0.000 C 
ATOM     19  C   UNL     1      -0.693  12.176  20.000  0.00  0.00    +0.000 C 
ATOM     20  C   UNL     1      -0.442  11.044  20.954  0.00  0.00    +0.000 A 
ATOM     21  C   UNL     1      -0.791  10.942  22.286  0.00  0.00    +0.000 A 
ATOM     22  C   UNL     1      -0.291   9.854  22.997  0.00  0.00    +0.000 A 
ATOM     23  C   UNL     1       0.445   8.847  22.346  0.00  0.00    +0.000 A 
ATOM     24  C   UNL     1       0.793   8.960  20.995  0.00  0.00    +0.000 A 
ATOM     25  C   UNL     1       0.434  10.122  20.348  0.00  0.00    +0.000 A 
ENDBRANCH  14  16
ENDBRANCH  13  14
ENDBRANCH   1  13
BRANCH  10  26
ATOM     26  C   UNL     1       6.298   4.530  16.527  0.00  0.00    +0.000 C 
BRANCH  26  27
ATOM     27  C   UNL     1       6.424   4.430  15.021  0.00  0.00    +0.000 A 
ATOM     28  C   UNL     1       5.529   3.655  14.271  0.00  0.00    +0.000 A 
ATOM     29  C   UNL     1       5.696   3.517  12.891  0.00  0.00    +0.000 A 
ATOM     30  C   UNL     1       6.744   4.166  12.243  0.00  0.00    +0.000 A 
ATOM     31  C   UNL     1       7.616   4.971  12.969  0.00  0.00    +0.000 A 
ATOM     32  C   UNL     1       7.450   5.109  14.347  0.00  0.00    +0.000 A 
ENDBRANCH  26  27
ENDBRANCH  10  26
TORSDOF 5
ENDMDL
MODEL 2
REMARK VINA RESULT:      -9.2      1.239      1.543
REMARK  Name = 
REMARK  5 active torsions:
REMARK  status: ('A' for Active; 'I' for Inactive)
REMARK    1  A    between atoms: C_2  and  C_3
REMARK    2  A    between atoms: C_3  and  C_4
REMARK    3  A    between atoms: C_4  and  C_5
REMARK    4  A    between atoms: N_14  and  C_15
REMARK    5  A    between atoms: C_15  and  C_16
REMARK                            x       y       z     vdW  Elec       q    Type
REMARK                         _______ _______ _______ _____ _____    ______ ____
ROOT
ATOM      1  C   UNL     1       3.170   7.166  17.966  0.00  0.00    +0.000 A 
ATOM      2  N   UNL     1       2.392   6.517  18.783  0.00  0.00    +0.000 NA
ATOM      3  C   UNL     1       2.820   5.262  19.237  0.00  0.00    +0.000 A 
ATOM      4  C   UNL     1       1.959   4.570  20.099  0.00  0.00    +0.000 A 
ATOM      5  C   UNL     1       2.333   3.359  20.673  0.00  0.00    +0.000 A 
ATOM      6 CL   UNL     1       1.265   2.515  21.706  0.00  0.00    +0.000 Cl
ATOM      7  C   UNL     1       3.600   2.835  20.402  0.00  0.00    +0.000 A 
ATOM      8  C   UNL     1       4.467   3.509  19.529  0.00  0.00    +0.000 A 
ATOM      9  C   UNL     1       4.072   4.711  18.918  0.00  0.00    +0.000 A 
ATOM     10  N   UNL     1       4.894   5.403  17.974  0.00  0.00    +0.000 N 
ATOM     11  C   UNL     1       4.443   6.581  17.393  0.00  0.00    +0.000 A 
ATOM     12  O   UNL     1       5.004   7.177  16.474  0.00  0.00    +0.000 OA
ENDROOT
BRANCH   1  13
ATOM     13  C   UNL     1       2.840   8.603  17.622  0.00  0.00    +0.000 C 
BRANCH  13  14
ATOM     14  C   UNL     1       1.580   9.027  18.369  0.00  0.00    +0.000 C 
BRANCH  14  16
ATOM     15  O   UNL     1       2.228  11.261  17.955  0.00  0.00    +0.000 OA
ATOM     16  C   UNL     1       1.537  10.512  18.655  0.00  0.00    +0.000 C 
ATOM     17  N   UNL     1       0.681  11.022  19.589  0.00  0.00    +0.000 N 
ATOM     18  C   UNL     1       0.517  12.486  19.739  0.00  0.00    +0.000 C 
ATOM     19  C   UNL     1      -0.918  12.614  20.220  0.00  0.00    +0.000 C 
ATOM     20  C   UNL     1      -0.846  11.485  21.207  0.00  0.00    +0.000 A 
ATOM     21  C   UNL     1      -1.296  11.448  22.513  0.00  0.00    +0.000 A 
ATOM     22  C   UNL     1      -0.956  10.333  23.276  0.00  0.00    +0.000 A 
ATOM     23  C   UNL     1      -0.278   9.245  22.695  0.00  0.00    +0.000 A 
ATOM     24  C   UNL     1       0.173   9.293  21.371  0.00  0.00    +0.000 A 
ATOM     25  C   UNL     1      -0.024  10.469  20.681  0.00  0.00    +0.000 A 
ENDBRANCH  14  16
ENDBRANCH  13  14
ENDBRANCH   1  13
BRANCH  10  26
ATOM     26  C   UNL     1       6.212   4.908  17.578  0.00  0.00    +0.000 C 
BRANCH  26  27
ATOM     27  C   UNL     1       6.287   4.591  16.099  0.00  0.00    +0.000 A 
ATOM     28  C   UNL     1       7.331   5.087  15.306  0.00  0.00    +0.000 A 
ATOM     29  C   UNL     1       7.353   4.844  13.931  0.00  0.00    +0.000 A 
ATOM     30  C   UNL     1       6.347   4.086  13.337  0.00  0.00    +0.000 A 
ATOM     31  C   UNL     1       5.327   3.552  14.119  0.00  0.00    +0.000 A 
ATOM     32  C   UNL     1       5.305   3.796  15.492  0.00  0.00    +0.000 A 
ENDBRANCH  26  27
ENDBRANCH  10  26
TORSDOF 5
ENDMDL
MODEL 3
REMARK VINA RESULT:      -9.2      1.645      2.263
REMARK  Name = 
REMARK  5 active torsions:
REMARK  status: ('A' for Active; 'I' for Inactive)
REMARK    1  A    between atoms: C_2  and  C_3
REMARK    2  A    between atoms: C_3  and  C_4
REMARK    3  A    between atoms: C_4  and  C_5
REMARK    4  A    between atoms: N_14  and  C_15
REMARK    5  A    between atoms: C_15  and  C_16
REMARK                            x       y       z     vdW  Elec       q    Type
REMARK                         _______ _______ _______ _____ _____    ______ ____
ROOT
ATOM      1  C   UNL     1       3.274   7.046  17.572  0.00  0.00    +0.000 A 
ATOM      2  N   UNL     1       2.330   6.233  17.946  0.00  0.00    +0.000 NA
ATOM      3  C   UNL     1       2.598   4.857  17.910  0.00  0.00    +0.000 A 
ATOM      4  C   UNL     1       1.562   3.997  18.297  0.00  0.00    +0.000 A 
ATOM      5  C   UNL     1       1.759   2.622  18.379  0.00  0.00    +0.000 A 
ATOM      6 CL   UNL     1       0.480   1.583  18.832  0.00  0.00    +0.000 Cl
ATOM      7  C   UNL     1       3.020   2.093  18.094  0.00  0.00    +0.000 A 
ATOM      8  C   UNL     1       4.063   2.940  17.691  0.00  0.00    +0.000 A 
ATOM      9  C   UNL     1       3.852   4.323  17.568  0.00  0.00    +0.000 A 
ATOM     10  N   UNL     1       4.863   5.221  17.103  0.00  0.00    +0.000 N 
ATOM     11  C   UNL     1       4.590   6.577  16.989  0.00  0.00    +0.000 A 
ATOM     12  O   UNL     1       5.335   7.409  16.472  0.00  0.00    +0.000 OA
ENDROOT
BRANCH   1  13
ATOM     13  C   UNL     1       3.094   8.534  17.794  0.00  0.00    +0.000 C 
BRANCH  13  14
ATOM     14  C   UNL     1       1.610   8.879  17.738  0.00  0.00    +0.000 C 
BRANCH  14  16
ATOM     15  O   UNL     1       1.675   8.970  20.097  0.00  0.00    +0.000 OA
ATOM     16  C   UNL     1       1.051   9.295  19.080  0.00  0.00    +0.000 C 
ATOM     17  N   UNL     1      -0.053  10.095  19.164  0.00  0.00    +0.000 N 
ATOM     18  C   UNL     1      -0.489  10.642  20.469  0.00  0.00    +0.000 C 
ATOM     19  C   UNL     1      -1.146  11.954  20.079  0.00  0.00    +0.000 C 
ATOM     20  C   UNL     1      -1.893  11.403  18.899  0.00  0.00    +0.000 A 
ATOM     21  C   UNL     1      -3.211  11.603  18.540  0.00  0.00    +0.000 A 
ATOM     22  C   UNL     1      -3.711  10.839  17.487  0.00  0.00    +0.000 A 
ATOM     23  C   UNL     1      -2.865   9.985  16.755  0.00  0.00    +0.000 A 
ATOM     24  C   UNL     1      -1.530   9.790  17.127  0.00  0.00    +0.000 A 
ATOM     25  C   UNL     1      -1.097  10.424  18.271  0.00  0.00    +0.000 A 
ENDBRANCH  14  16
ENDBRANCH  13  14
ENDBRANCH   1  13
BRANCH  10  26
ATOM     26  C   UNL     1       6.198   4.760  16.721  0.00  0.00    +0.000 C 
BRANCH  26  27
ATOM     27  C   UNL     1       6.341   4.581  15.224  0.00  0.00    +0.000 A 
ATOM     28  C   UNL     1       5.421   3.811  14.498  0.00  0.00    +0.000 A 
ATOM     29  C   UNL     1       5.601   3.598  13.130  0.00  0.00    +0.000 A 
ATOM     30  C   UNL     1       6.686   4.167  12.468  0.00  0.00    +0.000 A 
ATOM     31  C   UNL     1       7.584   4.968  13.169  0.00  0.00    +0.000 A 
ATOM     32  C   UNL     1       7.405   5.180  14.535  0.00  0.00    +0.000 A 
ENDBRANCH  26  27
ENDBRANCH  10  26
TORSDOF 5
ENDMDL
MODEL 4
REMARK VINA RESULT:      -9.0      2.152      2.857
REMARK  Name = 
REMARK  5 active torsions:
REMARK  status: ('A' for Active; 'I' for Inactive)
REMARK    1  A    between atoms: C_2  and  C_3
REMARK    2  A    between atoms: C_3  and  C_4
REMARK    3  A    between atoms: C_4  and  C_5
REMARK    4  A    between atoms: N_14  and  C_15
REMARK    5  A    between atoms: C_15  and  C_16
REMARK                            x       y       z     vdW  Elec       q    Type
REMARK                         _______ _______ _______ _____ _____    ______ ____
ROOT
ATOM      1  C   UNL     1       3.108   7.291  18.130  0.00  0.00    +0.000 A 
ATOM      2  N   UNL     1       2.337   6.593  18.914  0.00  0.00    +0.000 NA
ATOM      3  C   UNL     1       2.783   5.325  19.311  0.00  0.00    +0.000 A 
ATOM      4  C   UNL     1       1.930   4.581  20.137  0.00  0.00    +0.000 A 
ATOM      5  C   UNL     1       2.320   3.350  20.655  0.00  0.00    +0.000 A 
ATOM      6 CL   UNL     1       1.261   2.444  21.644  0.00  0.00    +0.000 Cl
ATOM      7  C   UNL     1       3.596   2.860  20.366  0.00  0.00    +0.000 A 
ATOM      8  C   UNL     1       4.455   3.586  19.528  0.00  0.00    +0.000 A 
ATOM      9  C   UNL     1       4.044   4.808  18.972  0.00  0.00    +0.000 A 
ATOM     10  N   UNL     1       4.858   5.556  18.065  0.00  0.00    +0.000 N 
ATOM     11  C   UNL     1       4.391   6.752  17.537  0.00  0.00    +0.000 A 
ATOM     12  O   UNL     1       4.946   7.399  16.648  0.00  0.00    +0.000 OA
ENDROOT
BRANCH   1  13
ATOM     13  C   UNL     1       2.757   8.738  17.852  0.00  0.00    +0.000 C 
BRANCH  13  14
ATOM     14  C   UNL     1       1.240   8.895  17.819  0.00  0.00    +0.000 C 
BRANCH  14  16
ATOM     15  O   UNL     1       1.315   9.491  20.104  0.00  0.00    +0.000 OA
ATOM     16  C   UNL     1       0.695   9.602  19.039  0.00  0.00    +0.000 C 
ATOM     17  N   UNL     1      -0.391  10.425  18.948  0.00  0.00    +0.000 N 
ATOM     18  C   UNL     1      -0.811  11.249  20.104  0.00  0.00    +0.000 C 
ATOM     19  C   UNL     1      -1.441  12.461  19.439  0.00  0.00    +0.000 C 
ATOM     20  C   UNL     1      -2.204  11.685  18.405  0.00  0.00    +0.000 A 
ATOM     21  C   UNL     1      -3.519  11.831  18.010  0.00  0.00    +0.000 A 
ATOM     22  C   UNL     1      -4.038  10.868  17.146  0.00  0.00    +0.000 A 
ATOM     23  C   UNL     1      -3.214   9.858  16.617  0.00  0.00    +0.000 A 
ATOM     24  C   UNL     1      -1.882   9.720  17.024  0.00  0.00    +0.000 A 
ATOM     25  C   UNL     1      -1.431  10.577  18.004  0.00  0.00    +0.000 A 
ENDBRANCH  14  16
ENDBRANCH  13  14
ENDBRANCH   1  13
BRANCH  10  26
ATOM     26  C   UNL     1       6.185   5.100  17.651  0.00  0.00    +0.000 C 
BRANCH  26  27
ATOM     27  C   UNL     1       6.227   4.698  16.191  0.00  0.00    +0.000 A 
ATOM     28  C   UNL     1       7.280   5.106  15.360  0.00  0.00    +0.000 A 
ATOM     29  C   UNL     1       7.274   4.786  14.001  0.00  0.00    +0.000 A 
ATOM     30  C   UNL     1       6.229   4.040  13.461  0.00  0.00    +0.000 A 
ATOM     31  C   UNL     1       5.198   3.593  14.283  0.00  0.00    +0.000 A 
ATOM     32  C   UNL     1       5.204   3.914  15.641  0.00  0.00    +0.000 A 
ENDBRANCH  26  27
ENDBRANCH  10  26
TORSDOF 5
ENDMDL
MODEL 5
REMARK VINA RESULT:      -8.7      3.975      9.173
REMARK  Name = 
REMARK  5 active torsions:
REMARK  status: ('A' for Active; 'I' for Inactive)
REMARK    1  A    between atoms: C_2  and  C_3
REMARK    2  A    between atoms: C_3  and  C_4
REMARK    3  A    between atoms: C_4  and  C_5
REMARK    4  A    between atoms: N_14  and  C_15
REMARK    5  A    between atoms: C_15  and  C_16
REMARK                            x       y       z     vdW  Elec       q    Type
REMARK                         _______ _______ _______ _____ _____    ______ ____
ROOT
ATOM      1  C   UNL     1       0.578  10.379  21.336  0.00  0.00    +0.000 A 
ATOM      2  N   UNL     1      -0.161  10.538  22.395  0.00  0.00    +0.000 NA
ATOM      3  C   UNL     1      -1.282  11.373  22.292  0.00  0.00    +0.000 A 
ATOM      4  C   UNL     1      -2.052  11.550  23.449  0.00  0.00    +0.000 A 
ATOM      5  C   UNL     1      -3.232  12.287  23.425  0.00  0.00    +0.000 A 
ATOM      6 CL   UNL     1      -4.150  12.512  24.849  0.00  0.00    +0.000 Cl
ATOM      7  C   UNL     1      -3.668  12.841  22.219  0.00  0.00    +0.000 A 
ATOM      8  C   UNL     1      -2.900  12.686  21.055  0.00  0.00    +0.000 A 
ATOM      9  C   UNL     1      -1.688  11.976  21.090  0.00  0.00    +0.000 A 
ATOM     10  N   UNL     1      -0.839  11.842  19.947  0.00  0.00    +0.000 N 
ATOM     11  C   UNL     1       0.354  11.140  20.047  0.00  0.00    +0.000 A 
ATOM     12  O   UNL     1       1.218  11.083  19.171  0.00  0.00    +0.000 OA
ENDROOT
BRANCH   1  13
ATOM     13  C   UNL     1       1.669   9.328  21.352  0.00  0.00    +0.000 C 
BRANCH  13  14
ATOM     14  C   UNL     1       1.189   8.087  20.607  0.00  0.00    +0.000 C 
BRANCH  14  16
ATOM     15  O   UNL     1       2.373   8.545  18.615  0.00  0.00    +0.000 OA
ATOM     16  C   UNL     1       2.103   7.692  19.469  0.00  0.00    +0.000 C 
ATOM     17  N   UNL     1       2.698   6.463  19.440  0.00  0.00    +0.000 N 
ATOM     18  C   UNL     1       3.725   6.148  18.421  0.00  0.00    +0.000 C 
ATOM     19  C   UNL     1       4.608   5.140  19.137  0.00  0.00    +0.000 C 
ATOM     20  C   UNL     1       3.479   4.349  19.731  0.00  0.00    +0.000 A 
ATOM     21  C   UNL     1       3.315   2.978  19.778  0.00  0.00    +0.000 A 
ATOM     22  C   UNL     1       2.091   2.496  20.237  0.00  0.00    +0.000 A 
ATOM     23  C   UNL     1       1.114   3.376  20.737  0.00  0.00    +0.000 A 
ATOM     24  C   UNL     1       1.291   4.764  20.687  0.00  0.00    +0.000 A 
ATOM     25  C   UNL     1       2.435   5.229  20.076  0.00  0.00    +0.000 A 
ENDBRANCH  14  16
ENDBRANCH  13  14
ENDBRANCH   1  13
BRANCH  10  26
ATOM     26  C   UNL     1      -1.175  12.435  18.653  0.00  0.00    +0.000 C 
BRANCH  26  27
ATOM     27  C   UNL     1      -2.095  11.552  17.836  0.00  0.00    +0.000 A 
ATOM     28  C   UNL     1      -1.600  10.439  17.142  0.00  0.00    +0.000 A 
ATOM     29  C   UNL     1      -2.445   9.672  16.337  0.00  0.00    +0.000 A 
ATOM     30  C   UNL     1      -3.796   9.995  16.233  0.00  0.00    +0.000 A 
ATOM     31  C   UNL     1      -4.310  11.073  16.949  0.00  0.00    +0.000 A 
ATOM     32  C   UNL     1      -3.465  11.839  17.751  0.00  0.00    +0.000 A 
ENDBRANCH  26  27
ENDBRANCH  10  26
TORSDOF 5
ENDMDL
MODEL 6
REMARK VINA RESULT:      -8.5      3.119     10.169
REMARK  Name = 
REMARK  5 active torsions:
REMARK  status: ('A' for Active; 'I' for Inactive)
REMARK    1  A    between atoms: C_2  and  C_3
REMARK    2  A    between atoms: C_3  and  C_4
REMARK    3  A    between atoms: C_4  and  C_5
REMARK    4  A    between atoms: N_14  and  C_15
REMARK    5  A    between atoms: C_15  and  C_16
REMARK                            x       y       z     vdW  Elec       q    Type
REMARK                         _______ _______ _______ _____ _____    ______ ____
ROOT
ATOM      1  C   UNL     1       0.666   9.053  20.635  0.00  0.00    +0.000 A 
ATOM      2  N   UNL     1       0.069   9.009  19.479  0.00  0.00    +0.000 NA
ATOM      3  C   UNL     1      -0.645  10.143  19.068  0.00  0.00    +0.000 A 
ATOM      4  C   UNL     1      -1.299  10.068  17.831  0.00  0.00    +0.000 A 
ATOM      5  C   UNL     1      -1.959  11.171  17.296  0.00  0.00    +0.000 A 
ATOM      6 CL   UNL     1      -2.770  11.059  15.796  0.00  0.00    +0.000 Cl
ATOM      7  C   UNL     1      -1.948  12.380  17.995  0.00  0.00    +0.000 A 
ATOM      8  C   UNL     1      -1.311  12.466  19.242  0.00  0.00    +0.000 A 
ATOM      9  C   UNL     1      -0.681  11.342  19.800  0.00  0.00    +0.000 A 
ATOM     10  N   UNL     1      -0.071  11.361  21.093  0.00  0.00    +0.000 N 
ATOM     11  C   UNL     1       0.525  10.213  21.597  0.00  0.00    +0.000 A 
ATOM     12  O   UNL     1       0.951  10.081  22.744  0.00  0.00    +0.000 OA
ENDROOT
BRANCH   1  13
ATOM     13  C   UNL     1       1.613   7.934  21.016  0.00  0.00    +0.000 C 
BRANCH  13  14
ATOM     14  C   UNL     1       2.188   7.304  19.752  0.00  0.00    +0.000 C 
BRANCH  14  16
ATOM     15  O   UNL     1       2.182   5.284  20.979  0.00  0.00    +0.000 OA
ATOM     16  C   UNL     1       2.508   5.835  19.920  0.00  0.00    +0.000 C 
ATOM     17  N   UNL     1       3.046   5.111  18.894  0.00  0.00    +0.000 N 
ATOM     18  C   UNL     1       3.191   3.643  19.004  0.00  0.00    +0.000 C 
ATOM     19  C   UNL     1       3.063   3.184  17.562  0.00  0.00    +0.000 C 
ATOM     20  C   UNL     1       3.938   4.259  16.985  0.00  0.00    +0.000 A 
ATOM     21  C   UNL     1       4.950   4.143  16.053  0.00  0.00    +0.000 A 
ATOM     22  C   UNL     1       5.728   5.273  15.808  0.00  0.00    +0.000 A 
ATOM     23  C   UNL     1       5.413   6.506  16.409  0.00  0.00    +0.000 A 
ATOM     24  C   UNL     1       4.385   6.613  17.353  0.00  0.00    +0.000 A 
ATOM     25  C   UNL     1       3.734   5.451  17.708  0.00  0.00    +0.000 A 
ENDBRANCH  14  16
ENDBRANCH  13  14
ENDBRANCH   1  13
BRANCH  10  26
ATOM     26  C   UNL     1      -0.058  12.560  21.931  0.00  0.00    +0.000 C 
BRANCH  26  27
ATOM     27  C   UNL     1      -1.420  12.871  22.514  0.00  0.00    +0.000 A 
ATOM     28  C   UNL     1      -1.966  14.159  22.426  0.00  0.00    +0.000 A 
ATOM     29  C   UNL     1      -3.193  14.450  23.027  0.00  0.00    +0.000 A 
ATOM     30  C   UNL     1      -3.897  13.456  23.702  0.00  0.00    +0.000 A 
ATOM     31  C   UNL     1      -3.386  12.162  23.761  0.00  0.00    +0.000 A 
ATOM     32  C   UNL     1      -2.160  11.872  23.163  0.00  0.00    +0.000 A 
ENDBRANCH  26  27
ENDBRANCH  10  26
TORSDOF 5
ENDMDL
MODEL 7
REMARK VINA RESULT:      -8.5      2.653      3.811
REMARK  Name = 
REMARK  5 active torsions:
REMARK  status: ('A' for Active; 'I' for Inactive)
REMARK    1  A    between atoms: C_2  and  C_3
REMARK    2  A    between atoms: C_3  and  C_4
REMARK    3  A    between atoms: C_4  and  C_5
REMARK    4  A    between atoms: N_14  and  C_15
REMARK    5  A    between atoms: C_15  and  C_16
REMARK                            x       y       z     vdW  Elec       q    Type
REMARK                         _______ _______ _______ _____ _____    ______ ____
ROOT
ATOM      1  C   UNL     1       2.013   7.229  19.927  0.00  0.00    +0.000 A 
ATOM      2  N   UNL     1       1.687   6.244  20.712  0.00  0.00    +0.000 NA
ATOM      3  C   UNL     1       2.220   4.979  20.431  0.00  0.00    +0.000 A 
ATOM      4  C   UNL     1       1.840   3.927  21.275  0.00  0.00    +0.000 A 
ATOM      5  C   UNL     1       2.385   2.654  21.132  0.00  0.00    +0.000 A 
ATOM      6 CL   UNL     1       1.896   1.376  22.155  0.00  0.00    +0.000 Cl
ATOM      7  C   UNL     1       3.346   2.429  20.144  0.00  0.00    +0.000 A 
ATOM      8  C   UNL     1       3.726   3.468  19.282  0.00  0.00    +0.000 A 
ATOM      9  C   UNL     1       3.145   4.741  19.401  0.00  0.00    +0.000 A 
ATOM     10  N   UNL     1       3.451   5.816  18.509  0.00  0.00    +0.000 N 
ATOM     11  C   UNL     1       2.834   7.049  18.668  0.00  0.00    +0.000 A 
ATOM     12  O   UNL     1       2.919   7.991  17.881  0.00  0.00    +0.000 OA
ENDROOT
BRANCH   1  13
ATOM     13  C   UNL     1       1.626   8.641  20.318  0.00  0.00    +0.000 C 
BRANCH  13  14
ATOM     14  C   UNL     1       0.609   8.591  21.453  0.00  0.00    +0.000 C 
BRANCH  14  16
ATOM     15  O   UNL     1       0.307  10.166  23.189  0.00  0.00    +0.000 OA
ATOM     16  C   UNL     1       0.237   9.963  21.971  0.00  0.00    +0.000 C 
ATOM     17  N   UNL     1      -0.066  10.980  21.110  0.00  0.00    +0.000 N 
ATOM     18  C   UNL     1      -0.256  12.359  21.613  0.00  0.00    +0.000 C 
ATOM     19  C   UNL     1       0.187  13.208  20.434  0.00  0.00    +0.000 C 
ATOM     20  C   UNL     1      -0.518  12.393  19.389  0.00  0.00    +0.000 A 
ATOM     21  C   UNL     1      -1.295  12.827  18.333  0.00  0.00    +0.000 A 
ATOM     22  C   UNL     1      -1.981  11.859  17.602  0.00  0.00    +0.000 A 
ATOM     23  C   UNL     1      -1.791  10.490  17.869  0.00  0.00    +0.000 A 
ATOM     24  C   UNL     1      -1.000  10.061  18.941  0.00  0.00    +0.000 A 
ATOM     25  C   UNL     1      -0.464  11.034  19.756  0.00  0.00    +0.000 A 
ENDBRANCH  14  16
ENDBRANCH  13  14
ENDBRANCH   1  13
BRANCH  10  26
ATOM     26  C   UNL     1       4.399   5.666  17.405  0.00  0.00    +0.000 C 
BRANCH  26  27
ATOM     27  C   UNL     1       5.787   6.153  17.766  0.00  0.00    +0.000 A 
ATOM     28  C   UNL     1       6.557   5.488  18.731  0.00  0.00    +0.000 A 
ATOM     29  C   UNL     1       7.807   5.985  19.105  0.00  0.00    +0.000 A 
ATOM     30  C   UNL     1       8.312   7.137  18.505  0.00  0.00    +0.000 A 
ATOM     31  C   UNL     1       7.576   7.784  17.516  0.00  0.00    +0.000 A 
ATOM     32  C   UNL     1       6.326   7.288  17.144  0.00  0.00    +0.000 A 
ENDBRANCH  26  27
ENDBRANCH  10  26
TORSDOF 5
ENDMDL
MODEL 8
REMARK VINA RESULT:      -8.4      3.734      9.798
REMARK  Name = 
REMARK  5 active torsions:
REMARK  status: ('A' for Active; 'I' for Inactive)
REMARK    1  A    between atoms: C_2  and  C_3
REMARK    2  A    between atoms: C_3  and  C_4
REMARK    3  A    between atoms: C_4  and  C_5
REMARK    4  A    between atoms: N_14  and  C_15
REMARK    5  A    between atoms: C_15  and  C_16
REMARK                            x       y       z     vdW  Elec       q    Type
REMARK                         _______ _______ _______ _____ _____    ______ ____
ROOT
ATOM      1  C   UNL     1       1.032  10.111  17.979  0.00  0.00    +0.000 A 
ATOM      2  N   UNL     1       2.093  10.866  17.991  0.00  0.00    +0.000 NA
ATOM      3  C   UNL     1       1.937  12.207  18.367  0.00  0.00    +0.000 A 
ATOM      4  C   UNL     1       3.086  13.009  18.352  0.00  0.00    +0.000 A 
ATOM      5  C   UNL     1       3.051  14.328  18.793  0.00  0.00    +0.000 A 
ATOM      6 CL   UNL     1       4.456  15.301  18.749  0.00  0.00    +0.000 Cl
ATOM      7  C   UNL     1       1.853  14.854  19.282  0.00  0.00    +0.000 A 
ATOM      8  C   UNL     1       0.691  14.069  19.289  0.00  0.00    +0.000 A 
ATOM      9  C   UNL     1       0.718  12.751  18.805  0.00  0.00    +0.000 A 
ATOM     10  N   UNL     1      -0.451  11.930  18.734  0.00  0.00    +0.000 N 
ATOM     11  C   UNL     1      -0.364  10.638  18.232  0.00  0.00    +0.000 A 
ATOM     12  O   UNL     1      -1.322   9.903  17.999  0.00  0.00    +0.000 OA
ENDROOT
BRANCH   1  13
ATOM     13  C   UNL     1       1.195   8.618  17.782  0.00  0.00    +0.000 C 
BRANCH  13  14
ATOM     14  C   UNL     1       2.468   8.150  18.480  0.00  0.00    +0.000 C 
BRANCH  14  16
ATOM     15  O   UNL     1       1.964   7.847  20.768  0.00  0.00    +0.000 OA
ATOM     16  C   UNL     1       2.193   7.286  19.690  0.00  0.00    +0.000 C 
ATOM     17  N   UNL     1       2.095   5.928  19.575  0.00  0.00    +0.000 N 
ATOM     18  C   UNL     1       1.652   5.106  20.724  0.00  0.00    +0.000 C 
ATOM     19  C   UNL     1       0.971   3.928  20.050  0.00  0.00    +0.000 C 
ATOM     20  C   UNL     1       2.020   3.732  18.995  0.00  0.00    +0.000 A 
ATOM     21  C   UNL     1       2.609   2.557  18.570  0.00  0.00    +0.000 A 
ATOM     22  C   UNL     1       3.685   2.663  17.690  0.00  0.00    +0.000 A 
ATOM     23  C   UNL     1       4.073   3.914  17.176  0.00  0.00    +0.000 A 
ATOM     24  C   UNL     1       3.468   5.099  17.614  0.00  0.00    +0.000 A 
ATOM     25  C   UNL     1       2.520   4.991  18.608  0.00  0.00    +0.000 A 
ENDBRANCH  14  16
ENDBRANCH  13  14
ENDBRANCH   1  13
BRANCH  10  26
ATOM     26  C   UNL     1      -1.765  12.406  19.164  0.00  0.00    +0.000 C 
BRANCH  26  27
ATOM     27  C   UNL     1      -1.997  12.198  20.646  0.00  0.00    +0.000 A 
ATOM     28  C   UNL     1      -3.126  12.731  21.282  0.00  0.00    +0.000 A 
ATOM     29  C   UNL     1      -3.295  12.590  22.662  0.00  0.00    +0.000 A 
ATOM     30  C   UNL     1      -2.350  11.899  23.416  0.00  0.00    +0.000 A 
ATOM     31  C   UNL     1      -1.244  11.330  22.791  0.00  0.00    +0.000 A 
ATOM     32  C   UNL     1      -1.076  11.471  21.414  0.00  0.00    +0.000 A 
ENDBRANCH  26  27
ENDBRANCH  10  26
TORSDOF 5
ENDMDL
MODEL 9
REMARK VINA RESULT:      -8.4      3.326     10.176
REMARK  Name = 
REMARK  5 active torsions:
REMARK  status: ('A' for Active; 'I' for Inactive)
REMARK    1  A    between atoms: C_2  and  C_3
REMARK    2  A    between atoms: C_3  and  C_4
REMARK    3  A    between atoms: C_4  and  C_5
REMARK    4  A    between atoms: N_14  and  C_15
REMARK    5  A    between atoms: C_15  and  C_16
REMARK                            x       y       z     vdW  Elec       q    Type
REMARK                         _______ _______ _______ _____ _____    ______ ____
ROOT
ATOM      1  C   UNL     1       1.251  10.275  18.571  0.00  0.00    +0.000 A 
ATOM      2  N   UNL     1       1.927  11.289  18.117  0.00  0.00    +0.000 NA
ATOM      3  C   UNL     1       1.987  12.444  18.910  0.00  0.00    +0.000 A 
ATOM      4  C   UNL     1       2.702  13.533  18.394  0.00  0.00    +0.000 A 
ATOM      5  C   UNL     1       2.893  14.690  19.144  0.00  0.00    +0.000 A 
ATOM      6 CL   UNL     1       3.749  16.019  18.494  0.00  0.00    +0.000 Cl
ATOM      7  C   UNL     1       2.383  14.756  20.443  0.00  0.00    +0.000 A 
ATOM      8  C   UNL     1       1.652  13.680  20.967  0.00  0.00    +0.000 A 
ATOM      9  C   UNL     1       1.425  12.529  20.194  0.00  0.00    +0.000 A 
ATOM     10  N   UNL     1       0.635  11.430  20.659  0.00  0.00    +0.000 N 
ATOM     11  C   UNL     1       0.434  10.325  19.844  0.00  0.00    +0.000 A 
ATOM     12  O   UNL     1      -0.335   9.396  20.088  0.00  0.00    +0.000 OA
ENDROOT
BRANCH   1  13
ATOM     13  C   UNL     1       1.337   8.949  17.843  0.00  0.00    +0.000 C 
BRANCH  13  14
ATOM     14  C   UNL     1       2.726   8.350  18.042  0.00  0.00    +0.000 C 
BRANCH  14  16
ATOM     15  O   UNL     1       2.155   7.047  19.928  0.00  0.00    +0.000 OA
ATOM     16  C   UNL     1       2.701   7.053  18.818  0.00  0.00    +0.000 C 
ATOM     17  N   UNL     1       3.175   5.896  18.267  0.00  0.00    +0.000 N 
ATOM     18  C   UNL     1       2.987   4.601  18.960  0.00  0.00    +0.000 C 
ATOM     19  C   UNL     1       2.915   3.613  17.808  0.00  0.00    +0.000 C 
ATOM     20  C   UNL     1       4.057   4.203  17.033  0.00  0.00    +0.000 A 
ATOM     21  C   UNL     1       5.112   3.557  16.420  0.00  0.00    +0.000 A 
ATOM     22  C   UNL     1       6.137   4.349  15.906  0.00  0.00    +0.000 A 
ATOM     23  C   UNL     1       6.034   5.752  15.917  0.00  0.00    +0.000 A 
ATOM     24  C   UNL     1       4.960   6.398  16.541  0.00  0.00    +0.000 A 
ATOM     25  C   UNL     1       4.041   5.604  17.190  0.00  0.00    +0.000 A 
ENDBRANCH  14  16
ENDBRANCH  13  14
ENDBRANCH   1  13
BRANCH  10  26
ATOM     26  C   UNL     1       0.008  11.426  21.980  0.00  0.00    +0.000 C 
BRANCH  26  27
ATOM     27  C   UNL     1      -1.406  11.969  21.949  0.00  0.00    +0.000 A 
ATOM     28  C   UNL     1      -1.940  12.524  20.778  0.00  0.00    +0.000 A 
ATOM     29  C   UNL     1      -3.221  13.082  20.779  0.00  0.00    +0.000 A 
ATOM     30  C   UNL     1      -3.988  13.073  21.941  0.00  0.00    +0.000 A 
ATOM     31  C   UNL     1      -3.486  12.488  23.100  0.00  0.00    +0.000 A 
ATOM     32  C   UNL     1      -2.207  11.932  23.099  0.00  0.00    +0.000 A 
ENDBRANCH  26  27
ENDBRANCH  10  26
TORSDOF 5
ENDMDL
