MODEL 1
REMARK VINA RESULT:      -8.3      0.000      0.000
REMARK  Name = 
REMARK  3 active torsions:
REMARK  status: ('A' for Active; 'I' for Inactive)
REMARK    1  A    between atoms: C_7  and  C_8
REMARK    2  A    between atoms: N_10  and  C_11
REMARK    3  A    between atoms: C_11  and  C_12
REMARK                            x       y       z     vdW  Elec       q    Type
REMARK                         _______ _______ _______ _____ _____    ______ ____
ROOT
ATOM      1  C   UNL     1       2.586   6.167  18.907  0.00  0.00    +0.000 C 
ATOM      2  O   UNL     1       1.987   5.463  18.102  0.00  0.00    +0.000 OA
ATOM      3  N   UNL     1       3.840   5.880  19.396  0.00  0.00    +0.000 N 
ATOM      4  H   UNL     1       4.207   6.414  20.174  0.00  0.00    +0.000 HD
ENDROOT
BRANCH   1  11
ATOM      5  O   UNL     1      -1.333  12.045  22.055  0.00  0.00    +0.000 OA
ATOM      6  C   UNL     1      -0.634  11.064  21.819  0.00  0.00    +0.000 C 
ATOM      7  C   UNL     1      -0.243  10.074  22.888  0.00  0.00    +0.000 C 
ATOM      8  C   UNL     1      -0.074   8.663  22.347  0.00  0.00    +0.000 C 
ATOM      9  C   UNL     1       0.702   8.642  21.058  0.00  0.00    +0.000 A 
ATOM     10  C   UNL     1       1.363   7.480  20.632  0.00  0.00    +0.000 A 
ATOM     11  C   UNL     1       1.975   7.440  19.370  0.00  0.00    +0.000 A 
ATOM     12  C   UNL     1       1.943   8.577  18.561  0.00  0.00    +0.000 A 
ATOM     13  F   UNL     1       2.529   8.584  17.354  0.00  0.00    +0.000 F 
ATOM     14  C   UNL     1       1.284   9.731  18.967  0.00  0.00    +0.000 A 
ATOM     15  C   UNL     1       0.657   9.755  20.209  0.00  0.00    +0.000 A 
ATOM     16  N   UNL     1      -0.067  10.887  20.586  0.00  0.00    +0.000 N 
ATOM     17  H   UNL     1      -0.233  11.631  19.920  0.00  0.00    +0.000 HD
ENDBRANCH   1  11
BRANCH   3  18
ATOM     18  C   UNL     1       4.520   4.652  19.070  0.00  0.00    +0.000 C 
BRANCH  18  19
ATOM     19  C   UNL     1       5.171   4.654  17.715  0.00  0.00    +0.000 A 
ATOM     20  C   UNL     1       5.057   3.626  16.763  0.00  0.00    +0.000 A 
ATOM     21  C   UNL     1       5.822   3.642  15.577  0.00  0.00    +0.000 A 
ATOM     22  C   UNL     1       6.732   4.671  15.327  0.00  0.00    +0.000 A 
ATOM     23  C   UNL     1       6.853   5.653  16.283  0.00  0.00    +0.000 A 
ATOM     24  C   UNL     1       6.083   5.653  17.426  0.00  0.00    +0.000 A 
ATOM     25  O   UNL     1       6.404   6.690  18.253  0.00  0.00    +0.000 OA
ATOM     26  C   UNL     1       7.640   7.107  17.650  0.00  0.00    +0.000 C 
ATOM     27  O   UNL     1       7.764   6.666  16.283  0.00  0.00    +0.000 OA
ENDBRANCH  18  19
ENDBRANCH   3  18
TORSDOF 3
ENDMDL
MODEL 2
REMARK VINA RESULT:      -8.3      2.163      7.771
REMARK  Name = 
REMARK  3 active torsions:
REMARK  status: ('A' for Active; 'I' for Inactive)
REMARK    1  A    between atoms: C_7  and  C_8
REMARK    2  A    between atoms: N_10  and  C_11
REMARK    3  A    between atoms: C_11  and  C_12
REMARK                            x       y       z     vdW  Elec       q    Type
REMARK                         _______ _______ _______ _____ _____    ______ ____
ROOT
ATOM      1  C   UNL     1       1.850   5.566  20.286  0.00  0.00    +0.000 C 
ATOM      2  O   UNL     1       1.144   4.698  20.785  0.00  0.00    +0.000 OA
ATOM      3  N   UNL     1       1.802   6.895  20.643  0.00  0.00    +0.000 N 
ATOM      4  H   UNL     1       2.294   7.580  20.082  0.00  0.00    +0.000 HD
ENDROOT
BRANCH   1  11
ATOM      5  O   UNL     1       7.851   4.558  15.513  0.00  0.00    +0.000 OA
ATOM      6  C   UNL     1       7.084   4.649  16.466  0.00  0.00    +0.000 C 
ATOM      7  C   UNL     1       7.574   4.794  17.887  0.00  0.00    +0.000 C 
ATOM      8  C   UNL     1       6.624   5.604  18.754  0.00  0.00    +0.000 C 
ATOM      9  C   UNL     1       5.188   5.202  18.547  0.00  0.00    +0.000 A 
ATOM     10  C   UNL     1       4.218   5.461  19.527  0.00  0.00    +0.000 A 
ATOM     11  C   UNL     1       2.865   5.195  19.267  0.00  0.00    +0.000 A 
ATOM     12  C   UNL     1       2.504   4.643  18.037  0.00  0.00    +0.000 A 
ATOM     13  F   UNL     1       1.224   4.360  17.754  0.00  0.00    +0.000 F 
ATOM     14  C   UNL     1       3.454   4.390  17.054  0.00  0.00    +0.000 A 
ATOM     15  C   UNL     1       4.791   4.681  17.310  0.00  0.00    +0.000 A 
ATOM     16  N   UNL     1       5.734   4.496  16.298  0.00  0.00    +0.000 N 
ATOM     17  H   UNL     1       5.437   4.268  15.358  0.00  0.00    +0.000 HD
ENDBRANCH   1  11
BRANCH   3  18
ATOM     18  C   UNL     1       0.827   7.397  21.578  0.00  0.00    +0.000 C 
BRANCH  18  19
ATOM     19  C   UNL     1       0.597   8.879  21.484  0.00  0.00    +0.000 A 
ATOM     20  C   UNL     1      -0.063   9.656  22.452  0.00  0.00    +0.000 A 
ATOM     21  C   UNL     1      -0.366  11.014  22.214  0.00  0.00    +0.000 A 
ATOM     22  C   UNL     1      -0.040  11.618  20.998  0.00  0.00    +0.000 A 
ATOM     23  C   UNL     1       0.579  10.835  20.051  0.00  0.00    +0.000 A 
ATOM     24  C   UNL     1       0.903   9.518  20.296  0.00  0.00    +0.000 A 
ATOM     25  O   UNL     1       1.463   8.923  19.203  0.00  0.00    +0.000 OA
ATOM     26  C   UNL     1       1.146   9.905  18.203  0.00  0.00    +0.000 C 
ATOM     27  O   UNL     1       0.866  11.200  18.770  0.00  0.00    +0.000 OA
ENDBRANCH  18  19
ENDBRANCH   3  18
TORSDOF 3
ENDMDL
MODEL 3
REMARK VINA RESULT:      -8.2      2.504      8.265
REMARK  Name = 
REMARK  3 active torsions:
REMARK  status: ('A' for Active; 'I' for Inactive)
REMARK    1  A    between atoms: C_7  and  C_8
REMARK    2  A    between atoms: N_10  and  C_11
REMARK    3  A    between atoms: C_11  and  C_12
REMARK                            x       y       z     vdW  Elec       q    Type
REMARK                         _______ _______ _______ _____ _____    ______ ____
ROOT
ATOM      1  C   UNL     1       2.192   8.214  18.394  0.00  0.00    +0.000 C 
ATOM      2  O   UNL     1       2.252   8.792  17.315  0.00  0.00    +0.000 OA
ATOM      3  N   UNL     1       1.502   8.694  19.485  0.00  0.00    +0.000 N 
ATOM      4  H   UNL     1       1.626   8.251  20.387  0.00  0.00    +0.000 HD
ENDROOT
BRANCH   1  11
ATOM      5  O   UNL     1       5.194   1.397  20.471  0.00  0.00    +0.000 OA
ATOM      6  C   UNL     1       4.476   2.357  20.209  0.00  0.00    +0.000 C 
ATOM      7  C   UNL     1       3.072   2.488  20.748  0.00  0.00    +0.000 C 
ATOM      8  C   UNL     1       2.660   3.935  20.963  0.00  0.00    +0.000 C 
ATOM      9  C   UNL     1       3.048   4.812  19.803  0.00  0.00    +0.000 A 
ATOM     10  C   UNL     1       2.391   6.029  19.567  0.00  0.00    +0.000 A 
ATOM     11  C   UNL     1       2.848   6.892  18.559  0.00  0.00    +0.000 A 
ATOM     12  C   UNL     1       3.939   6.510  17.778  0.00  0.00    +0.000 A 
ATOM     13  F   UNL     1       4.397   7.299  16.795  0.00  0.00    +0.000 F 
ATOM     14  C   UNL     1       4.605   5.311  18.007  0.00  0.00    +0.000 A 
ATOM     15  C   UNL     1       4.163   4.472  19.027  0.00  0.00    +0.000 A 
ATOM     16  N   UNL     1       4.874   3.305  19.305  0.00  0.00    +0.000 N 
ATOM     17  H   UNL     1       5.764   3.130  18.855  0.00  0.00    +0.000 HD
ENDBRANCH   1  11
BRANCH   3  18
ATOM     18  C   UNL     1       0.869   9.988  19.475  0.00  0.00    +0.000 C 
BRANCH  18  19
ATOM     19  C   UNL     1       0.227  10.364  20.782  0.00  0.00    +0.000 A 
ATOM     20  C   UNL     1       0.298   9.606  21.964  0.00  0.00    +0.000 A 
ATOM     21  C   UNL     1      -0.458   9.958  23.102  0.00  0.00    +0.000 A 
ATOM     22  C   UNL     1      -1.319  11.058  23.078  0.00  0.00    +0.000 A 
ATOM     23  C   UNL     1      -1.399  11.771  21.903  0.00  0.00    +0.000 A 
ATOM     24  C   UNL     1      -0.636  11.445  20.802  0.00  0.00    +0.000 A 
ATOM     25  O   UNL     1      -0.913  12.253  19.738  0.00  0.00    +0.000 OA
ATOM     26  C   UNL     1      -2.125  12.866  20.208  0.00  0.00    +0.000 C 
ATOM     27  O   UNL     1      -2.261  12.792  21.641  0.00  0.00    +0.000 OA
ENDBRANCH  18  19
ENDBRANCH   3  18
TORSDOF 3
ENDMDL
MODEL 4
REMARK VINA RESULT:      -8.1      2.346      7.872
REMARK  Name = 
REMARK  3 active torsions:
REMARK  status: ('A' for Active; 'I' for Inactive)
REMARK    1  A    between atoms: C_7  and  C_8
REMARK    2  A    between atoms: N_10  and  C_11
REMARK    3  A    between atoms: C_11  and  C_12
REMARK                            x       y       z     vdW  Elec       q    Type
REMARK                         _______ _______ _______ _____ _____    ______ ____
ROOT
ATOM      1  C   UNL     1       1.712   5.682  20.448  0.00  0.00    +0.000 C 
ATOM      2  O   UNL     1       0.809   4.863  20.582  0.00  0.00    +0.000 OA
ATOM      3  N   UNL     1       1.659   6.970  20.931  0.00  0.00    +0.000 N 
ATOM      4  H   UNL     1       2.365   7.638  20.648  0.00  0.00    +0.000 HD
ENDROOT
BRANCH   1  11
ATOM      5  O   UNL     1       7.922   4.425  16.014  0.00  0.00    +0.000 OA
ATOM      6  C   UNL     1       7.034   4.886  16.724  0.00  0.00    +0.000 C 
ATOM      7  C   UNL     1       6.747   6.365  16.802  0.00  0.00    +0.000 C 
ATOM      8  C   UNL     1       5.279   6.664  17.066  0.00  0.00    +0.000 C 
ATOM      9  C   UNL     1       4.709   5.784  18.145  0.00  0.00    +0.000 A 
ATOM     10  C   UNL     1       3.566   6.170  18.861  0.00  0.00    +0.000 A 
ATOM     11  C   UNL     1       2.974   5.283  19.774  0.00  0.00    +0.000 A 
ATOM     12  C   UNL     1       3.554   4.031  19.980  0.00  0.00    +0.000 A 
ATOM     13  F   UNL     1       3.028   3.160  20.855  0.00  0.00    +0.000 F 
ATOM     14  C   UNL     1       4.681   3.633  19.271  0.00  0.00    +0.000 A 
ATOM     15  C   UNL     1       5.247   4.507  18.348  0.00  0.00    +0.000 A 
ATOM     16  N   UNL     1       6.334   4.081  17.583  0.00  0.00    +0.000 N 
ATOM     17  H   UNL     1       6.630   3.114  17.612  0.00  0.00    +0.000 HD
ENDBRANCH   1  11
BRANCH   3  18
ATOM     18  C   UNL     1       0.473   7.500  21.555  0.00  0.00    +0.000 C 
BRANCH  18  19
ATOM     19  C   UNL     1       0.393   9.001  21.539  0.00  0.00    +0.000 A 
ATOM     20  C   UNL     1      -0.222   9.787  22.529  0.00  0.00    +0.000 A 
ATOM     21  C   UNL     1      -0.381  11.179  22.361  0.00  0.00    +0.000 A 
ATOM     22  C   UNL     1       0.047  11.812  21.191  0.00  0.00    +0.000 A 
ATOM     23  C   UNL     1       0.619  11.023  20.220  0.00  0.00    +0.000 A 
ATOM     24  C   UNL     1       0.803   9.669  20.399  0.00  0.00    +0.000 A 
ATOM     25  O   UNL     1       1.341   9.080  19.292  0.00  0.00    +0.000 OA
ATOM     26  C   UNL     1       1.158  10.142  18.340  0.00  0.00    +0.000 C 
ATOM     27  O   UNL     1       0.986  11.426  18.972  0.00  0.00    +0.000 OA
ENDBRANCH  18  19
ENDBRANCH   3  18
TORSDOF 3
ENDMDL
MODEL 5
REMARK VINA RESULT:      -8.1      1.200      1.877
REMARK  Name = 
REMARK  3 active torsions:
REMARK  status: ('A' for Active; 'I' for Inactive)
REMARK    1  A    between atoms: C_7  and  C_8
REMARK    2  A    between atoms: N_10  and  C_11
REMARK    3  A    between atoms: C_11  and  C_12
REMARK                            x       y       z     vdW  Elec       q    Type
REMARK                         _______ _______ _______ _____ _____    ______ ____
ROOT
ATOM      1  C   UNL     1       2.534   6.451  19.064  0.00  0.00    +0.000 C 
ATOM      2  O   UNL     1       2.322   6.011  17.939  0.00  0.00    +0.000 OA
ATOM      3  N   UNL     1       3.398   5.871  19.965  0.00  0.00    +0.000 N 
ATOM      4  H   UNL     1       3.404   6.191  20.926  0.00  0.00    +0.000 HD
ENDROOT
BRANCH   1  11
ATOM      5  O   UNL     1      -1.616  12.242  22.073  0.00  0.00    +0.000 OA
ATOM      6  C   UNL     1      -0.881  11.282  21.860  0.00  0.00    +0.000 C 
ATOM      7  C   UNL     1      -0.469  10.323  22.950  0.00  0.00    +0.000 C 
ATOM      8  C   UNL     1      -0.246   8.910  22.433  0.00  0.00    +0.000 C 
ATOM      9  C   UNL     1       0.545   8.895  21.153  0.00  0.00    +0.000 A 
ATOM     10  C   UNL     1       1.249   7.749  20.754  0.00  0.00    +0.000 A 
ATOM     11  C   UNL     1       1.876   7.709  19.499  0.00  0.00    +0.000 A 
ATOM     12  C   UNL     1       1.815   8.831  18.671  0.00  0.00    +0.000 A 
ATOM     13  F   UNL     1       2.414   8.840  17.471  0.00  0.00    +0.000 F 
ATOM     14  C   UNL     1       1.113   9.970  19.051  0.00  0.00    +0.000 A 
ATOM     15  C   UNL     1       0.471   9.992  20.286  0.00  0.00    +0.000 A 
ATOM     16  N   UNL     1      -0.294  11.105  20.636  0.00  0.00    +0.000 N 
ATOM     17  H   UNL     1      -0.478  11.832  19.956  0.00  0.00    +0.000 HD
ENDBRANCH   1  11
BRANCH   3  18
ATOM     18  C   UNL     1       4.057   4.620  19.690  0.00  0.00    +0.000 C 
BRANCH  18  19
ATOM     19  C   UNL     1       5.383   4.768  18.996  0.00  0.00    +0.000 A 
ATOM     20  C   UNL     1       6.490   5.465  19.510  0.00  0.00    +0.000 A 
ATOM     21  C   UNL     1       7.645   5.680  18.727  0.00  0.00    +0.000 A 
ATOM     22  C   UNL     1       7.709   5.226  17.408  0.00  0.00    +0.000 A 
ATOM     23  C   UNL     1       6.605   4.573  16.911  0.00  0.00    +0.000 A 
ATOM     24  C   UNL     1       5.490   4.336  17.686  0.00  0.00    +0.000 A 
ATOM     25  O   UNL     1       4.501   3.719  16.977  0.00  0.00    +0.000 OA
ATOM     26  C   UNL     1       5.007   3.905  15.644  0.00  0.00    +0.000 C 
ATOM     27  O   UNL     1       6.425   4.165  15.623  0.00  0.00    +0.000 OA
ENDBRANCH  18  19
ENDBRANCH   3  18
TORSDOF 3
ENDMDL
MODEL 6
REMARK VINA RESULT:      -8.1      1.410      1.949
REMARK  Name = 
REMARK  3 active torsions:
REMARK  status: ('A' for Active; 'I' for Inactive)
REMARK    1  A    between atoms: C_7  and  C_8
REMARK    2  A    between atoms: N_10  and  C_11
REMARK    3  A    between atoms: C_11  and  C_12
REMARK                            x       y       z     vdW  Elec       q    Type
REMARK                         _______ _______ _______ _____ _____    ______ ____
ROOT
ATOM      1  C   UNL     1       2.729   7.312  18.284  0.00  0.00    +0.000 C 
ATOM      2  O   UNL     1       3.428   7.675  17.345  0.00  0.00    +0.000 OA
ATOM      3  N   UNL     1       2.638   6.008  18.716  0.00  0.00    +0.000 N 
ATOM      4  H   UNL     1       1.923   5.754  19.387  0.00  0.00    +0.000 HD
ENDROOT
BRANCH   1  11
ATOM      5  O   UNL     1      -1.748  11.535  22.968  0.00  0.00    +0.000 OA
ATOM      6  C   UNL     1      -0.913  10.791  22.462  0.00  0.00    +0.000 C 
ATOM      7  C   UNL     1      -0.173   9.746  23.261  0.00  0.00    +0.000 C 
ATOM      8  C   UNL     1       0.188   8.523  22.432  0.00  0.00    +0.000 C 
ATOM      9  C   UNL     1       0.745   8.897  21.086  0.00  0.00    +0.000 A 
ATOM     10  C   UNL     1       1.550   8.003  20.364  0.00  0.00    +0.000 A 
ATOM     11  C   UNL     1       1.956   8.317  19.058  0.00  0.00    +0.000 A 
ATOM     12  C   UNL     1       1.575   9.539  18.502  0.00  0.00    +0.000 A 
ATOM     13  F   UNL     1       1.954   9.884  17.262  0.00  0.00    +0.000 F 
ATOM     14  C   UNL     1       0.770  10.430  19.202  0.00  0.00    +0.000 A 
ATOM     15  C   UNL     1       0.349  10.100  20.487  0.00  0.00    +0.000 A 
ATOM     16  N   UNL     1      -0.518  10.960  21.162  0.00  0.00    +0.000 N 
ATOM     17  H   UNL     1      -0.930  11.750  20.682  0.00  0.00    +0.000 HD
ENDBRANCH   1  11
BRANCH   3  18
ATOM     18  C   UNL     1       3.292   4.929  18.020  0.00  0.00    +0.000 C 
BRANCH  18  19
ATOM     19  C   UNL     1       4.788   4.924  18.171  0.00  0.00    +0.000 A 
ATOM     20  C   UNL     1       5.485   5.320  19.326  0.00  0.00    +0.000 A 
ATOM     21  C   UNL     1       6.892   5.425  19.329  0.00  0.00    +0.000 A 
ATOM     22  C   UNL     1       7.632   5.161  18.173  0.00  0.00    +0.000 A 
ATOM     23  C   UNL     1       6.932   4.804  17.044  0.00  0.00    +0.000 A 
ATOM     24  C   UNL     1       5.560   4.671  17.051  0.00  0.00    +0.000 A 
ATOM     25  O   UNL     1       5.075   4.359  15.814  0.00  0.00    +0.000 OA
ATOM     26  C   UNL     1       6.241   4.636  15.020  0.00  0.00    +0.000 C 
ATOM     27  O   UNL     1       7.454   4.625  15.799  0.00  0.00    +0.000 OA
ENDBRANCH  18  19
ENDBRANCH   3  18
TORSDOF 3
ENDMDL
MODEL 7
REMARK VINA RESULT:      -8.0      2.362      8.303
REMARK  Name = 
REMARK  3 active torsions:
REMARK  status: ('A' for Active; 'I' for Inactive)
REMARK    1  A    between atoms: C_7  and  C_8
REMARK    2  A    between atoms: N_10  and  C_11
REMARK    3  A    between atoms: C_11  and  C_12
REMARK                            x       y       z     vdW  Elec       q    Type
REMARK                         _______ _______ _______ _____ _____    ______ ____
ROOT
ATOM      1  C   UNL     1       2.069   5.878  20.209  0.00  0.00    +0.000 C 
ATOM      2  O   UNL     1       1.265   5.172  20.806  0.00  0.00    +0.000 OA
ATOM      3  N   UNL     1       2.199   7.234  20.411  0.00  0.00    +0.000 N 
ATOM      4  H   UNL     1       2.765   7.781  19.774  0.00  0.00    +0.000 HD
ENDROOT
BRANCH   1  11
ATOM      5  O   UNL     1       6.632   3.658  14.372  0.00  0.00    +0.000 OA
ATOM      6  C   UNL     1       6.067   4.239  15.294  0.00  0.00    +0.000 C 
ATOM      7  C   UNL     1       6.191   5.728  15.508  0.00  0.00    +0.000 C 
ATOM      8  C   UNL     1       4.943   6.337  16.127  0.00  0.00    +0.000 C 
ATOM      9  C   UNL     1       4.416   5.509  17.267  0.00  0.00    +0.000 A 
ATOM     10  C   UNL     1       3.594   6.077  18.252  0.00  0.00    +0.000 A 
ATOM     11  C   UNL     1       3.009   5.265  19.236  0.00  0.00    +0.000 A 
ATOM     12  C   UNL     1       3.281   3.896  19.239  0.00  0.00    +0.000 A 
ATOM     13  F   UNL     1       2.754   3.088  20.171  0.00  0.00    +0.000 F 
ATOM     14  C   UNL     1       4.086   3.319  18.265  0.00  0.00    +0.000 A 
ATOM     15  C   UNL     1       4.641   4.127  17.276  0.00  0.00    +0.000 A 
ATOM     16  N   UNL     1       5.389   3.538  16.255  0.00  0.00    +0.000 N 
ATOM     17  H   UNL     1       5.428   2.531  16.167  0.00  0.00    +0.000 HD
ENDBRANCH   1  11
BRANCH   3  18
ATOM     18  C   UNL     1       1.313   7.961  21.285  0.00  0.00    +0.000 C 
BRANCH  18  19
ATOM     19  C   UNL     1       0.633   9.130  20.630  0.00  0.00    +0.000 A 
ATOM     20  C   UNL     1       0.934   9.627  19.350  0.00  0.00    +0.000 A 
ATOM     21  C   UNL     1       0.350  10.820  18.874  0.00  0.00    +0.000 A 
ATOM     22  C   UNL     1      -0.528  11.555  19.674  0.00  0.00    +0.000 A 
ATOM     23  C   UNL     1      -0.789  11.071  20.935  0.00  0.00    +0.000 A 
ATOM     24  C   UNL     1      -0.242   9.889  21.387  0.00  0.00    +0.000 A 
ATOM     25  O   UNL     1      -0.597   9.629  22.679  0.00  0.00    +0.000 OA
ATOM     26  C   UNL     1      -1.131  10.912  23.047  0.00  0.00    +0.000 C 
ATOM     27  O   UNL     1      -1.515  11.698  21.901  0.00  0.00    +0.000 OA
ENDBRANCH  18  19
ENDBRANCH   3  18
TORSDOF 3
ENDMDL
MODEL 8
REMARK VINA RESULT:      -8.0      1.329      1.886
REMARK  Name = 
REMARK  3 active torsions:
REMARK  status: ('A' for Active; 'I' for Inactive)
REMARK    1  A    between atoms: C_7  and  C_8
REMARK    2  A    between atoms: N_10  and  C_11
REMARK    3  A    between atoms: C_11  and  C_12
REMARK                            x       y       z     vdW  Elec       q    Type
REMARK                         _______ _______ _______ _____ _____    ______ ____
ROOT
ATOM      1  C   UNL     1       2.397   6.251  19.591  0.00  0.00    +0.000 C 
ATOM      2  O   UNL     1       2.449   5.415  20.485  0.00  0.00    +0.000 OA
ATOM      3  N   UNL     1       2.850   6.035  18.309  0.00  0.00    +0.000 N 
ATOM      4  H   UNL     1       2.925   6.815  17.668  0.00  0.00    +0.000 HD
ENDROOT
BRANCH   1  11
ATOM      5  O   UNL     1      -1.648  12.481  21.743  0.00  0.00    +0.000 OA
ATOM      6  C   UNL     1      -0.944  11.479  21.673  0.00  0.00    +0.000 C 
ATOM      7  C   UNL     1      -0.617  10.634  22.880  0.00  0.00    +0.000 C 
ATOM      8  C   UNL     1      -0.428   9.166  22.533  0.00  0.00    +0.000 C 
ATOM      9  C   UNL     1       0.417   8.980  21.302  0.00  0.00    +0.000 A 
ATOM     10  C   UNL     1       1.092   7.774  21.065  0.00  0.00    +0.000 A 
ATOM     11  C   UNL     1       1.771   7.572  19.853  0.00  0.00    +0.000 A 
ATOM     12  C   UNL     1       1.790   8.596  18.905  0.00  0.00    +0.000 A 
ATOM     13  F   UNL     1       2.440   8.449  17.741  0.00  0.00    +0.000 F 
ATOM     14  C   UNL     1       1.118   9.793  19.123  0.00  0.00    +0.000 A 
ATOM     15  C   UNL     1       0.424   9.975  20.316  0.00  0.00    +0.000 A 
ATOM     16  N   UNL     1      -0.311  11.146  20.505  0.00  0.00    +0.000 N 
ATOM     17  H   UNL     1      -0.437  11.798  19.742  0.00  0.00    +0.000 HD
ENDBRANCH   1  11
BRANCH   3  18
ATOM     18  C   UNL     1       3.527   4.818  17.937  0.00  0.00    +0.000 C 
BRANCH  18  19
ATOM     19  C   UNL     1       5.017   4.863  18.136  0.00  0.00    +0.000 A 
ATOM     20  C   UNL     1       5.663   5.346  19.288  0.00  0.00    +0.000 A 
ATOM     21  C   UNL     1       7.067   5.490  19.330  0.00  0.00    +0.000 A 
ATOM     22  C   UNL     1       7.852   5.178  18.218  0.00  0.00    +0.000 A 
ATOM     23  C   UNL     1       7.200   4.736  17.090  0.00  0.00    +0.000 A 
ATOM     24  C   UNL     1       5.833   4.566  17.059  0.00  0.00    +0.000 A 
ATOM     25  O   UNL     1       5.399   4.168  15.829  0.00  0.00    +0.000 OA
ATOM     26  C   UNL     1       6.584   4.429  15.058  0.00  0.00    +0.000 C 
ATOM     27  O   UNL     1       7.769   4.498  15.875  0.00  0.00    +0.000 OA
ENDBRANCH  18  19
ENDBRANCH   3  18
TORSDOF 3
ENDMDL
MODEL 9
REMARK VINA RESULT:      -8.0      2.820      8.036
REMARK  Name = 
REMARK  3 active torsions:
REMARK  status: ('A' for Active; 'I' for Inactive)
REMARK    1  A    between atoms: C_7  and  C_8
REMARK    2  A    between atoms: N_10  and  C_11
REMARK    3  A    between atoms: C_11  and  C_12
REMARK                            x       y       z     vdW  Elec       q    Type
REMARK                         _______ _______ _______ _____ _____    ______ ____
ROOT
ATOM      1  C   UNL     1       2.213   8.506  18.171  0.00  0.00    +0.000 C 
ATOM      2  O   UNL     1       2.388   9.080  17.102  0.00  0.00    +0.000 OA
ATOM      3  N   UNL     1       1.458   9.017  19.203  0.00  0.00    +0.000 N 
ATOM      4  H   UNL     1       1.486   8.569  20.111  0.00  0.00    +0.000 HD
ENDROOT
BRANCH   1  11
ATOM      5  O   UNL     1       4.876   1.634  20.515  0.00  0.00    +0.000 OA
ATOM      6  C   UNL     1       4.208   2.622  20.226  0.00  0.00    +0.000 C 
ATOM      7  C   UNL     1       2.836   2.868  20.805  0.00  0.00    +0.000 C 
ATOM      8  C   UNL     1       2.520   4.348  20.955  0.00  0.00    +0.000 C 
ATOM      9  C   UNL     1       2.915   5.136  19.735  0.00  0.00    +0.000 A 
ATOM     10  C   UNL     1       2.325   6.378  19.455  0.00  0.00    +0.000 A 
ATOM     11  C   UNL     1       2.794   7.156  18.386  0.00  0.00    +0.000 A 
ATOM     12  C   UNL     1       3.830   6.666  17.590  0.00  0.00    +0.000 A 
ATOM     13  F   UNL     1       4.297   7.373  16.550  0.00  0.00    +0.000 F 
ATOM     14  C   UNL     1       4.430   5.442  17.862  0.00  0.00    +0.000 A 
ATOM     15  C   UNL     1       3.978   4.688  18.940  0.00  0.00    +0.000 A 
ATOM     16  N   UNL     1       4.628   3.494  19.257  0.00  0.00    +0.000 N 
ATOM     17  H   UNL     1       5.487   3.241  18.788  0.00  0.00    +0.000 HD
ENDBRANCH   1  11
BRANCH   3  18
ATOM     18  C   UNL     1       0.885  10.338  19.145  0.00  0.00    +0.000 C 
BRANCH  18  19
ATOM     19  C   UNL     1      -0.543  10.365  18.677  0.00  0.00    +0.000 A 
ATOM     20  C   UNL     1      -1.026   9.728  17.521  0.00  0.00    +0.000 A 
ATOM     21  C   UNL     1      -2.351   9.929  17.077  0.00  0.00    +0.000 A 
ATOM     22  C   UNL     1      -3.213  10.788  17.762  0.00  0.00    +0.000 A 
ATOM     23  C   UNL     1      -2.714  11.427  18.874  0.00  0.00    +0.000 A 
ATOM     24  C   UNL     1      -1.431  11.205  19.325  0.00  0.00    +0.000 A 
ATOM     25  O   UNL     1      -1.135  11.979  20.410  0.00  0.00    +0.000 OA
ATOM     26  C   UNL     1      -2.237  12.901  20.358  0.00  0.00    +0.000 C 
ATOM     27  O   UNL     1      -3.351  12.386  19.602  0.00  0.00    +0.000 OA
ENDBRANCH  18  19
ENDBRANCH   3  18
TORSDOF 3
ENDMDL
