MODEL 1
REMARK VINA RESULT:      -8.4      0.000      0.000
REMARK  Name = 
REMARK  5 active torsions:
REMARK  status: ('A' for Active; 'I' for Inactive)
REMARK    1  A    between atoms: C_1  and  C_2
REMARK    2  A    between atoms: C_4  and  C_5
REMARK    3  A    between atoms: C_5  and  O_6
REMARK    4  A    between atoms: O_6  and  C_7
REMARK    5  A    between atoms: C_12  and  C_13
REMARK                            x       y       z     vdW  Elec       q    Type
REMARK                         _______ _______ _______ _____ _____    ______ ____
ROOT
ATOM      1  C   UNL     1       3.537   4.164  18.241  0.00  0.00    +0.000 A 
ATOM      2  C   UNL     1       3.865   2.934  17.647  0.00  0.00    +0.000 A 
ATOM      3  C   UNL     1       3.176   1.773  17.999  0.00  0.00    +0.000 A 
ATOM      4  C   UNL     1       2.162   1.826  18.944  0.00  0.00    +0.000 A 
ATOM      5  C   UNL     1       1.841   3.042  19.554  0.00  0.00    +0.000 A 
ATOM      6  C   UNL     1       2.522   4.228  19.226  0.00  0.00    +0.000 A 
ENDROOT
BRANCH   6   7
ATOM      7  C   UNL     1       2.091   5.506  19.939  0.00  0.00    +0.000 C 
ATOM      8  O   UNL     1       1.643   5.437  21.080  0.00  0.00    +0.000 OA
ATOM      9  N   UNL     1       2.200   6.646  19.188  0.00  0.00    +0.000 N 
ATOM     10  C   UNL     1       1.795   7.906  19.517  0.00  0.00    +0.000 A 
ATOM     11  N   UNL     1       1.461   8.468  20.648  0.00  0.00    +0.000 NA
ATOM     12  C   UNL     1       1.062   9.782  20.404  0.00  0.00    +0.000 A 
ATOM     13  C   UNL     1       0.649  10.738  21.361  0.00  0.00    +0.000 A 
ATOM     14  C   UNL     1       0.187  11.994  20.940  0.00  0.00    +0.000 A 
ATOM     15  C   UNL     1       0.134  12.299  19.587  0.00  0.00    +0.000 A 
ATOM     16  F   UNL     1      -0.352  13.485  19.198  0.00  0.00    +0.000 F 
ATOM     17  C   UNL     1       0.579  11.405  18.620  0.00  0.00    +0.000 A 
ATOM     18  C   UNL     1       1.055  10.160  19.058  0.00  0.00    +0.000 A 
ATOM     19  S   UNL     1       1.716   8.887  18.120  0.00  0.00    +0.000 S 
ATOM     20  H   UNL     1       2.517   6.554  18.236  0.00  0.00    +0.000 HD
ENDBRANCH   6   7
BRANCH   1  21
ATOM     21  O   UNL     1       4.211   5.319  17.946  0.00  0.00    +0.000 OA
BRANCH  21  22
ATOM     22  C   UNL     1       4.792   5.472  16.643  0.00  0.00    +0.000 C 
BRANCH  22  26
ATOM     23  C   UNL     1       8.130   8.855  17.970  0.00  0.00    +0.000 C 
ATOM     24  C   UNL     1       7.395   7.728  17.373  0.00  0.00    +0.000 A 
ATOM     25  N   UNL     1       6.172   7.317  17.609  0.00  0.00    +0.000 NA
ATOM     26  C   UNL     1       6.062   6.242  16.763  0.00  0.00    +0.000 A 
ATOM     27  N   UNL     1       7.153   5.986  16.027  0.00  0.00    +0.000 NA
ATOM     28  O   UNL     1       8.049   6.981  16.436  0.00  0.00    +0.000 OA
ENDBRANCH  22  26
ENDBRANCH  21  22
ENDBRANCH   1  21
TORSDOF 4
ENDMDL
MODEL 2
REMARK VINA RESULT:      -8.3      2.283      2.823
REMARK  Name = 
REMARK  5 active torsions:
REMARK  status: ('A' for Active; 'I' for Inactive)
REMARK    1  A    between atoms: C_1  and  C_2
REMARK    2  A    between atoms: C_4  and  C_5
REMARK    3  A    between atoms: C_5  and  O_6
REMARK    4  A    between atoms: O_6  and  C_7
REMARK    5  A    between atoms: C_12  and  C_13
REMARK                            x       y       z     vdW  Elec       q    Type
REMARK                         _______ _______ _______ _____ _____    ______ ____
ROOT
ATOM      1  C   UNL     1       3.538   4.751  19.675  0.00  0.00    +0.000 A 
ATOM      2  C   UNL     1       3.682   3.374  19.910  0.00  0.00    +0.000 A 
ATOM      3  C   UNL     1       2.648   2.645  20.499  0.00  0.00    +0.000 A 
ATOM      4  C   UNL     1       1.469   3.280  20.860  0.00  0.00    +0.000 A 
ATOM      5  C   UNL     1       1.323   4.655  20.647  0.00  0.00    +0.000 A 
ATOM      6  C   UNL     1       2.350   5.417  20.063  0.00  0.00    +0.000 A 
ENDROOT
BRANCH   6   7
ATOM      7  C   UNL     1       2.091   6.907  19.862  0.00  0.00    +0.000 C 
ATOM      8  O   UNL     1       2.782   7.537  19.066  0.00  0.00    +0.000 OA
ATOM      9  N   UNL     1       1.110   7.431  20.661  0.00  0.00    +0.000 N 
ATOM     10  C   UNL     1       0.737   8.737  20.780  0.00  0.00    +0.000 A 
ATOM     11  N   UNL     1       0.957   9.798  20.049  0.00  0.00    +0.000 NA
ATOM     12  C   UNL     1       0.389  10.908  20.672  0.00  0.00    +0.000 A 
ATOM     13  C   UNL     1       0.379  12.239  20.196  0.00  0.00    +0.000 A 
ATOM     14  C   UNL     1      -0.156  13.262  20.993  0.00  0.00    +0.000 A 
ATOM     15  C   UNL     1      -0.675  12.970  22.247  0.00  0.00    +0.000 A 
ATOM     16  F   UNL     1      -1.141  13.964  23.015  0.00  0.00    +0.000 F 
ATOM     17  C   UNL     1      -0.730  11.667  22.727  0.00  0.00    +0.000 A 
ATOM     18  C   UNL     1      -0.208  10.653  21.911  0.00  0.00    +0.000 A 
ATOM     19  S   UNL     1      -0.186   8.964  22.200  0.00  0.00    +0.000 S 
ATOM     20  H   UNL     1       0.667   6.817  21.327  0.00  0.00    +0.000 HD
ENDBRANCH   6   7
BRANCH   1  21
ATOM     21  O   UNL     1       4.542   5.507  19.130  0.00  0.00    +0.000 OA
BRANCH  21  22
ATOM     22  C   UNL     1       5.899   5.060  19.262  0.00  0.00    +0.000 C 
BRANCH  22  26
ATOM     23  C   UNL     1       6.300   4.016  14.456  0.00  0.00    +0.000 C 
ATOM     24  C   UNL     1       6.529   4.342  15.873  0.00  0.00    +0.000 A 
ATOM     25  N   UNL     1       5.656   4.555  16.828  0.00  0.00    +0.000 NA
ATOM     26  C   UNL     1       6.464   4.809  17.907  0.00  0.00    +0.000 A 
ATOM     27  N   UNL     1       7.780   4.757  17.653  0.00  0.00    +0.000 NA
ATOM     28  O   UNL     1       7.825   4.445  16.290  0.00  0.00    +0.000 OA
ENDBRANCH  22  26
ENDBRANCH  21  22
ENDBRANCH   1  21
TORSDOF 4
ENDMDL
MODEL 3
REMARK VINA RESULT:      -8.2      1.192      1.706
REMARK  Name = 
REMARK  5 active torsions:
REMARK  status: ('A' for Active; 'I' for Inactive)
REMARK    1  A    between atoms: C_1  and  C_2
REMARK    2  A    between atoms: C_4  and  C_5
REMARK    3  A    between atoms: C_5  and  O_6
REMARK    4  A    between atoms: O_6  and  C_7
REMARK    5  A    between atoms: C_12  and  C_13
REMARK                            x       y       z     vdW  Elec       q    Type
REMARK                         _______ _______ _______ _____ _____    ______ ____
ROOT
ATOM      1  C   UNL     1       3.743   4.045  18.660  0.00  0.00    +0.000 A 
ATOM      2  C   UNL     1       4.068   2.793  18.114  0.00  0.00    +0.000 A 
ATOM      3  C   UNL     1       3.211   1.705  18.279  0.00  0.00    +0.000 A 
ATOM      4  C   UNL     1       2.029   1.854  18.990  0.00  0.00    +0.000 A 
ATOM      5  C   UNL     1       1.705   3.092  19.555  0.00  0.00    +0.000 A 
ATOM      6  C   UNL     1       2.553   4.204  19.411  0.00  0.00    +0.000 A 
ENDROOT
BRANCH   6   7
ATOM      7  C   UNL     1       2.107   5.514  20.054  0.00  0.00    +0.000 C 
ATOM      8  O   UNL     1       1.599   5.494  21.172  0.00  0.00    +0.000 OA
ATOM      9  N   UNL     1       2.275   6.624  19.270  0.00  0.00    +0.000 N 
ATOM     10  C   UNL     1       1.875   7.901  19.532  0.00  0.00    +0.000 A 
ATOM     11  N   UNL     1       1.491   8.510  20.622  0.00  0.00    +0.000 NA
ATOM     12  C   UNL     1       1.128   9.819  20.311  0.00  0.00    +0.000 A 
ATOM     13  C   UNL     1       0.682  10.816  21.209  0.00  0.00    +0.000 A 
ATOM     14  C   UNL     1       0.264  12.062  20.719  0.00  0.00    +0.000 A 
ATOM     15  C   UNL     1       0.287  12.318  19.355  0.00  0.00    +0.000 A 
ATOM     16  F   UNL     1      -0.158  13.497  18.899  0.00  0.00    +0.000 F 
ATOM     17  C   UNL     1       0.767  11.383  18.446  0.00  0.00    +0.000 A 
ATOM     18  C   UNL     1       1.198  10.148  18.953  0.00  0.00    +0.000 A 
ATOM     19  S   UNL     1       1.886   8.831  18.098  0.00  0.00    +0.000 S 
ATOM     20  H   UNL     1       2.639   6.492  18.339  0.00  0.00    +0.000 HD
ENDBRANCH   6   7
BRANCH   1  21
ATOM     21  O   UNL     1       4.573   5.128  18.548  0.00  0.00    +0.000 OA
BRANCH  21  22
ATOM     22  C   UNL     1       5.991   4.914  18.489  0.00  0.00    +0.000 C 
BRANCH  22  26
ATOM     23  C   UNL     1       6.734   4.344  13.644  0.00  0.00    +0.000 C 
ATOM     24  C   UNL     1       6.726   4.788  15.048  0.00  0.00    +0.000 A 
ATOM     25  N   UNL     1       6.061   4.302  16.069  0.00  0.00    +0.000 NA
ATOM     26  C   UNL     1       6.460   5.126  17.091  0.00  0.00    +0.000 A 
ATOM     27  N   UNL     1       7.332   6.081  16.741  0.00  0.00    +0.000 NA
ATOM     28  O   UNL     1       7.511   5.857  15.371  0.00  0.00    +0.000 OA
ENDBRANCH  22  26
ENDBRANCH  21  22
ENDBRANCH   1  21
TORSDOF 4
ENDMDL
MODEL 4
REMARK VINA RESULT:      -8.2      2.156      4.556
REMARK  Name = 
REMARK  5 active torsions:
REMARK  status: ('A' for Active; 'I' for Inactive)
REMARK    1  A    between atoms: C_1  and  C_2
REMARK    2  A    between atoms: C_4  and  C_5
REMARK    3  A    between atoms: C_5  and  O_6
REMARK    4  A    between atoms: O_6  and  C_7
REMARK    5  A    between atoms: C_12  and  C_13
REMARK                            x       y       z     vdW  Elec       q    Type
REMARK                         _______ _______ _______ _____ _____    ______ ____
ROOT
ATOM      1  C   UNL     1       4.524   4.371  16.630  0.00  0.00    +0.000 A 
ATOM      2  C   UNL     1       5.440   3.858  15.697  0.00  0.00    +0.000 A 
ATOM      3  C   UNL     1       6.710   4.421  15.571  0.00  0.00    +0.000 A 
ATOM      4  C   UNL     1       7.075   5.497  16.366  0.00  0.00    +0.000 A 
ATOM      5  C   UNL     1       6.164   6.027  17.285  0.00  0.00    +0.000 A 
ATOM      6  C   UNL     1       4.874   5.486  17.430  0.00  0.00    +0.000 A 
ENDROOT
BRANCH   6   7
ATOM      7  C   UNL     1       3.956   6.127  18.466  0.00  0.00    +0.000 C 
ATOM      8  O   UNL     1       3.712   5.526  19.509  0.00  0.00    +0.000 OA
ATOM      9  N   UNL     1       3.429   7.335  18.095  0.00  0.00    +0.000 N 
ATOM     10  C   UNL     1       2.503   8.083  18.761  0.00  0.00    +0.000 A 
ATOM     11  N   UNL     1       2.054   8.061  19.989  0.00  0.00    +0.000 NA
ATOM     12  C   UNL     1       1.051   9.020  20.125  0.00  0.00    +0.000 A 
ATOM     13  C   UNL     1       0.328   9.336  21.298  0.00  0.00    +0.000 A 
ATOM     14  C   UNL     1      -0.720  10.266  21.245  0.00  0.00    +0.000 A 
ATOM     15  C   UNL     1      -1.048  10.878  20.043  0.00  0.00    +0.000 A 
ATOM     16  F   UNL     1      -2.080  11.731  19.998  0.00  0.00    +0.000 F 
ATOM     17  C   UNL     1      -0.327  10.633  18.880  0.00  0.00    +0.000 A 
ATOM     18  C   UNL     1       0.729   9.714  18.953  0.00  0.00    +0.000 A 
ATOM     19  S   UNL     1       1.824   9.253  17.717  0.00  0.00    +0.000 S 
ATOM     20  H   UNL     1       3.653   7.685  17.177  0.00  0.00    +0.000 HD
ENDBRANCH   6   7
BRANCH   1  21
ATOM     21  O   UNL     1       3.257   3.867  16.761  0.00  0.00    +0.000 OA
BRANCH  21  22
ATOM     22  C   UNL     1       3.086   2.544  17.290  0.00  0.00    +0.000 C 
BRANCH  22  26
ATOM     23  C   UNL     1       1.499   2.496  21.962  0.00  0.00    +0.000 C 
ATOM     24  C   UNL     1       1.633   2.554  20.497  0.00  0.00    +0.000 A 
ATOM     25  N   UNL     1       2.716   2.508  19.760  0.00  0.00    +0.000 NA
ATOM     26  C   UNL     1       2.206   2.609  18.490  0.00  0.00    +0.000 A 
ATOM     27  N   UNL     1       0.871   2.711  18.423  0.00  0.00    +0.000 NA
ATOM     28  O   UNL     1       0.485   2.677  19.768  0.00  0.00    +0.000 OA
ENDBRANCH  22  26
ENDBRANCH  21  22
ENDBRANCH   1  21
TORSDOF 4
ENDMDL
MODEL 5
REMARK VINA RESULT:      -8.1      2.361      4.780
REMARK  Name = 
REMARK  5 active torsions:
REMARK  status: ('A' for Active; 'I' for Inactive)
REMARK    1  A    between atoms: C_1  and  C_2
REMARK    2  A    between atoms: C_4  and  C_5
REMARK    3  A    between atoms: C_5  and  O_6
REMARK    4  A    between atoms: O_6  and  C_7
REMARK    5  A    between atoms: C_12  and  C_13
REMARK                            x       y       z     vdW  Elec       q    Type
REMARK                         _______ _______ _______ _____ _____    ______ ____
ROOT
ATOM      1  C   UNL     1       4.514   4.932  16.901  0.00  0.00    +0.000 A 
ATOM      2  C   UNL     1       5.581   4.067  16.610  0.00  0.00    +0.000 A 
ATOM      3  C   UNL     1       6.899   4.518  16.690  0.00  0.00    +0.000 A 
ATOM      4  C   UNL     1       7.163   5.830  17.056  0.00  0.00    +0.000 A 
ATOM      5  C   UNL     1       6.107   6.704  17.330  0.00  0.00    +0.000 A 
ATOM      6  C   UNL     1       4.768   6.281  17.251  0.00  0.00    +0.000 A 
ENDROOT
BRANCH   6   7
ATOM      7  C   UNL     1       3.687   7.306  17.579  0.00  0.00    +0.000 C 
ATOM      8  O   UNL     1       3.506   8.254  16.820  0.00  0.00    +0.000 OA
ATOM      9  N   UNL     1       3.032   7.089  18.762  0.00  0.00    +0.000 N 
ATOM     10  C   UNL     1       2.104   7.888  19.362  0.00  0.00    +0.000 A 
ATOM     11  N   UNL     1       1.376   8.886  18.935  0.00  0.00    +0.000 NA
ATOM     12  C   UNL     1       0.627   9.392  19.997  0.00  0.00    +0.000 A 
ATOM     13  C   UNL     1      -0.305  10.454  19.951  0.00  0.00    +0.000 A 
ATOM     14  C   UNL     1      -0.908  10.906  21.134  0.00  0.00    +0.000 A 
ATOM     15  C   UNL     1      -0.592  10.313  22.348  0.00  0.00    +0.000 A 
ATOM     16  F   UNL     1      -1.142  10.784  23.475  0.00  0.00    +0.000 F 
ATOM     17  C   UNL     1       0.279   9.233  22.426  0.00  0.00    +0.000 A 
ATOM     18  C   UNL     1       0.861   8.781  21.233  0.00  0.00    +0.000 A 
ATOM     19  S   UNL     1       1.917   7.451  21.003  0.00  0.00    +0.000 S 
ATOM     20  H   UNL     1       3.328   6.310  19.328  0.00  0.00    +0.000 HD
ENDBRANCH   6   7
BRANCH   1  21
ATOM     21  O   UNL     1       3.207   4.537  16.802  0.00  0.00    +0.000 OA
BRANCH  21  22
ATOM     22  C   UNL     1       2.833   3.240  17.290  0.00  0.00    +0.000 C 
BRANCH  22  26
ATOM     23  C   UNL     1       1.529   2.441  21.982  0.00  0.00    +0.000 C 
ATOM     24  C   UNL     1       1.701   2.951  20.611  0.00  0.00    +0.000 A 
ATOM     25  N   UNL     1       2.481   2.512  19.653  0.00  0.00    +0.000 NA
ATOM     26  C   UNL     1       2.204   3.386  18.632  0.00  0.00    +0.000 A 
ATOM     27  N   UNL     1       1.296   4.327  18.924  0.00  0.00    +0.000 NA
ATOM     28  O   UNL     1       0.958   4.039  20.251  0.00  0.00    +0.000 OA
ENDBRANCH  22  26
ENDBRANCH  21  22
ENDBRANCH   1  21
TORSDOF 4
ENDMDL
MODEL 6
REMARK VINA RESULT:      -8.1      2.100      2.686
REMARK  Name = 
REMARK  5 active torsions:
REMARK  status: ('A' for Active; 'I' for Inactive)
REMARK    1  A    between atoms: C_1  and  C_2
REMARK    2  A    between atoms: C_4  and  C_5
REMARK    3  A    between atoms: C_5  and  O_6
REMARK    4  A    between atoms: O_6  and  C_7
REMARK    5  A    between atoms: C_12  and  C_13
REMARK                            x       y       z     vdW  Elec       q    Type
REMARK                         _______ _______ _______ _____ _____    ______ ____
ROOT
ATOM      1  C   UNL     1       3.653   4.060  19.423  0.00  0.00    +0.000 A 
ATOM      2  C   UNL     1       3.842   2.776  19.958  0.00  0.00    +0.000 A 
ATOM      3  C   UNL     1       3.140   2.372  21.094  0.00  0.00    +0.000 A 
ATOM      4  C   UNL     1       2.251   3.242  21.706  0.00  0.00    +0.000 A 
ATOM      5  C   UNL     1       2.068   4.529  21.193  0.00  0.00    +0.000 A 
ATOM      6  C   UNL     1       2.767   4.968  20.054  0.00  0.00    +0.000 A 
ENDROOT
BRANCH   6   7
ATOM      7  C   UNL     1       2.492   6.386  19.564  0.00  0.00    +0.000 C 
ATOM      8  O   UNL     1       3.048   6.791  18.547  0.00  0.00    +0.000 OA
ATOM      9  N   UNL     1       1.659   7.119  20.368  0.00  0.00    +0.000 N 
ATOM     10  C   UNL     1       1.323   8.434  20.244  0.00  0.00    +0.000 A 
ATOM     11  N   UNL     1       1.429   9.294  19.266  0.00  0.00    +0.000 NA
ATOM     12  C   UNL     1       0.980  10.540  19.703  0.00  0.00    +0.000 A 
ATOM     13  C   UNL     1       0.904  11.731  18.946  0.00  0.00    +0.000 A 
ATOM     14  C   UNL     1       0.516  12.930  19.564  0.00  0.00    +0.000 A 
ATOM     15  C   UNL     1       0.207  12.948  20.917  0.00  0.00    +0.000 A 
ATOM     16  F   UNL     1      -0.118  14.107  21.503  0.00  0.00    +0.000 F 
ATOM     17  C   UNL     1       0.220  11.788  21.682  0.00  0.00    +0.000 A 
ATOM     18  C   UNL     1       0.593  10.594  21.047  0.00  0.00    +0.000 A 
ATOM     19  S   UNL     1       0.648   9.013  21.704  0.00  0.00    +0.000 S 
ATOM     20  H   UNL     1       1.327   6.689  21.217  0.00  0.00    +0.000 HD
ENDBRANCH   6   7
BRANCH   1  21
ATOM     21  O   UNL     1       4.346   4.505  18.330  0.00  0.00    +0.000 OA
BRANCH  21  22
ATOM     22  C   UNL     1       5.781   4.517  18.374  0.00  0.00    +0.000 C 
BRANCH  22  26
ATOM     23  C   UNL     1       6.195   3.897  13.496  0.00  0.00    +0.000 C 
ATOM     24  C   UNL     1       6.396   4.208  14.921  0.00  0.00    +0.000 A 
ATOM     25  N   UNL     1       5.561   4.083  15.924  0.00  0.00    +0.000 NA
ATOM     26  C   UNL     1       6.312   4.529  16.982  0.00  0.00    +0.000 A 
ATOM     27  N   UNL     1       7.557   4.915  16.670  0.00  0.00    +0.000 NA
ATOM     28  O   UNL     1       7.615   4.702  15.287  0.00  0.00    +0.000 OA
ENDBRANCH  22  26
ENDBRANCH  21  22
ENDBRANCH   1  21
TORSDOF 4
ENDMDL
MODEL 7
REMARK VINA RESULT:      -8.0      4.060      8.636
REMARK  Name = 
REMARK  5 active torsions:
REMARK  status: ('A' for Active; 'I' for Inactive)
REMARK    1  A    between atoms: C_1  and  C_2
REMARK    2  A    between atoms: C_4  and  C_5
REMARK    3  A    between atoms: C_5  and  O_6
REMARK    4  A    between atoms: O_6  and  C_7
REMARK    5  A    between atoms: C_12  and  C_13
REMARK                            x       y       z     vdW  Elec       q    Type
REMARK                         _______ _______ _______ _____ _____    ______ ____
ROOT
ATOM      1  C   UNL     1       0.146  11.004  20.775  0.00  0.00    +0.000 A 
ATOM      2  C   UNL     1      -0.578  11.733  21.731  0.00  0.00    +0.000 A 
ATOM      3  C   UNL     1      -0.910  11.157  22.957  0.00  0.00    +0.000 A 
ATOM      4  C   UNL     1      -0.528   9.854  23.238  0.00  0.00    +0.000 A 
ATOM      5  C   UNL     1       0.178   9.113  22.286  0.00  0.00    +0.000 A 
ATOM      6  C   UNL     1       0.520   9.663  21.038  0.00  0.00    +0.000 A 
ENDROOT
BRANCH   6   7
ATOM      7  C   UNL     1       1.300   8.779  20.070  0.00  0.00    +0.000 C 
ATOM      8  O   UNL     1       1.530   9.185  18.935  0.00  0.00    +0.000 OA
ATOM      9  N   UNL     1       1.635   7.546  20.564  0.00  0.00    +0.000 N 
ATOM     10  C   UNL     1       2.231   6.514  19.901  0.00  0.00    +0.000 A 
ATOM     11  N   UNL     1       2.884   6.437  18.771  0.00  0.00    +0.000 NA
ATOM     12  C   UNL     1       3.229   5.108  18.533  0.00  0.00    +0.000 A 
ATOM     13  C   UNL     1       3.962   4.602  17.435  0.00  0.00    +0.000 A 
ATOM     14  C   UNL     1       4.145   3.219  17.293  0.00  0.00    +0.000 A 
ATOM     15  C   UNL     1       3.607   2.346  18.229  0.00  0.00    +0.000 A 
ATOM     16  F   UNL     1       3.751   1.025  18.056  0.00  0.00    +0.000 F 
ATOM     17  C   UNL     1       2.925   2.807  19.348  0.00  0.00    +0.000 A 
ATOM     18  C   UNL     1       2.766   4.194  19.485  0.00  0.00    +0.000 A 
ATOM     19  S   UNL     1       2.031   5.056  20.771  0.00  0.00    +0.000 S 
ATOM     20  H   UNL     1       1.321   7.309  21.492  0.00  0.00    +0.000 HD
ENDBRANCH   6   7
BRANCH   1  21
ATOM     21  O   UNL     1       0.463  11.522  19.547  0.00  0.00    +0.000 OA
BRANCH  21  22
ATOM     22  C   UNL     1      -0.477  12.389  18.895  0.00  0.00    +0.000 C 
BRANCH  22  26
ATOM     23  C   UNL     1      -5.012  10.701  17.933  0.00  0.00    +0.000 C 
ATOM     24  C   UNL     1      -3.561  10.929  18.028  0.00  0.00    +0.000 A 
ATOM     25  N   UNL     1      -2.911  11.907  18.613  0.00  0.00    +0.000 NA
ATOM     26  C   UNL     1      -1.604  11.575  18.362  0.00  0.00    +0.000 A 
ATOM     27  N   UNL     1      -1.432  10.447  17.658  0.00  0.00    +0.000 NA
ATOM     28  O   UNL     1      -2.743  10.013  17.432  0.00  0.00    +0.000 OA
ENDBRANCH  22  26
ENDBRANCH  21  22
ENDBRANCH   1  21
TORSDOF 4
ENDMDL
MODEL 8
REMARK VINA RESULT:      -7.9      2.098      2.851
REMARK  Name = 
REMARK  5 active torsions:
REMARK  status: ('A' for Active; 'I' for Inactive)
REMARK    1  A    between atoms: C_1  and  C_2
REMARK    2  A    between atoms: C_4  and  C_5
REMARK    3  A    between atoms: C_5  and  O_6
REMARK    4  A    between atoms: O_6  and  C_7
REMARK    5  A    between atoms: C_12  and  C_13
REMARK                            x       y       z     vdW  Elec       q    Type
REMARK                         _______ _______ _______ _____ _____    ______ ____
ROOT
ATOM      1  C   UNL     1       3.631   5.020  18.727  0.00  0.00    +0.000 A 
ATOM      2  C   UNL     1       3.996   3.675  18.896  0.00  0.00    +0.000 A 
ATOM      3  C   UNL     1       3.488   2.933  19.963  0.00  0.00    +0.000 A 
ATOM      4  C   UNL     1       2.619   3.523  20.868  0.00  0.00    +0.000 A 
ATOM      5  C   UNL     1       2.264   4.868  20.719  0.00  0.00    +0.000 A 
ATOM      6  C   UNL     1       2.765   5.643  19.659  0.00  0.00    +0.000 A 
ENDROOT
BRANCH   6   7
ATOM      7  C   UNL     1       2.311   7.097  19.576  0.00  0.00    +0.000 C 
ATOM      8  O   UNL     1       2.857   7.854  18.778  0.00  0.00    +0.000 OA
ATOM      9  N   UNL     1       1.336   7.444  20.472  0.00  0.00    +0.000 N 
ATOM     10  C   UNL     1       0.815   8.684  20.702  0.00  0.00    +0.000 A 
ATOM     11  N   UNL     1       0.847   9.804  20.030  0.00  0.00    +0.000 NA
ATOM     12  C   UNL     1       0.195  10.795  20.763  0.00  0.00    +0.000 A 
ATOM     13  C   UNL     1      -0.015  12.139  20.378  0.00  0.00    +0.000 A 
ATOM     14  C   UNL     1      -0.610  13.038  21.276  0.00  0.00    +0.000 A 
ATOM     15  C   UNL     1      -0.993  12.611  22.539  0.00  0.00    +0.000 A 
ATOM     16  F   UNL     1      -1.519  13.491  23.401  0.00  0.00    +0.000 F 
ATOM     17  C   UNL     1      -0.851  11.286  22.934  0.00  0.00    +0.000 A 
ATOM     18  C   UNL     1      -0.271  10.394  22.020  0.00  0.00    +0.000 A 
ATOM     19  S   UNL     1      -0.019   8.708  22.194  0.00  0.00    +0.000 S 
ATOM     20  H   UNL     1       1.023   6.742  21.124  0.00  0.00    +0.000 HD
ENDBRANCH   6   7
BRANCH   1  21
ATOM     21  O   UNL     1       4.133   5.790  17.712  0.00  0.00    +0.000 OA
BRANCH  21  22
ATOM     22  C   UNL     1       5.528   6.128  17.720  0.00  0.00    +0.000 C 
BRANCH  22  26
ATOM     23  C   UNL     1       6.277   3.871  13.397  0.00  0.00    +0.000 C 
ATOM     24  C   UNL     1       6.373   4.673  14.628  0.00  0.00    +0.000 A 
ATOM     25  N   UNL     1       5.483   4.851  15.574  0.00  0.00    +0.000 NA
ATOM     26  C   UNL     1       6.144   5.688  16.438  0.00  0.00    +0.000 A 
ATOM     27  N   UNL     1       7.387   6.021  16.063  0.00  0.00    +0.000 NA
ATOM     28  O   UNL     1       7.542   5.343  14.848  0.00  0.00    +0.000 OA
ENDBRANCH  22  26
ENDBRANCH  21  22
ENDBRANCH   1  21
TORSDOF 4
ENDMDL
MODEL 9
REMARK VINA RESULT:      -7.8      1.555      1.959
REMARK  Name = 
REMARK  5 active torsions:
REMARK  status: ('A' for Active; 'I' for Inactive)
REMARK    1  A    between atoms: C_1  and  C_2
REMARK    2  A    between atoms: C_4  and  C_5
REMARK    3  A    between atoms: C_5  and  O_6
REMARK    4  A    between atoms: O_6  and  C_7
REMARK    5  A    between atoms: C_12  and  C_13
REMARK                            x       y       z     vdW  Elec       q    Type
REMARK                         _______ _______ _______ _____ _____    ______ ____
ROOT
ATOM      1  C   UNL     1       3.586   4.260  19.130  0.00  0.00    +0.000 A 
ATOM      2  C   UNL     1       3.771   2.965  19.642  0.00  0.00    +0.000 A 
ATOM      3  C   UNL     1       3.129   2.571  20.816  0.00  0.00    +0.000 A 
ATOM      4  C   UNL     1       2.303   3.459  21.488  0.00  0.00    +0.000 A 
ATOM      5  C   UNL     1       2.126   4.756  20.996  0.00  0.00    +0.000 A 
ATOM      6  C   UNL     1       2.766   5.185  19.820  0.00  0.00    +0.000 A 
ENDROOT
BRANCH   6   7
ATOM      7  C   UNL     1       2.501   6.615  19.359  0.00  0.00    +0.000 C 
ATOM      8  O   UNL     1       3.085   7.046  18.369  0.00  0.00    +0.000 OA
ATOM      9  N   UNL     1       1.644   7.325  20.156  0.00  0.00    +0.000 N 
ATOM     10  C   UNL     1       1.307   8.643  20.057  0.00  0.00    +0.000 A 
ATOM     11  N   UNL     1       1.439   9.528  19.104  0.00  0.00    +0.000 NA
ATOM     12  C   UNL     1       0.975  10.761  19.559  0.00  0.00    +0.000 A 
ATOM     13  C   UNL     1       0.917  11.971  18.830  0.00  0.00    +0.000 A 
ATOM     14  C   UNL     1       0.508  13.152  19.467  0.00  0.00    +0.000 A 
ATOM     15  C   UNL     1       0.160  13.135  20.810  0.00  0.00    +0.000 A 
ATOM     16  F   UNL     1      -0.185  14.279  21.416  0.00  0.00    +0.000 F 
ATOM     17  C   UNL     1       0.154  11.956  21.546  0.00  0.00    +0.000 A 
ATOM     18  C   UNL     1       0.548  10.780  20.892  0.00  0.00    +0.000 A 
ATOM     19  S   UNL     1       0.588   9.183  21.510  0.00  0.00    +0.000 S 
ATOM     20  H   UNL     1       1.288   6.874  20.984  0.00  0.00    +0.000 HD
ENDBRANCH   6   7
BRANCH   1  21
ATOM     21  O   UNL     1       4.224   4.695  17.999  0.00  0.00    +0.000 OA
BRANCH  21  22
ATOM     22  C   UNL     1       5.519   4.164  17.683  0.00  0.00    +0.000 C 
BRANCH  22  26
ATOM     23  C   UNL     1       7.949   8.458  17.754  0.00  0.00    +0.000 C 
ATOM     24  C   UNL     1       7.396   7.133  17.431  0.00  0.00    +0.000 A 
ATOM     25  N   UNL     1       6.571   6.386  18.126  0.00  0.00    +0.000 NA
ATOM     26  C   UNL     1       6.430   5.285  17.319  0.00  0.00    +0.000 A 
ATOM     27  N   UNL     1       7.125   5.330  16.174  0.00  0.00    +0.000 NA
ATOM     28  O   UNL     1       7.775   6.568  16.248  0.00  0.00    +0.000 OA
ENDBRANCH  22  26
ENDBRANCH  21  22
ENDBRANCH   1  21
TORSDOF 4
ENDMDL
