MODEL 1
REMARK VINA RESULT:      -8.6      0.000      0.000
REMARK  Name = 
REMARK  4 active torsions:
REMARK  status: ('A' for Active; 'I' for Inactive)
REMARK    1  A    between atoms: C_2  and  C_17
REMARK    2  A    between atoms: N_3  and  C_4
REMARK    3  A    between atoms: C_4  and  C_5
REMARK    4  A    between atoms: C_21  and  N_22
REMARK                            x       y       z     vdW  Elec       q    Type
REMARK                         _______ _______ _______ _____ _____    ______ ____
ROOT
ATOM      1  O   UNL     1       2.376  10.024  17.318  0.00  0.00    +0.000 OA
ATOM      2  C   UNL     1       2.042   9.177  18.138  0.00  0.00    +0.000 C 
ATOM      3  N   UNL     1       1.155   9.416  19.165  0.00  0.00    +0.000 N 
ATOM      4  H   UNL     1       1.127   8.772  19.944  0.00  0.00    +0.000 HD
ENDROOT
BRANCH   2   5
ATOM      5  C   UNL     1       2.635   7.812  18.096  0.00  0.00    +0.000 A 
ATOM      6  C   UNL     1       3.756   7.593  17.297  0.00  0.00    +0.000 A 
ATOM      7  C   UNL     1       4.352   6.336  17.283  0.00  0.00    +0.000 A 
ATOM      8  C   UNL     1       3.830   5.301  18.069  0.00  0.00    +0.000 A 
ATOM      9  C   UNL     1       2.695   5.493  18.867  0.00  0.00    +0.000 A 
ATOM     10  C   UNL     1       2.092   6.757  18.849  0.00  0.00    +0.000 A 
BRANCH   9  11
ATOM     11  N   UNL     1       2.175   4.456  19.694  0.00  0.00    +0.000 N 
ATOM     12  C   UNL     1       2.291   4.473  21.135  0.00  0.00    +0.000 C 
ATOM     13  C   UNL     1       2.041   3.039  21.548  0.00  0.00    +0.000 C 
ATOM     14  C   UNL     1       1.074   2.533  20.497  0.00  0.00    +0.000 C 
ATOM     15  C   UNL     1       1.443   3.334  19.270  0.00  0.00    +0.000 C 
ATOM     16  O   UNL     1       1.085   3.022  18.145  0.00  0.00    +0.000 OA
ENDBRANCH   9  11
ENDBRANCH   2   5
BRANCH   3  17
ATOM     17  C   UNL     1       0.621  10.737  19.397  0.00  0.00    +0.000 C 
BRANCH  17  18
ATOM     18  C   UNL     1      -0.101  10.796  20.714  0.00  0.00    +0.000 A 
ATOM     19  C   UNL     1       0.179   9.882  21.727  0.00  0.00    +0.000 A 
ATOM     20  C   UNL     1      -0.496  10.012  22.926  0.00  0.00    +0.000 A 
ATOM     21  N   UNL     1      -1.412  10.975  23.182  0.00  0.00    +0.000 NA
ATOM     22  C   UNL     1      -1.722  11.842  22.198  0.00  0.00    +0.000 A 
ATOM     23  N   UNL     1      -2.649  12.846  22.428  0.00  0.00    +0.000 N 
ATOM     24  C   UNL     1      -2.840  13.334  23.793  0.00  0.00    +0.000 C 
ATOM     25  C   UNL     1      -4.200  12.936  24.361  0.00  0.00    +0.000 C 
ATOM     26  C   UNL     1      -5.328  13.291  23.399  0.00  0.00    +0.000 C 
ATOM     27  C   UNL     1      -5.080  12.643  22.042  0.00  0.00    +0.000 C 
ATOM     28  C   UNL     1      -3.728  13.062  21.465  0.00  0.00    +0.000 C 
ATOM     29  C   UNL     1      -1.071  11.774  20.962  0.00  0.00    +0.000 A 
ENDBRANCH  17  18
ENDBRANCH   3  17
TORSDOF 4
ENDMDL
MODEL 2
REMARK VINA RESULT:      -8.5      1.987      3.222
REMARK  Name = 
REMARK  4 active torsions:
REMARK  status: ('A' for Active; 'I' for Inactive)
REMARK    1  A    between atoms: C_2  and  C_17
REMARK    2  A    between atoms: N_3  and  C_4
REMARK    3  A    between atoms: C_4  and  C_5
REMARK    4  A    between atoms: C_21  and  N_22
REMARK                            x       y       z     vdW  Elec       q    Type
REMARK                         _______ _______ _______ _____ _____    ______ ____
ROOT
ATOM      1  O   UNL     1       1.920   8.896  17.411  0.00  0.00    +0.000 OA
ATOM      2  C   UNL     1       1.987   8.359  18.509  0.00  0.00    +0.000 C 
ATOM      3  N   UNL     1       1.472   8.911  19.663  0.00  0.00    +0.000 N 
ATOM      4  H   UNL     1       1.786   8.554  20.556  0.00  0.00    +0.000 HD
ENDROOT
BRANCH   2   5
ATOM      5  C   UNL     1       2.695   7.059  18.672  0.00  0.00    +0.000 A 
ATOM      6  C   UNL     1       2.306   6.210  19.707  0.00  0.00    +0.000 A 
ATOM      7  C   UNL     1       2.924   4.972  19.845  0.00  0.00    +0.000 A 
ATOM      8  C   UNL     1       3.925   4.581  18.948  0.00  0.00    +0.000 A 
ATOM      9  C   UNL     1       4.344   5.423  17.910  0.00  0.00    +0.000 A 
ATOM     10  C   UNL     1       3.730   6.677  17.802  0.00  0.00    +0.000 A 
BRANCH   9  11
ATOM     11  N   UNL     1       5.339   5.022  16.973  0.00  0.00    +0.000 N 
ATOM     12  C   UNL     1       5.101   4.983  15.548  0.00  0.00    +0.000 C 
ATOM     13  C   UNL     1       6.204   4.100  15.007  0.00  0.00    +0.000 C 
ATOM     14  C   UNL     1       7.357   4.357  15.955  0.00  0.00    +0.000 C 
ATOM     15  C   UNL     1       6.670   4.678  17.261  0.00  0.00    +0.000 C 
ATOM     16  O   UNL     1       7.253   4.667  18.334  0.00  0.00    +0.000 OA
ENDBRANCH   9  11
ENDBRANCH   2   5
BRANCH   3  17
ATOM     17  C   UNL     1       0.888  10.231  19.661  0.00  0.00    +0.000 C 
BRANCH  17  18
ATOM     18  C   UNL     1       0.115  10.472  20.927  0.00  0.00    +0.000 A 
ATOM     19  C   UNL     1       0.290   9.655  22.041  0.00  0.00    +0.000 A 
ATOM     20  C   UNL     1      -0.426   9.952  23.185  0.00  0.00    +0.000 A 
ATOM     21  N   UNL     1      -1.288  10.990  23.295  0.00  0.00    +0.000 NA
ATOM     22  C   UNL     1      -1.497  11.766  22.213  0.00  0.00    +0.000 A 
ATOM     23  N   UNL     1      -2.366  12.842  22.293  0.00  0.00    +0.000 N 
ATOM     24  C   UNL     1      -2.583  13.482  23.589  0.00  0.00    +0.000 C 
ATOM     25  C   UNL     1      -3.989  13.230  24.127  0.00  0.00    +0.000 C 
ATOM     26  C   UNL     1      -5.049  13.549  23.078  0.00  0.00    +0.000 C 
ATOM     27  C   UNL     1      -4.785  12.747  21.809  0.00  0.00    +0.000 C 
ATOM     28  C   UNL     1      -3.385  13.020  21.260  0.00  0.00    +0.000 C 
ATOM     29  C   UNL     1      -0.800  11.527  21.025  0.00  0.00    +0.000 A 
ENDBRANCH  17  18
ENDBRANCH   3  17
TORSDOF 4
ENDMDL
MODEL 3
REMARK VINA RESULT:      -8.5      2.995      5.148
REMARK  Name = 
REMARK  4 active torsions:
REMARK  status: ('A' for Active; 'I' for Inactive)
REMARK    1  A    between atoms: C_2  and  C_17
REMARK    2  A    between atoms: N_3  and  C_4
REMARK    3  A    between atoms: C_4  and  C_5
REMARK    4  A    between atoms: C_21  and  N_22
REMARK                            x       y       z     vdW  Elec       q    Type
REMARK                         _______ _______ _______ _____ _____    ______ ____
ROOT
ATOM      1  O   UNL     1       0.707   4.622  20.538  0.00  0.00    +0.000 OA
ATOM      2  C   UNL     1       1.805   4.958  20.114  0.00  0.00    +0.000 C 
ATOM      3  N   UNL     1       2.344   6.213  20.298  0.00  0.00    +0.000 N 
ATOM      4  H   UNL     1       3.115   6.503  19.712  0.00  0.00    +0.000 HD
ENDROOT
BRANCH   2   5
ATOM      5  C   UNL     1       2.623   4.012  19.306  0.00  0.00    +0.000 A 
ATOM      6  C   UNL     1       2.338   2.649  19.380  0.00  0.00    +0.000 A 
ATOM      7  C   UNL     1       3.061   1.756  18.596  0.00  0.00    +0.000 A 
ATOM      8  C   UNL     1       4.063   2.224  17.738  0.00  0.00    +0.000 A 
ATOM      9  C   UNL     1       4.378   3.586  17.658  0.00  0.00    +0.000 A 
ATOM     10  C   UNL     1       3.659   4.469  18.474  0.00  0.00    +0.000 A 
BRANCH   9  11
ATOM     11  N   UNL     1       5.374   4.076  16.765  0.00  0.00    +0.000 N 
ATOM     12  C   UNL     1       5.113   4.331  15.366  0.00  0.00    +0.000 C 
ATOM     13  C   UNL     1       6.485   4.382  14.732  0.00  0.00    +0.000 C 
ATOM     14  C   UNL     1       7.364   4.931  15.837  0.00  0.00    +0.000 C 
ATOM     15  C   UNL     1       6.691   4.437  17.096  0.00  0.00    +0.000 C 
ATOM     16  O   UNL     1       7.247   4.431  18.183  0.00  0.00    +0.000 OA
ENDBRANCH   9  11
ENDBRANCH   2   5
BRANCH   3  17
ATOM     17  C   UNL     1       1.589   7.262  20.942  0.00  0.00    +0.000 C 
BRANCH  17  18
ATOM     18  C   UNL     1       1.438   8.446  20.029  0.00  0.00    +0.000 A 
ATOM     19  C   UNL     1       1.991   8.442  18.751  0.00  0.00    +0.000 A 
ATOM     20  C   UNL     1       1.785   9.547  17.949  0.00  0.00    +0.000 A 
ATOM     21  N   UNL     1       1.076  10.638  18.325  0.00  0.00    +0.000 NA
ATOM     22  C   UNL     1       0.568  10.673  19.573  0.00  0.00    +0.000 A 
ATOM     23  N   UNL     1      -0.170  11.770  19.987  0.00  0.00    +0.000 N 
ATOM     24  C   UNL     1      -0.879  12.566  18.987  0.00  0.00    +0.000 C 
ATOM     25  C   UNL     1      -0.264  13.951  18.811  0.00  0.00    +0.000 C 
ATOM     26  C   UNL     1      -0.074  14.647  20.154  0.00  0.00    +0.000 C 
ATOM     27  C   UNL     1       0.768  13.776  21.079  0.00  0.00    +0.000 C 
ATOM     28  C   UNL     1       0.136  12.398  21.271  0.00  0.00    +0.000 C 
ATOM     29  C   UNL     1       0.731   9.584  20.435  0.00  0.00    +0.000 A 
ENDBRANCH  17  18
ENDBRANCH   3  17
TORSDOF 4
ENDMDL
MODEL 4
REMARK VINA RESULT:      -8.4      3.408      5.791
REMARK  Name = 
REMARK  4 active torsions:
REMARK  status: ('A' for Active; 'I' for Inactive)
REMARK    1  A    between atoms: C_2  and  C_17
REMARK    2  A    between atoms: N_3  and  C_4
REMARK    3  A    between atoms: C_4  and  C_5
REMARK    4  A    between atoms: C_21  and  N_22
REMARK                            x       y       z     vdW  Elec       q    Type
REMARK                         _______ _______ _______ _____ _____    ______ ____
ROOT
ATOM      1  O   UNL     1       2.672   4.759  17.760  0.00  0.00    +0.000 OA
ATOM      2  C   UNL     1       3.670   5.260  18.261  0.00  0.00    +0.000 C 
ATOM      3  N   UNL     1       3.640   6.073  19.374  0.00  0.00    +0.000 N 
ATOM      4  H   UNL     1       4.443   6.656  19.574  0.00  0.00    +0.000 HD
ENDROOT
BRANCH   2   5
ATOM      5  C   UNL     1       5.010   5.051  17.646  0.00  0.00    +0.000 A 
ATOM      6  C   UNL     1       6.124   4.965  18.481  0.00  0.00    +0.000 A 
ATOM      7  C   UNL     1       7.377   4.723  17.928  0.00  0.00    +0.000 A 
ATOM      8  C   UNL     1       7.515   4.563  16.544  0.00  0.00    +0.000 A 
ATOM      9  C   UNL     1       6.415   4.661  15.684  0.00  0.00    +0.000 A 
ATOM     10  C   UNL     1       5.165   4.932  16.255  0.00  0.00    +0.000 A 
BRANCH   9  11
ATOM     11  N   UNL     1       6.541   4.468  14.278  0.00  0.00    +0.000 N 
ATOM     12  C   UNL     1       5.597   3.690  13.508  0.00  0.00    +0.000 C 
ATOM     13  C   UNL     1       6.332   3.372  12.224  0.00  0.00    +0.000 C 
ATOM     14  C   UNL     1       7.234   4.573  12.029  0.00  0.00    +0.000 C 
ATOM     15  C   UNL     1       7.519   5.029  13.440  0.00  0.00    +0.000 C 
ATOM     16  O   UNL     1       8.430   5.793  13.716  0.00  0.00    +0.000 OA
ENDBRANCH   9  11
ENDBRANCH   2   5
BRANCH   3  17
ATOM     17  C   UNL     1       2.389   6.466  19.977  0.00  0.00    +0.000 C 
BRANCH  17  18
ATOM     18  C   UNL     1       1.930   7.791  19.436  0.00  0.00    +0.000 A 
ATOM     19  C   UNL     1       2.475   8.317  18.269  0.00  0.00    +0.000 A 
ATOM     20  C   UNL     1       1.985   9.523  17.806  0.00  0.00    +0.000 A 
ATOM     21  N   UNL     1       1.002  10.228  18.415  0.00  0.00    +0.000 NA
ATOM     22  C   UNL     1       0.491   9.750  19.568  0.00  0.00    +0.000 A 
ATOM     23  N   UNL     1      -0.521  10.441  20.213  0.00  0.00    +0.000 N 
ATOM     24  C   UNL     1      -1.411  11.293  19.425  0.00  0.00    +0.000 C 
ATOM     25  C   UNL     1      -1.194  12.776  19.717  0.00  0.00    +0.000 C 
ATOM     26  C   UNL     1      -1.214  13.055  21.215  0.00  0.00    +0.000 C 
ATOM     27  C   UNL     1      -0.176  12.190  21.921  0.00  0.00    +0.000 C 
ATOM     28  C   UNL     1      -0.411  10.705  21.647  0.00  0.00    +0.000 C 
ATOM     29  C   UNL     1       0.936   8.531  20.088  0.00  0.00    +0.000 A 
ENDBRANCH  17  18
ENDBRANCH   3  17
TORSDOF 4
ENDMDL
MODEL 5
REMARK VINA RESULT:      -8.4      0.848      1.144
REMARK  Name = 
REMARK  4 active torsions:
REMARK  status: ('A' for Active; 'I' for Inactive)
REMARK    1  A    between atoms: C_2  and  C_17
REMARK    2  A    between atoms: N_3  and  C_4
REMARK    3  A    between atoms: C_4  and  C_5
REMARK    4  A    between atoms: C_21  and  N_22
REMARK                            x       y       z     vdW  Elec       q    Type
REMARK                         _______ _______ _______ _____ _____    ______ ____
ROOT
ATOM      1  O   UNL     1       2.477  10.057  17.313  0.00  0.00    +0.000 OA
ATOM      2  C   UNL     1       2.139   9.170  18.086  0.00  0.00    +0.000 C 
ATOM      3  N   UNL     1       1.239   9.353  19.114  0.00  0.00    +0.000 N 
ATOM      4  H   UNL     1       1.206   8.672  19.860  0.00  0.00    +0.000 HD
ENDROOT
BRANCH   2   5
ATOM      5  C   UNL     1       2.741   7.812  17.986  0.00  0.00    +0.000 A 
ATOM      6  C   UNL     1       3.976   7.672  17.352  0.00  0.00    +0.000 A 
ATOM      7  C   UNL     1       4.576   6.419  17.291  0.00  0.00    +0.000 A 
ATOM      8  C   UNL     1       3.946   5.308  17.867  0.00  0.00    +0.000 A 
ATOM      9  C   UNL     1       2.699   5.421  18.494  0.00  0.00    +0.000 A 
ATOM     10  C   UNL     1       2.096   6.685  18.523  0.00  0.00    +0.000 A 
BRANCH   9  11
ATOM     11  N   UNL     1       2.065   4.304  19.110  0.00  0.00    +0.000 N 
ATOM     12  C   UNL     1       1.542   3.187  18.356  0.00  0.00    +0.000 C 
ATOM     13  C   UNL     1       0.591   2.500  19.312  0.00  0.00    +0.000 C 
ATOM     14  C   UNL     1       1.212   2.757  20.670  0.00  0.00    +0.000 C 
ATOM     15  C   UNL     1       1.911   4.084  20.489  0.00  0.00    +0.000 C 
ATOM     16  O   UNL     1       2.289   4.765  21.430  0.00  0.00    +0.000 OA
ENDBRANCH   9  11
ENDBRANCH   2   5
BRANCH   3  17
ATOM     17  C   UNL     1       0.693  10.658  19.403  0.00  0.00    +0.000 C 
BRANCH  17  18
ATOM     18  C   UNL     1      -0.038  10.650  20.715  0.00  0.00    +0.000 A 
ATOM     19  C   UNL     1       0.183   9.646  21.654  0.00  0.00    +0.000 A 
ATOM     20  C   UNL     1      -0.495   9.716  22.856  0.00  0.00    +0.000 A 
ATOM     21  N   UNL     1      -1.363  10.703  23.182  0.00  0.00    +0.000 NA
ATOM     22  C   UNL     1      -1.618  11.660  22.268  0.00  0.00    +0.000 A 
ATOM     23  N   UNL     1      -2.494  12.690  22.572  0.00  0.00    +0.000 N 
ATOM     24  C   UNL     1      -2.673  13.078  23.970  0.00  0.00    +0.000 C 
ATOM     25  C   UNL     1      -4.056  12.709  24.498  0.00  0.00    +0.000 C 
ATOM     26  C   UNL     1      -5.155  13.197  23.560  0.00  0.00    +0.000 C 
ATOM     27  C   UNL     1      -4.927  12.646  22.158  0.00  0.00    +0.000 C 
ATOM     28  C   UNL     1      -3.550  13.038  21.623  0.00  0.00    +0.000 C 
ATOM     29  C   UNL     1      -0.959  11.655  21.034  0.00  0.00    +0.000 A 
ENDBRANCH  17  18
ENDBRANCH   3  17
TORSDOF 4
ENDMDL
MODEL 6
REMARK VINA RESULT:      -8.3      2.035      9.155
REMARK  Name = 
REMARK  4 active torsions:
REMARK  status: ('A' for Active; 'I' for Inactive)
REMARK    1  A    between atoms: C_2  and  C_17
REMARK    2  A    between atoms: N_3  and  C_4
REMARK    3  A    between atoms: C_4  and  C_5
REMARK    4  A    between atoms: C_21  and  N_22
REMARK                            x       y       z     vdW  Elec       q    Type
REMARK                         _______ _______ _______ _____ _____    ______ ____
ROOT
ATOM      1  O   UNL     1      -0.510  10.097  18.273  0.00  0.00    +0.000 OA
ATOM      2  C   UNL     1       0.269   9.916  19.199  0.00  0.00    +0.000 C 
ATOM      3  N   UNL     1       1.573   9.501  19.032  0.00  0.00    +0.000 N 
ATOM      4  H   UNL     1       2.070   9.123  19.827  0.00  0.00    +0.000 HD
ENDROOT
BRANCH   2   5
ATOM      5  C   UNL     1      -0.180  10.092  20.608  0.00  0.00    +0.000 A 
ATOM      6  C   UNL     1       0.134   9.102  21.539  0.00  0.00    +0.000 A 
ATOM      7  C   UNL     1      -0.236   9.271  22.869  0.00  0.00    +0.000 A 
ATOM      8  C   UNL     1      -0.914  10.429  23.269  0.00  0.00    +0.000 A 
ATOM      9  C   UNL     1      -1.254  11.430  22.350  0.00  0.00    +0.000 A 
ATOM     10  C   UNL     1      -0.898  11.230  21.009  0.00  0.00    +0.000 A 
BRANCH   9  11
ATOM     11  N   UNL     1      -1.916  12.625  22.752  0.00  0.00    +0.000 N 
ATOM     12  C   UNL     1      -1.215  13.752  23.326  0.00  0.00    +0.000 C 
ATOM     13  C   UNL     1      -2.298  14.563  24.002  0.00  0.00    +0.000 C 
ATOM     14  C   UNL     1      -3.518  14.309  23.140  0.00  0.00    +0.000 C 
ATOM     15  C   UNL     1      -3.282  12.917  22.602  0.00  0.00    +0.000 C 
ATOM     16  O   UNL     1      -4.167  12.246  22.096  0.00  0.00    +0.000 OA
ENDBRANCH   9  11
ENDBRANCH   2   5
BRANCH   3  17
ATOM     17  C   UNL     1       2.085   9.161  17.726  0.00  0.00    +0.000 C 
BRANCH  17  18
ATOM     18  C   UNL     1       2.832   7.858  17.770  0.00  0.00    +0.000 A 
ATOM     19  C   UNL     1       4.020   7.687  17.065  0.00  0.00    +0.000 A 
ATOM     20  C   UNL     1       4.675   6.476  17.176  0.00  0.00    +0.000 A 
ATOM     21  N   UNL     1       4.237   5.441  17.931  0.00  0.00    +0.000 NA
ATOM     22  C   UNL     1       3.069   5.577  18.588  0.00  0.00    +0.000 A 
ATOM     23  N   UNL     1       2.595   4.541  19.377  0.00  0.00    +0.000 N 
ATOM     24  C   UNL     1       3.551   3.603  19.963  0.00  0.00    +0.000 C 
ATOM     25  C   UNL     1       3.450   2.214  19.337  0.00  0.00    +0.000 C 
ATOM     26  C   UNL     1       2.009   1.718  19.317  0.00  0.00    +0.000 C 
ATOM     27  C   UNL     1       1.122   2.723  18.591  0.00  0.00    +0.000 C 
ATOM     28  C   UNL     1       1.207   4.106  19.234  0.00  0.00    +0.000 C 
ATOM     29  C   UNL     1       2.357   6.780  18.527  0.00  0.00    +0.000 A 
ENDBRANCH  17  18
ENDBRANCH   3  17
TORSDOF 4
ENDMDL
MODEL 7
REMARK VINA RESULT:      -8.3      1.948      9.261
REMARK  Name = 
REMARK  4 active torsions:
REMARK  status: ('A' for Active; 'I' for Inactive)
REMARK    1  A    between atoms: C_2  and  C_17
REMARK    2  A    between atoms: N_3  and  C_4
REMARK    3  A    between atoms: C_4  and  C_5
REMARK    4  A    between atoms: C_21  and  N_22
REMARK                            x       y       z     vdW  Elec       q    Type
REMARK                         _______ _______ _______ _____ _____    ______ ____
ROOT
ATOM      1  O   UNL     1      -0.034  10.685  18.385  0.00  0.00    +0.000 OA
ATOM      2  C   UNL     1       0.537  10.099  19.296  0.00  0.00    +0.000 C 
ATOM      3  N   UNL     1       1.660   9.321  19.120  0.00  0.00    +0.000 N 
ATOM      4  H   UNL     1       1.919   8.667  19.846  0.00  0.00    +0.000 HD
ENDROOT
BRANCH   2   5
ATOM      5  C   UNL     1       0.000  10.159  20.684  0.00  0.00    +0.000 A 
ATOM      6  C   UNL     1       0.264   9.097  21.550  0.00  0.00    +0.000 A 
ATOM      7  C   UNL     1      -0.188   9.157  22.864  0.00  0.00    +0.000 A 
ATOM      8  C   UNL     1      -0.898  10.277  23.313  0.00  0.00    +0.000 A 
ATOM      9  C   UNL     1      -1.190  11.348  22.458  0.00  0.00    +0.000 A 
ATOM     10  C   UNL     1      -0.750  11.259  21.131  0.00  0.00    +0.000 A 
BRANCH   9  11
ATOM     11  N   UNL     1      -1.884  12.505  22.914  0.00  0.00    +0.000 N 
ATOM     12  C   UNL     1      -3.274  12.479  23.309  0.00  0.00    +0.000 C 
ATOM     13  C   UNL     1      -3.703  13.929  23.270  0.00  0.00    +0.000 C 
ATOM     14  C   UNL     1      -2.438  14.680  23.633  0.00  0.00    +0.000 C 
ATOM     15  C   UNL     1      -1.339  13.785  23.109  0.00  0.00    +0.000 C 
ATOM     16  O   UNL     1      -0.190  14.171  22.956  0.00  0.00    +0.000 OA
ENDBRANCH   9  11
ENDBRANCH   2   5
BRANCH   3  17
ATOM     17  C   UNL     1       2.194   9.069  17.802  0.00  0.00    +0.000 C 
BRANCH  17  18
ATOM     18  C   UNL     1       2.902   7.745  17.758  0.00  0.00    +0.000 A 
ATOM     19  C   UNL     1       4.026   7.559  16.958  0.00  0.00    +0.000 A 
ATOM     20  C   UNL     1       4.652   6.327  16.990  0.00  0.00    +0.000 A 
ATOM     21  N   UNL     1       4.244   5.287  17.754  0.00  0.00    +0.000 NA
ATOM     22  C   UNL     1       3.134   5.440  18.504  0.00  0.00    +0.000 A 
ATOM     23  N   UNL     1       2.693   4.398  19.304  0.00  0.00    +0.000 N 
ATOM     24  C   UNL     1       3.663   3.419  19.791  0.00  0.00    +0.000 C 
ATOM     25  C   UNL     1       3.473   2.050  19.145  0.00  0.00    +0.000 C 
ATOM     26  C   UNL     1       2.020   1.595  19.227  0.00  0.00    +0.000 C 
ATOM     27  C   UNL     1       1.110   2.641  18.595  0.00  0.00    +0.000 C 
ATOM     28  C   UNL     1       1.285   4.006  19.261  0.00  0.00    +0.000 C 
ATOM     29  C   UNL     1       2.456   6.662  18.525  0.00  0.00    +0.000 A 
ENDBRANCH  17  18
ENDBRANCH   3  17
TORSDOF 4
ENDMDL
MODEL 8
REMARK VINA RESULT:      -8.2      3.364      9.328
REMARK  Name = 
REMARK  4 active torsions:
REMARK  status: ('A' for Active; 'I' for Inactive)
REMARK    1  A    between atoms: C_2  and  C_17
REMARK    2  A    between atoms: N_3  and  C_4
REMARK    3  A    between atoms: C_4  and  C_5
REMARK    4  A    between atoms: C_21  and  N_22
REMARK                            x       y       z     vdW  Elec       q    Type
REMARK                         _______ _______ _______ _____ _____    ______ ____
ROOT
ATOM      1  O   UNL     1       0.030  12.019  18.548  0.00  0.00    +0.000 OA
ATOM      2  C   UNL     1      -0.783  11.120  18.726  0.00  0.00    +0.000 C 
ATOM      3  N   UNL     1      -0.555  10.035  19.545  0.00  0.00    +0.000 N 
ATOM      4  H   UNL     1      -1.140   9.217  19.444  0.00  0.00    +0.000 HD
ENDROOT
BRANCH   2   5
ATOM      5  C   UNL     1      -2.085  11.126  18.005  0.00  0.00    +0.000 A 
ATOM      6  C   UNL     1      -2.159  10.517  16.752  0.00  0.00    +0.000 A 
ATOM      7  C   UNL     1      -3.378  10.471  16.085  0.00  0.00    +0.000 A 
ATOM      8  C   UNL     1      -4.521  11.029  16.669  0.00  0.00    +0.000 A 
ATOM      9  C   UNL     1      -4.469  11.660  17.918  0.00  0.00    +0.000 A 
ATOM     10  C   UNL     1      -3.228  11.721  18.564  0.00  0.00    +0.000 A 
BRANCH   9  11
ATOM     11  N   UNL     1      -5.633  12.202  18.535  0.00  0.00    +0.000 N 
ATOM     12  C   UNL     1      -6.025  11.877  19.887  0.00  0.00    +0.000 C 
ATOM     13  C   UNL     1      -7.483  12.276  19.961  0.00  0.00    +0.000 C 
ATOM     14  C   UNL     1      -7.576  13.449  19.008  0.00  0.00    +0.000 C 
ATOM     15  C   UNL     1      -6.511  13.148  17.979  0.00  0.00    +0.000 C 
ATOM     16  O   UNL     1      -6.463  13.708  16.895  0.00  0.00    +0.000 OA
ENDBRANCH   9  11
ENDBRANCH   2   5
BRANCH   3  17
ATOM     17  C   UNL     1       0.723   9.842  20.189  0.00  0.00    +0.000 C 
BRANCH  17  18
ATOM     18  C   UNL     1       1.514   8.771  19.493  0.00  0.00    +0.000 A 
ATOM     19  C   UNL     1       2.056   8.986  18.228  0.00  0.00    +0.000 A 
ATOM     20  C   UNL     1       2.802   7.973  17.658  0.00  0.00    +0.000 A 
ATOM     21  N   UNL     1       3.043   6.780  18.251  0.00  0.00    +0.000 NA
ATOM     22  C   UNL     1       2.491   6.542  19.458  0.00  0.00    +0.000 A 
ATOM     23  N   UNL     1       2.724   5.335  20.097  0.00  0.00    +0.000 N 
ATOM     24  C   UNL     1       3.954   4.602  19.801  0.00  0.00    +0.000 C 
ATOM     25  C   UNL     1       3.686   3.316  19.024  0.00  0.00    +0.000 C 
ATOM     26  C   UNL     1       2.598   2.482  19.692  0.00  0.00    +0.000 C 
ATOM     27  C   UNL     1       1.330   3.311  19.854  0.00  0.00    +0.000 C 
ATOM     28  C   UNL     1       1.598   4.587  20.652  0.00  0.00    +0.000 C 
ATOM     29  C   UNL     1       1.732   7.527  20.097  0.00  0.00    +0.000 A 
ENDBRANCH  17  18
ENDBRANCH   3  17
TORSDOF 4
ENDMDL
MODEL 9
REMARK VINA RESULT:      -8.1      3.441      9.361
REMARK  Name = 
REMARK  4 active torsions:
REMARK  status: ('A' for Active; 'I' for Inactive)
REMARK    1  A    between atoms: C_2  and  C_17
REMARK    2  A    between atoms: N_3  and  C_4
REMARK    3  A    between atoms: C_4  and  C_5
REMARK    4  A    between atoms: C_21  and  N_22
REMARK                            x       y       z     vdW  Elec       q    Type
REMARK                         _______ _______ _______ _____ _____    ______ ____
ROOT
ATOM      1  O   UNL     1      -0.470  12.786  18.278  0.00  0.00    +0.000 OA
ATOM      2  C   UNL     1      -0.985  11.684  18.145  0.00  0.00    +0.000 C 
ATOM      3  N   UNL     1      -0.296  10.497  18.276  0.00  0.00    +0.000 N 
ATOM      4  H   UNL     1      -0.705   9.652  17.901  0.00  0.00    +0.000 HD
ENDROOT
BRANCH   2   5
ATOM      5  C   UNL     1      -2.422  11.562  17.773  0.00  0.00    +0.000 A 
ATOM      6  C   UNL     1      -2.747  11.254  16.452  0.00  0.00    +0.000 A 
ATOM      7  C   UNL     1      -4.082  11.089  16.097  0.00  0.00    +0.000 A 
ATOM      8  C   UNL     1      -5.088  11.227  17.061  0.00  0.00    +0.000 A 
ATOM      9  C   UNL     1      -4.787  11.551  18.390  0.00  0.00    +0.000 A 
ATOM     10  C   UNL     1      -3.440  11.740  18.724  0.00  0.00    +0.000 A 
BRANCH   9  11
ATOM     11  N   UNL     1      -5.801  11.662  19.384  0.00  0.00    +0.000 N 
ATOM     12  C   UNL     1      -5.995  12.856  20.174  0.00  0.00    +0.000 C 
ATOM     13  C   UNL     1      -6.816  12.394  21.358  0.00  0.00    +0.000 C 
ATOM     14  C   UNL     1      -7.653  11.267  20.787  0.00  0.00    +0.000 C 
ATOM     15  C   UNL     1      -6.775  10.698  19.697  0.00  0.00    +0.000 C 
ATOM     16  O   UNL     1      -6.973   9.604  19.194  0.00  0.00    +0.000 OA
ENDBRANCH   9  11
ENDBRANCH   2   5
BRANCH   3  17
ATOM     17  C   UNL     1       1.132  10.484  18.495  0.00  0.00    +0.000 C 
BRANCH  17  18
ATOM     18  C   UNL     1       1.586   9.129  18.959  0.00  0.00    +0.000 A 
ATOM     19  C   UNL     1       1.267   8.662  20.231  0.00  0.00    +0.000 A 
ATOM     20  C   UNL     1       1.686   7.393  20.583  0.00  0.00    +0.000 A 
ATOM     21  N   UNL     1       2.387   6.570  19.768  0.00  0.00    +0.000 NA
ATOM     22  C   UNL     1       2.737   7.024  18.548  0.00  0.00    +0.000 A 
ATOM     23  N   UNL     1       3.448   6.205  17.685  0.00  0.00    +0.000 N 
ATOM     24  C   UNL     1       3.313   4.755  17.813  0.00  0.00    +0.000 C 
ATOM     25  C   UNL     1       4.591   4.102  18.333  0.00  0.00    +0.000 C 
ATOM     26  C   UNL     1       5.809   4.557  17.537  0.00  0.00    +0.000 C 
ATOM     27  C   UNL     1       5.910   6.077  17.560  0.00  0.00    +0.000 C 
ATOM     28  C   UNL     1       4.638   6.727  17.016  0.00  0.00    +0.000 C 
ATOM     29  C   UNL     1       2.339   8.296  18.123  0.00  0.00    +0.000 A 
ENDBRANCH  17  18
ENDBRANCH   3  17
TORSDOF 4
ENDMDL
