MODEL 1
REMARK VINA RESULT:      -8.6      0.000      0.000
REMARK  Name = 
REMARK  6 active torsions:
REMARK  status: ('A' for Active; 'I' for Inactive)
REMARK    1  A    between atoms: C_1  and  C_2
REMARK    2  A    between atoms: C_2  and  C_3
REMARK    3  A    between atoms: C_2  and  N_15
REMARK    4  A    between atoms: C_3  and  C_4
REMARK    5  A    between atoms: C_16  and  C_18
REMARK    6  A    between atoms: N_23  and  C_24
REMARK                            x       y       z     vdW  Elec       q    Type
REMARK                         _______ _______ _______ _____ _____    ______ ____
ROOT
ATOM      1  N   UNL     1       2.886   4.511  18.046  0.00  0.00    +0.000 N 
ATOM      2  C   UNL     1       2.958   5.270  19.193  0.00  0.00    +0.000 C 
ATOM      3  O   UNL     1       3.492   4.890  20.229  0.00  0.00    +0.000 OA
ATOM      4  H   UNL     1       2.526   4.926  17.200  0.00  0.00    +0.000 HD
ENDROOT
BRANCH   2   5
ATOM      5  C   UNL     1       2.420   6.649  19.099  0.00  0.00    +0.000 A 
ATOM      6  C   UNL     1       2.663   7.488  18.017  0.00  0.00    +0.000 A 
ATOM      7  C   UNL     1       2.180   8.781  18.098  0.00  0.00    +0.000 A 
ATOM      8  N   UNL     1       1.511   9.272  19.166  0.00  0.00    +0.000 NA
ATOM      9  C   UNL     1       1.255   8.435  20.191  0.00  0.00    +0.000 A 
ATOM     10  N   UNL     1       0.625   8.895  21.362  0.00  0.00    +0.000 N 
ATOM     11  C   UNL     1       1.675   7.114  20.180  0.00  0.00    +0.000 A 
ATOM     12  H   UNL     1      -0.195   8.329  21.560  0.00  0.00    +0.000 HD
BRANCH  10  13
ATOM     13  C   UNL     1       0.479  10.273  21.708  0.00  0.00    +0.000 C 
ATOM     14  C   UNL     1      -0.432  10.462  22.940  0.00  0.00    +0.000 C 
ATOM     15  C   UNL     1      -1.291  11.443  22.130  0.00  0.00    +0.000 C 
ATOM     16  C   UNL     1      -0.618  10.937  20.846  0.00  0.00    +0.000 C 
ENDBRANCH  10  13
ENDBRANCH   2   5
BRANCH   1  18
ATOM     17  C   UNL     1       2.521   2.111  17.826  0.00  0.00    +0.000 C 
ATOM     18  C   UNL     1       3.565   3.221  17.942  0.00  0.00    +0.000 C 
BRANCH  18  19
ATOM     19  C   UNL     1       4.539   3.169  16.746  0.00  0.00    +0.000 C 
BRANCH  19  20
ATOM     20  C   UNL     1       5.221   4.480  16.468  0.00  0.00    +0.000 A 
ATOM     21  C   UNL     1       5.083   5.250  15.329  0.00  0.00    +0.000 A 
ATOM     22  N   UNL     1       5.876   6.359  15.456  0.00  0.00    +0.000 N 
ATOM     23  C   UNL     1       6.535   6.337  16.663  0.00  0.00    +0.000 A 
ATOM     24  C   UNL     1       7.444   7.253  17.212  0.00  0.00    +0.000 A 
ATOM     25  C   UNL     1       7.965   6.960  18.470  0.00  0.00    +0.000 A 
ATOM     26  F   UNL     1       8.842   7.809  19.022  0.00  0.00    +0.000 F 
ATOM     27  C   UNL     1       7.588   5.813  19.153  0.00  0.00    +0.000 A 
ATOM     28  F   UNL     1       8.108   5.549  20.361  0.00  0.00    +0.000 F 
ATOM     29  C   UNL     1       6.671   4.914  18.607  0.00  0.00    +0.000 A 
ATOM     30  C   UNL     1       6.137   5.174  17.327  0.00  0.00    +0.000 A 
ATOM     31  H   UNL     1       5.968   7.090  14.763  0.00  0.00    +0.000 HD
ENDBRANCH  19  20
ENDBRANCH  18  19
ENDBRANCH   1  18
TORSDOF 5
ENDMDL
MODEL 2
REMARK VINA RESULT:      -7.8      4.269      8.939
REMARK  Name = 
REMARK  6 active torsions:
REMARK  status: ('A' for Active; 'I' for Inactive)
REMARK    1  A    between atoms: C_1  and  C_2
REMARK    2  A    between atoms: C_2  and  C_3
REMARK    3  A    between atoms: C_2  and  N_15
REMARK    4  A    between atoms: C_3  and  C_4
REMARK    5  A    between atoms: C_16  and  C_18
REMARK    6  A    between atoms: N_23  and  C_24
REMARK                            x       y       z     vdW  Elec       q    Type
REMARK                         _______ _______ _______ _____ _____    ______ ____
ROOT
ATOM      1  N   UNL     1       2.148   7.251  19.719  0.00  0.00    +0.000 N 
ATOM      2  C   UNL     1       1.988   5.964  20.179  0.00  0.00    +0.000 C 
ATOM      3  O   UNL     1       1.165   5.641  21.029  0.00  0.00    +0.000 OA
ATOM      4  H   UNL     1       2.770   7.426  18.944  0.00  0.00    +0.000 HD
ENDROOT
BRANCH   2   5
ATOM      5  C   UNL     1       2.819   4.926  19.520  0.00  0.00    +0.000 A 
ATOM      6  C   UNL     1       3.235   3.765  20.160  0.00  0.00    +0.000 A 
ATOM      7  C   UNL     1       4.083   2.926  19.461  0.00  0.00    +0.000 A 
ATOM      8  N   UNL     1       4.540   3.182  18.214  0.00  0.00    +0.000 NA
ATOM      9  C   UNL     1       4.100   4.296  17.596  0.00  0.00    +0.000 A 
ATOM     10  N   UNL     1       4.585   4.660  16.326  0.00  0.00    +0.000 N 
ATOM     11  C   UNL     1       3.224   5.176  18.211  0.00  0.00    +0.000 A 
ATOM     12  H   UNL     1       3.810   4.793  15.684  0.00  0.00    +0.000 HD
BRANCH  10  13
ATOM     13  C   UNL     1       5.754   4.103  15.723  0.00  0.00    +0.000 C 
ATOM     14  C   UNL     1       6.921   5.115  15.692  0.00  0.00    +0.000 C 
ATOM     15  C   UNL     1       7.054   4.884  14.180  0.00  0.00    +0.000 C 
ATOM     16  C   UNL     1       5.675   4.210  14.184  0.00  0.00    +0.000 C 
ENDBRANCH  10  13
ENDBRANCH   2   5
BRANCH   1  18
ATOM     17  C   UNL     1       1.646   8.810  21.525  0.00  0.00    +0.000 C 
ATOM     18  C   UNL     1       1.246   8.326  20.131  0.00  0.00    +0.000 C 
BRANCH  18  19
ATOM     19  C   UNL     1       1.247   9.503  19.133  0.00  0.00    +0.000 C 
BRANCH  19  20
ATOM     20  C   UNL     1       0.037  10.389  19.245  0.00  0.00    +0.000 A 
ATOM     21  C   UNL     1      -0.201  11.329  20.229  0.00  0.00    +0.000 A 
ATOM     22  N   UNL     1      -1.414  11.916  19.985  0.00  0.00    +0.000 N 
ATOM     23  C   UNL     1      -1.982  11.380  18.852  0.00  0.00    +0.000 A 
ATOM     24  C   UNL     1      -3.206  11.670  18.234  0.00  0.00    +0.000 A 
ATOM     25  C   UNL     1      -3.526  10.951  17.084  0.00  0.00    +0.000 A 
ATOM     26  F   UNL     1      -4.692  11.197  16.470  0.00  0.00    +0.000 F 
ATOM     27  C   UNL     1      -2.660   9.998  16.569  0.00  0.00    +0.000 A 
ATOM     28  F   UNL     1      -2.993   9.315  15.465  0.00  0.00    +0.000 F 
ATOM     29  C   UNL     1      -1.436   9.726  17.182  0.00  0.00    +0.000 A 
ATOM     30  C   UNL     1      -1.090  10.425  18.358  0.00  0.00    +0.000 A 
ATOM     31  H   UNL     1      -1.835  12.637  20.555  0.00  0.00    +0.000 HD
ENDBRANCH  19  20
ENDBRANCH  18  19
ENDBRANCH   1  18
TORSDOF 5
ENDMDL
MODEL 3
REMARK VINA RESULT:      -7.7      3.835      9.007
REMARK  Name = 
REMARK  6 active torsions:
REMARK  status: ('A' for Active; 'I' for Inactive)
REMARK    1  A    between atoms: C_1  and  C_2
REMARK    2  A    between atoms: C_2  and  C_3
REMARK    3  A    between atoms: C_2  and  N_15
REMARK    4  A    between atoms: C_3  and  C_4
REMARK    5  A    between atoms: C_16  and  C_18
REMARK    6  A    between atoms: N_23  and  C_24
REMARK                            x       y       z     vdW  Elec       q    Type
REMARK                         _______ _______ _______ _____ _____    ______ ____
ROOT
ATOM      1  N   UNL     1       1.984   8.739  18.606  0.00  0.00    +0.000 N 
ATOM      2  C   UNL     1       2.057   7.801  19.611  0.00  0.00    +0.000 C 
ATOM      3  O   UNL     1       1.590   7.965  20.733  0.00  0.00    +0.000 OA
ATOM      4  H   UNL     1       2.295   8.495  17.678  0.00  0.00    +0.000 HD
ENDROOT
BRANCH   2   5
ATOM      5  C   UNL     1       2.670   6.500  19.247  0.00  0.00    +0.000 A 
ATOM      6  C   UNL     1       2.770   5.431  20.131  0.00  0.00    +0.000 A 
ATOM      7  C   UNL     1       3.446   4.309  19.692  0.00  0.00    +0.000 A 
ATOM      8  N   UNL     1       4.026   4.203  18.474  0.00  0.00    +0.000 NA
ATOM      9  C   UNL     1       3.891   5.235  17.619  0.00  0.00    +0.000 A 
ATOM     10  N   UNL     1       4.524   5.223  16.362  0.00  0.00    +0.000 N 
ATOM     11  C   UNL     1       3.201   6.387  17.965  0.00  0.00    +0.000 A 
ATOM     12  H   UNL     1       3.841   5.383  15.628  0.00  0.00    +0.000 HD
BRANCH  10  13
ATOM     13  C   UNL     1       5.571   4.321  15.999  0.00  0.00    +0.000 C 
ATOM     14  C   UNL     1       6.954   5.007  16.029  0.00  0.00    +0.000 C 
ATOM     15  C   UNL     1       7.194   4.539  14.586  0.00  0.00    +0.000 C 
ATOM     16  C   UNL     1       5.697   4.225  14.462  0.00  0.00    +0.000 C 
ENDBRANCH  10  13
ENDBRANCH   2   5
BRANCH   1  18
ATOM     17  C   UNL     1       2.048  11.151  18.257  0.00  0.00    +0.000 C 
ATOM     18  C   UNL     1       1.219   9.974  18.771  0.00  0.00    +0.000 C 
BRANCH  18  19
ATOM     19  C   UNL     1      -0.142   9.918  18.046  0.00  0.00    +0.000 C 
BRANCH  19  20
ATOM     20  C   UNL     1      -1.143  10.914  18.565  0.00  0.00    +0.000 A 
ATOM     21  C   UNL     1      -2.012  11.674  17.807  0.00  0.00    +0.000 A 
ATOM     22  N   UNL     1      -2.748  12.463  18.649  0.00  0.00    +0.000 N 
ATOM     23  C   UNL     1      -2.382  12.234  19.956  0.00  0.00    +0.000 A 
ATOM     24  C   UNL     1      -2.859  12.813  21.140  0.00  0.00    +0.000 A 
ATOM     25  C   UNL     1      -2.286  12.385  22.335  0.00  0.00    +0.000 A 
ATOM     26  F   UNL     1      -2.712  12.921  23.487  0.00  0.00    +0.000 F 
ATOM     27  C   UNL     1      -1.292  11.417  22.349  0.00  0.00    +0.000 A 
ATOM     28  F   UNL     1      -0.752  11.026  23.512  0.00  0.00    +0.000 F 
ATOM     29  C   UNL     1      -0.834  10.834  21.167  0.00  0.00    +0.000 A 
ATOM     30  C   UNL     1      -1.382  11.259  19.937  0.00  0.00    +0.000 A 
ATOM     31  H   UNL     1      -3.457  13.121  18.357  0.00  0.00    +0.000 HD
ENDBRANCH  19  20
ENDBRANCH  18  19
ENDBRANCH   1  18
TORSDOF 5
ENDMDL
MODEL 4
REMARK VINA RESULT:      -7.7      3.090      4.643
REMARK  Name = 
REMARK  6 active torsions:
REMARK  status: ('A' for Active; 'I' for Inactive)
REMARK    1  A    between atoms: C_1  and  C_2
REMARK    2  A    between atoms: C_2  and  C_3
REMARK    3  A    between atoms: C_2  and  N_15
REMARK    4  A    between atoms: C_3  and  C_4
REMARK    5  A    between atoms: C_16  and  C_18
REMARK    6  A    between atoms: N_23  and  C_24
REMARK                            x       y       z     vdW  Elec       q    Type
REMARK                         _______ _______ _______ _____ _____    ______ ____
ROOT
ATOM      1  N   UNL     1       3.610   7.113  18.075  0.00  0.00    +0.000 N 
ATOM      2  C   UNL     1       2.753   8.189  18.027  0.00  0.00    +0.000 C 
ATOM      3  O   UNL     1       2.569   8.871  17.025  0.00  0.00    +0.000 OA
ATOM      4  H   UNL     1       3.632   6.533  18.900  0.00  0.00    +0.000 HD
ENDROOT
BRANCH   2   5
ATOM      5  C   UNL     1       1.965   8.451  19.257  0.00  0.00    +0.000 A 
ATOM      6  C   UNL     1       1.779   7.503  20.257  0.00  0.00    +0.000 A 
ATOM      7  C   UNL     1       0.946   7.845  21.306  0.00  0.00    +0.000 A 
ATOM      8  N   UNL     1       0.295   9.027  21.399  0.00  0.00    +0.000 NA
ATOM      9  C   UNL     1       0.513   9.946  20.437  0.00  0.00    +0.000 A 
ATOM     10  N   UNL     1      -0.183  11.170  20.433  0.00  0.00    +0.000 N 
ATOM     11  C   UNL     1       1.357   9.699  19.367  0.00  0.00    +0.000 A 
ATOM     12  H   UNL     1       0.475  11.942  20.399  0.00  0.00    +0.000 HD
BRANCH  10  13
ATOM     13  C   UNL     1      -1.351  11.432  21.212  0.00  0.00    +0.000 C 
ATOM     14  C   UNL     1      -2.142  12.642  20.670  0.00  0.00    +0.000 C 
ATOM     15  C   UNL     1      -2.092  13.276  22.067  0.00  0.00    +0.000 C 
ATOM     16  C   UNL     1      -0.996  12.274  22.458  0.00  0.00    +0.000 C 
ENDBRANCH  10  13
ENDBRANCH   2   5
BRANCH   1  18
ATOM     17  C   UNL     1       5.769   6.970  16.950  0.00  0.00    +0.000 C 
ATOM     18  C   UNL     1       4.283   6.621  16.873  0.00  0.00    +0.000 C 
BRANCH  18  19
ATOM     19  C   UNL     1       4.097   5.101  16.682  0.00  0.00    +0.000 C 
BRANCH  19  20
ATOM     20  C   UNL     1       4.290   4.307  17.944  0.00  0.00    +0.000 A 
ATOM     21  C   UNL     1       5.481   3.788  18.412  0.00  0.00    +0.000 A 
ATOM     22  N   UNL     1       5.236   3.123  19.583  0.00  0.00    +0.000 N 
ATOM     23  C   UNL     1       3.899   3.197  19.901  0.00  0.00    +0.000 A 
ATOM     24  C   UNL     1       3.201   2.666  20.995  0.00  0.00    +0.000 A 
ATOM     25  C   UNL     1       1.829   2.898  21.050  0.00  0.00    +0.000 A 
ATOM     26  F   UNL     1       1.127   2.399  22.077  0.00  0.00    +0.000 F 
ATOM     27  C   UNL     1       1.186   3.637  20.067  0.00  0.00    +0.000 A 
ATOM     28  F   UNL     1      -0.138   3.843  20.139  0.00  0.00    +0.000 F 
ATOM     29  C   UNL     1       1.890   4.176  18.991  0.00  0.00    +0.000 A 
ATOM     30  C   UNL     1       3.279   3.944  18.896  0.00  0.00    +0.000 A 
ATOM     31  H   UNL     1       5.933   2.644  20.136  0.00  0.00    +0.000 HD
ENDBRANCH  19  20
ENDBRANCH  18  19
ENDBRANCH   1  18
TORSDOF 5
ENDMDL
MODEL 5
REMARK VINA RESULT:      -7.6      2.874      4.676
REMARK  Name = 
REMARK  6 active torsions:
REMARK  status: ('A' for Active; 'I' for Inactive)
REMARK    1  A    between atoms: C_1  and  C_2
REMARK    2  A    between atoms: C_2  and  C_3
REMARK    3  A    between atoms: C_2  and  N_15
REMARK    4  A    between atoms: C_3  and  C_4
REMARK    5  A    between atoms: C_16  and  C_18
REMARK    6  A    between atoms: N_23  and  C_24
REMARK                            x       y       z     vdW  Elec       q    Type
REMARK                         _______ _______ _______ _____ _____    ______ ____
ROOT
ATOM      1  N   UNL     1       4.614   6.115  18.016  0.00  0.00    +0.000 N 
ATOM      2  C   UNL     1       3.851   7.127  17.478  0.00  0.00    +0.000 C 
ATOM      3  O   UNL     1       3.884   7.452  16.296  0.00  0.00    +0.000 OA
ATOM      4  H   UNL     1       4.457   5.832  18.971  0.00  0.00    +0.000 HD
ENDROOT
BRANCH   2   5
ATOM      5  C   UNL     1       2.885   7.777  18.398  0.00  0.00    +0.000 A 
ATOM      6  C   UNL     1       2.623   7.308  19.680  0.00  0.00    +0.000 A 
ATOM      7  C   UNL     1       1.633   7.952  20.399  0.00  0.00    +0.000 A 
ATOM      8  N   UNL     1       0.902   8.986  19.921  0.00  0.00    +0.000 NA
ATOM      9  C   UNL     1       1.194   9.448  18.689  0.00  0.00    +0.000 A 
ATOM     10  N   UNL     1       0.431  10.475  18.101  0.00  0.00    +0.000 N 
ATOM     11  C   UNL     1       2.192   8.882  17.912  0.00  0.00    +0.000 A 
ATOM     12  H   UNL     1       1.038  11.235  17.811  0.00  0.00    +0.000 HD
BRANCH  10  13
ATOM     13  C   UNL     1      -0.848  10.897  18.577  0.00  0.00    +0.000 C 
ATOM     14  C   UNL     1      -1.999  10.146  17.873  0.00  0.00    +0.000 C 
ATOM     15  C   UNL     1      -2.626  11.496  17.501  0.00  0.00    +0.000 C 
ATOM     16  C   UNL     1      -1.300  12.184  17.851  0.00  0.00    +0.000 C 
ENDBRANCH  10  13
ENDBRANCH   2   5
BRANCH   1  18
ATOM     17  C   UNL     1       6.838   5.142  17.792  0.00  0.00    +0.000 C 
ATOM     18  C   UNL     1       5.445   5.257  17.173  0.00  0.00    +0.000 C 
BRANCH  18  19
ATOM     19  C   UNL     1       4.826   3.857  16.977  0.00  0.00    +0.000 C 
BRANCH  19  20
ATOM     20  C   UNL     1       3.415   3.746  17.485  0.00  0.00    +0.000 A 
ATOM     21  C   UNL     1       2.266   4.056  16.784  0.00  0.00    +0.000 A 
ATOM     22  N   UNL     1       1.187   3.832  17.597  0.00  0.00    +0.000 N 
ATOM     23  C   UNL     1       1.605   3.373  18.825  0.00  0.00    +0.000 A 
ATOM     24  C   UNL     1       0.858   3.021  19.958  0.00  0.00    +0.000 A 
ATOM     25  C   UNL     1       1.563   2.591  21.080  0.00  0.00    +0.000 A 
ATOM     26  F   UNL     1       0.882   2.253  22.183  0.00  0.00    +0.000 F 
ATOM     27  C   UNL     1       2.948   2.506  21.067  0.00  0.00    +0.000 A 
ATOM     28  F   UNL     1       3.605   2.095  22.162  0.00  0.00    +0.000 F 
ATOM     29  C   UNL     1       3.683   2.843  19.931  0.00  0.00    +0.000 A 
ATOM     30  C   UNL     1       2.999   3.299  18.783  0.00  0.00    +0.000 A 
ATOM     31  H   UNL     1       0.222   3.982  17.336  0.00  0.00    +0.000 HD
ENDBRANCH  19  20
ENDBRANCH  18  19
ENDBRANCH   1  18
TORSDOF 5
ENDMDL
MODEL 6
REMARK VINA RESULT:      -7.6      4.862      9.554
REMARK  Name = 
REMARK  6 active torsions:
REMARK  status: ('A' for Active; 'I' for Inactive)
REMARK    1  A    between atoms: C_1  and  C_2
REMARK    2  A    between atoms: C_2  and  C_3
REMARK    3  A    between atoms: C_2  and  N_15
REMARK    4  A    between atoms: C_3  and  C_4
REMARK    5  A    between atoms: C_16  and  C_18
REMARK    6  A    between atoms: N_23  and  C_24
REMARK                            x       y       z     vdW  Elec       q    Type
REMARK                         _______ _______ _______ _____ _____    ______ ____
ROOT
ATOM      1  N   UNL     1       2.295   8.485  18.466  0.00  0.00    +0.000 N 
ATOM      2  C   UNL     1       2.287   7.475  19.402  0.00  0.00    +0.000 C 
ATOM      3  O   UNL     1       1.678   7.535  20.464  0.00  0.00    +0.000 OA
ATOM      4  H   UNL     1       2.729   8.326  17.570  0.00  0.00    +0.000 HD
ENDROOT
BRANCH   2   5
ATOM      5  C   UNL     1       3.000   6.230  19.025  0.00  0.00    +0.000 A 
ATOM      6  C   UNL     1       3.300   5.220  19.933  0.00  0.00    +0.000 A 
ATOM      7  C   UNL     1       4.050   4.155  19.469  0.00  0.00    +0.000 A 
ATOM      8  N   UNL     1       4.518   4.054  18.204  0.00  0.00    +0.000 NA
ATOM      9  C   UNL     1       4.189   5.026  17.329  0.00  0.00    +0.000 A 
ATOM     10  N   UNL     1       4.697   5.021  16.017  0.00  0.00    +0.000 N 
ATOM     11  C   UNL     1       3.415   6.113  17.701  0.00  0.00    +0.000 A 
ATOM     12  H   UNL     1       3.933   5.074  15.350  0.00  0.00    +0.000 HD
BRANCH  10  13
ATOM     13  C   UNL     1       5.796   4.218  15.583  0.00  0.00    +0.000 C 
ATOM     14  C   UNL     1       7.071   5.061  15.365  0.00  0.00    +0.000 C 
ATOM     15  C   UNL     1       7.181   4.489  13.944  0.00  0.00    +0.000 C 
ATOM     16  C   UNL     1       5.734   3.991  14.056  0.00  0.00    +0.000 C 
ENDBRANCH  10  13
ENDBRANCH   2   5
BRANCH   1  18
ATOM     17  C   UNL     1       2.254  10.907  18.190  0.00  0.00    +0.000 C 
ATOM     18  C   UNL     1       1.459   9.675  18.622  0.00  0.00    +0.000 C 
BRANCH  18  19
ATOM     19  C   UNL     1       0.145   9.573  17.817  0.00  0.00    +0.000 C 
BRANCH  19  20
ATOM     20  C   UNL     1      -0.968  10.417  18.373  0.00  0.00    +0.000 A 
ATOM     21  C   UNL     1      -0.988  11.037  19.608  0.00  0.00    +0.000 A 
ATOM     22  N   UNL     1      -2.179  11.699  19.743  0.00  0.00    +0.000 N 
ATOM     23  C   UNL     1      -2.947  11.530  18.613  0.00  0.00    +0.000 A 
ATOM     24  C   UNL     1      -4.226  12.017  18.312  0.00  0.00    +0.000 A 
ATOM     25  C   UNL     1      -4.766  11.672  17.075  0.00  0.00    +0.000 A 
ATOM     26  F   UNL     1      -5.990  12.114  16.755  0.00  0.00    +0.000 F 
ATOM     27  C   UNL     1      -4.057  10.888  16.176  0.00  0.00    +0.000 A 
ATOM     28  F   UNL     1      -4.600  10.564  14.994  0.00  0.00    +0.000 F 
ATOM     29  C   UNL     1      -2.777  10.420  16.477  0.00  0.00    +0.000 A 
ATOM     30  C   UNL     1      -2.209  10.738  17.730  0.00  0.00    +0.000 A 
ATOM     31  H   UNL     1      -2.458  12.233  20.554  0.00  0.00    +0.000 HD
ENDBRANCH  19  20
ENDBRANCH  18  19
ENDBRANCH   1  18
TORSDOF 5
ENDMDL
MODEL 7
REMARK VINA RESULT:      -7.6      5.283      7.409
REMARK  Name = 
REMARK  6 active torsions:
REMARK  status: ('A' for Active; 'I' for Inactive)
REMARK    1  A    between atoms: C_1  and  C_2
REMARK    2  A    between atoms: C_2  and  C_3
REMARK    3  A    between atoms: C_2  and  N_15
REMARK    4  A    between atoms: C_3  and  C_4
REMARK    5  A    between atoms: C_16  and  C_18
REMARK    6  A    between atoms: N_23  and  C_24
REMARK                            x       y       z     vdW  Elec       q    Type
REMARK                         _______ _______ _______ _____ _____    ______ ____
ROOT
ATOM      1  N   UNL     1       8.495   7.923  18.753  0.00  0.00    +0.000 N 
ATOM      2  C   UNL     1       8.400   9.131  18.100  0.00  0.00    +0.000 C 
ATOM      3  O   UNL     1       7.820   9.285  17.031  0.00  0.00    +0.000 OA
ATOM      4  H   UNL     1       8.894   7.891  19.679  0.00  0.00    +0.000 HD
ENDROOT
BRANCH   2   5
ATOM      5  C   UNL     1       8.972  10.303  18.808  0.00  0.00    +0.000 A 
ATOM      6  C   UNL     1       9.413  10.255  20.125  0.00  0.00    +0.000 A 
ATOM      7  C   UNL     1       9.838  11.441  20.694  0.00  0.00    +0.000 A 
ATOM      8  N   UNL     1       9.828  12.633  20.054  0.00  0.00    +0.000 NA
ATOM      9  C   UNL     1       9.429  12.654  18.767  0.00  0.00    +0.000 A 
ATOM     10  N   UNL     1       9.328  13.867  18.060  0.00  0.00    +0.000 N 
ATOM     11  C   UNL     1       9.016  11.506  18.109  0.00  0.00    +0.000 A 
ATOM     12  H   UNL     1       9.870  13.814  17.203  0.00  0.00    +0.000 HD
BRANCH  10  13
ATOM     13  C   UNL     1       9.330  15.157  18.673  0.00  0.00    +0.000 C 
ATOM     14  C   UNL     1       7.908  15.604  19.073  0.00  0.00    +0.000 C 
ATOM     15  C   UNL     1       8.117  16.906  18.286  0.00  0.00    +0.000 C 
ATOM     16  C   UNL     1       9.334  16.269  17.601  0.00  0.00    +0.000 C 
ENDBRANCH  10  13
ENDBRANCH   2   5
BRANCH   1  18
ATOM     17  C   UNL     1       7.732   5.695  19.385  0.00  0.00    +0.000 C 
ATOM     18  C   UNL     1       7.791   6.737  18.267  0.00  0.00    +0.000 C 
BRANCH  18  19
ATOM     19  C   UNL     1       6.370   7.068  17.765  0.00  0.00    +0.000 C 
BRANCH  19  20
ATOM     20  C   UNL     1       5.608   5.867  17.278  0.00  0.00    +0.000 A 
ATOM     21  C   UNL     1       5.961   5.045  16.225  0.00  0.00    +0.000 A 
ATOM     22  N   UNL     1       5.004   4.074  16.092  0.00  0.00    +0.000 N 
ATOM     23  C   UNL     1       4.024   4.239  17.044  0.00  0.00    +0.000 A 
ATOM     24  C   UNL     1       2.863   3.491  17.280  0.00  0.00    +0.000 A 
ATOM     25  C   UNL     1       2.039   3.904  18.325  0.00  0.00    +0.000 A 
ATOM     26  F   UNL     1       0.916   3.217  18.576  0.00  0.00    +0.000 F 
ATOM     27  C   UNL     1       2.366   5.004  19.105  0.00  0.00    +0.000 A 
ATOM     28  F   UNL     1       1.555   5.386  20.102  0.00  0.00    +0.000 F 
ATOM     29  C   UNL     1       3.533   5.733  18.874  0.00  0.00    +0.000 A 
ATOM     30  C   UNL     1       4.380   5.351  17.811  0.00  0.00    +0.000 A 
ATOM     31  H   UNL     1       5.013   3.342  15.395  0.00  0.00    +0.000 HD
ENDBRANCH  19  20
ENDBRANCH  18  19
ENDBRANCH   1  18
TORSDOF 5
ENDMDL
MODEL 8
REMARK VINA RESULT:      -7.6      5.548      9.904
REMARK  Name = 
REMARK  6 active torsions:
REMARK  status: ('A' for Active; 'I' for Inactive)
REMARK    1  A    between atoms: C_1  and  C_2
REMARK    2  A    between atoms: C_2  and  C_3
REMARK    3  A    between atoms: C_2  and  N_15
REMARK    4  A    between atoms: C_3  and  C_4
REMARK    5  A    between atoms: C_16  and  C_18
REMARK    6  A    between atoms: N_23  and  C_24
REMARK                            x       y       z     vdW  Elec       q    Type
REMARK                         _______ _______ _______ _____ _____    ______ ____
ROOT
ATOM      1  N   UNL     1       0.512  11.319  19.950  0.00  0.00    +0.000 N 
ATOM      2  C   UNL     1       0.370  10.073  20.518  0.00  0.00    +0.000 C 
ATOM      3  O   UNL     1      -0.424   9.821  21.417  0.00  0.00    +0.000 OA
ATOM      4  H   UNL     1       1.107  11.431  19.143  0.00  0.00    +0.000 HD
ENDROOT
BRANCH   2   5
ATOM      5  C   UNL     1       1.182   8.986  19.918  0.00  0.00    +0.000 A 
ATOM      6  C   UNL     1       1.646   9.017  18.608  0.00  0.00    +0.000 A 
ATOM      7  C   UNL     1       2.313   7.897  18.147  0.00  0.00    +0.000 A 
ATOM      8  N   UNL     1       2.516   6.781  18.883  0.00  0.00    +0.000 NA
ATOM      9  C   UNL     1       2.088   6.781  20.161  0.00  0.00    +0.000 A 
ATOM     10  N   UNL     1       2.204   5.632  20.965  0.00  0.00    +0.000 N 
ATOM     11  C   UNL     1       1.439   7.873  20.715  0.00  0.00    +0.000 A 
ATOM     12  H   UNL     1       2.697   5.857  21.823  0.00  0.00    +0.000 HD
BRANCH  10  13
ATOM     13  C   UNL     1       2.478   4.324  20.460  0.00  0.00    +0.000 C 
ATOM     14  C   UNL     1       1.238   3.699  19.784  0.00  0.00    +0.000 C 
ATOM     15  C   UNL     1       1.390   2.468  20.688  0.00  0.00    +0.000 C 
ATOM     16  C   UNL     1       2.346   3.270  21.582  0.00  0.00    +0.000 C 
ENDBRANCH  10  13
ENDBRANCH   2   5
BRANCH   1  18
ATOM     17  C   UNL     1       0.417  13.491  21.055  0.00  0.00    +0.000 C 
ATOM     18  C   UNL     1      -0.379  12.424  20.303  0.00  0.00    +0.000 C 
BRANCH  18  19
ATOM     19  C   UNL     1      -1.064  13.038  19.064  0.00  0.00    +0.000 C 
BRANCH  19  20
ATOM     20  C   UNL     1      -2.160  12.181  18.495  0.00  0.00    +0.000 A 
ATOM     21  C   UNL     1      -2.063  11.349  17.397  0.00  0.00    +0.000 A 
ATOM     22  N   UNL     1      -3.279  10.753  17.193  0.00  0.00    +0.000 N 
ATOM     23  C   UNL     1      -4.180  11.175  18.144  0.00  0.00    +0.000 A 
ATOM     24  C   UNL     1      -5.528  10.835  18.321  0.00  0.00    +0.000 A 
ATOM     25  C   UNL     1      -6.203  11.436  19.382  0.00  0.00    +0.000 A 
ATOM     26  F   UNL     1      -7.496  11.140  19.578  0.00  0.00    +0.000 F 
ATOM     27  C   UNL     1      -5.559  12.323  20.232  0.00  0.00    +0.000 A 
ATOM     28  F   UNL     1      -6.232  12.893  21.243  0.00  0.00    +0.000 F 
ATOM     29  C   UNL     1      -4.213  12.643  20.058  0.00  0.00    +0.000 A 
ATOM     30  C   UNL     1      -3.505  12.065  18.982  0.00  0.00    +0.000 A 
ATOM     31  H   UNL     1      -3.488  10.098  16.452  0.00  0.00    +0.000 HD
ENDBRANCH  19  20
ENDBRANCH  18  19
ENDBRANCH   1  18
TORSDOF 5
ENDMDL
MODEL 9
REMARK VINA RESULT:      -7.5      3.120      4.126
REMARK  Name = 
REMARK  6 active torsions:
REMARK  status: ('A' for Active; 'I' for Inactive)
REMARK    1  A    between atoms: C_1  and  C_2
REMARK    2  A    between atoms: C_2  and  C_3
REMARK    3  A    between atoms: C_2  and  N_15
REMARK    4  A    between atoms: C_3  and  C_4
REMARK    5  A    between atoms: C_16  and  C_18
REMARK    6  A    between atoms: N_23  and  C_24
REMARK                            x       y       z     vdW  Elec       q    Type
REMARK                         _______ _______ _______ _____ _____    ______ ____
ROOT
ATOM      1  N   UNL     1       1.886   6.412  20.510  0.00  0.00    +0.000 N 
ATOM      2  C   UNL     1       2.166   7.510  19.727  0.00  0.00    +0.000 C 
ATOM      3  O   UNL     1       3.100   7.563  18.935  0.00  0.00    +0.000 OA
ATOM      4  H   UNL     1       1.041   6.399  21.060  0.00  0.00    +0.000 HD
ENDROOT
BRANCH   2   5
ATOM      5  C   UNL     1       1.206   8.638  19.817  0.00  0.00    +0.000 A 
ATOM      6  C   UNL     1       0.799   9.196  21.023  0.00  0.00    +0.000 A 
ATOM      7  C   UNL     1      -0.170  10.180  20.970  0.00  0.00    +0.000 A 
ATOM      8  N   UNL     1      -0.752  10.608  19.826  0.00  0.00    +0.000 NA
ATOM      9  C   UNL     1      -0.322  10.078  18.663  0.00  0.00    +0.000 A 
ATOM     10  N   UNL     1      -0.928  10.426  17.441  0.00  0.00    +0.000 N 
ATOM     11  C   UNL     1       0.669   9.110  18.622  0.00  0.00    +0.000 A 
ATOM     12  H   UNL     1      -0.225  10.758  16.788  0.00  0.00    +0.000 HD
BRANCH  10  13
ATOM     13  C   UNL     1      -2.188  11.088  17.330  0.00  0.00    +0.000 C 
ATOM     14  C   UNL     1      -3.367  10.126  17.595  0.00  0.00    +0.000 C 
ATOM     15  C   UNL     1      -3.980  10.538  16.249  0.00  0.00    +0.000 C 
ATOM     16  C   UNL     1      -2.634  11.161  15.852  0.00  0.00    +0.000 C 
ENDBRANCH  10  13
ENDBRANCH   2   5
BRANCH   1  18
ATOM     17  C   UNL     1       1.827   4.024  20.996  0.00  0.00    +0.000 C 
ATOM     18  C   UNL     1       2.627   5.160  20.359  0.00  0.00    +0.000 C 
BRANCH  18  19
ATOM     19  C   UNL     1       2.933   4.839  18.881  0.00  0.00    +0.000 C 
BRANCH  19  20
ATOM     20  C   UNL     1       4.402   4.811  18.563  0.00  0.00    +0.000 A 
ATOM     21  C   UNL     1       5.439   4.937  19.467  0.00  0.00    +0.000 A 
ATOM     22  N   UNL     1       6.623   4.871  18.784  0.00  0.00    +0.000 N 
ATOM     23  C   UNL     1       6.387   4.698  17.439  0.00  0.00    +0.000 A 
ATOM     24  C   UNL     1       7.289   4.584  16.372  0.00  0.00    +0.000 A 
ATOM     25  C   UNL     1       6.753   4.423  15.097  0.00  0.00    +0.000 A 
ATOM     26  F   UNL     1       7.585   4.317  14.052  0.00  0.00    +0.000 F 
ATOM     27  C   UNL     1       5.381   4.367  14.897  0.00  0.00    +0.000 A 
ATOM     28  F   UNL     1       4.888   4.218  13.659  0.00  0.00    +0.000 F 
ATOM     29  C   UNL     1       4.490   4.466  15.966  0.00  0.00    +0.000 A 
ATOM     30  C   UNL     1       5.001   4.647  17.269  0.00  0.00    +0.000 A 
ATOM     31  H   UNL     1       7.540   4.940  19.202  0.00  0.00    +0.000 HD
ENDBRANCH  19  20
ENDBRANCH  18  19
ENDBRANCH   1  18
TORSDOF 5
ENDMDL
