MODEL 1
REMARK VINA RESULT:      -7.6      0.000      0.000
REMARK  Name = 
REMARK  6 active torsions:
REMARK  status: ('A' for Active; 'I' for Inactive)
REMARK    1  A    between atoms: C_1  and  C_2
REMARK    2  A    between atoms: C_5  and  C_6
REMARK    3  A    between atoms: C_7  and  C_8
REMARK    4  A    between atoms: C_13  and  C_15
REMARK    5  A    between atoms: C_19  and  N_20
REMARK    6  A    between atoms: C_21  and  C_23
REMARK                            x       y       z     vdW  Elec       q    Type
REMARK                         _______ _______ _______ _____ _____    ______ ____
ROOT
ATOM      1  C   UNL     1       9.904  12.368  20.909  0.00  0.00    +0.000 A 
ATOM      2  C   UNL     1      11.209  12.493  20.444  0.00  0.00    +0.000 A 
ATOM      3  C   UNL     1      11.632  11.756  19.350  0.00  0.00    +0.000 A 
ATOM      4  C   UNL     1      10.821  10.756  18.849  0.00  0.00    +0.000 A 
ATOM      5  C   UNL     1       9.664  10.380  19.531  0.00  0.00    +0.000 A 
ATOM      6  C   UNL     1       9.156  11.240  20.518  0.00  0.00    +0.000 A 
ENDROOT
BRANCH   1  12
ATOM      7  C   UNL     1       9.317  15.574  20.475  0.00  0.00    +0.000 C 
ATOM      8  C   UNL     1       9.946  16.897  20.919  0.00  0.00    +0.000 C 
ATOM      9  C   UNL     1       9.405  17.037  22.336  0.00  0.00    +0.000 C 
ATOM     10  C   UNL     1       9.328  15.595  22.843  0.00  0.00    +0.000 C 
ATOM     11  N   UNL     1       9.538  14.733  21.677  0.00  0.00    +0.000 N 
ATOM     12  C   UNL     1       9.391  13.358  21.899  0.00  0.00    +0.000 C 
ATOM     13  O   UNL     1       8.949  12.904  22.954  0.00  0.00    +0.000 OA
BRANCH   7  20
ATOM     14  C   UNL     1      12.211  15.941  19.222  0.00  0.00    +0.000 C 
ATOM     15  C   UNL     1      11.044  15.276  18.582  0.00  0.00    +0.000 A 
ATOM     16  N   UNL     1      11.166  14.752  17.360  0.00  0.00    +0.000 NA
ATOM     17  N   UNL     1       9.951  14.264  17.095  0.00  0.00    +0.000 N 
ATOM     18  C   UNL     1       9.062  14.383  18.132  0.00  0.00    +0.000 A 
ATOM     19  C   UNL     1       7.680  13.858  17.993  0.00  0.00    +0.000 C 
ATOM     20  C   UNL     1       9.727  15.104  19.120  0.00  0.00    +0.000 A 
ATOM     21  H   UNL     1       9.783  13.889  16.167  0.00  0.00    +0.000 HD
ENDBRANCH   7  20
ENDBRANCH   1  12
BRANCH   5  22
ATOM     22  N   UNL     1       9.065   9.117  19.290  0.00  0.00    +0.000 N 
ATOM     23  C   UNL     1       8.224   8.868  18.200  0.00  0.00    +0.000 C 
ATOM     24  O   UNL     1       7.824   9.688  17.379  0.00  0.00    +0.000 OA
ATOM     25  H   UNL     1       9.479   8.324  19.765  0.00  0.00    +0.000 HD
BRANCH  23  26
ATOM     26  C   UNL     1       7.794   7.476  17.973  0.00  0.00    +0.000 A 
ATOM     27  C   UNL     1       7.150   7.030  16.822  0.00  0.00    +0.000 A 
ATOM     28  C   UNL     1       6.858   5.671  16.703  0.00  0.00    +0.000 A 
ATOM     29  C   UNL     1       7.214   4.810  17.734  0.00  0.00    +0.000 A 
ATOM     30  N   UNL     1       7.833   5.212  18.864  0.00  0.00    +0.000 NA
ATOM     31  C   UNL     1       8.122   6.535  18.950  0.00  0.00    +0.000 A 
ENDBRANCH  23  26
ENDBRANCH   5  22
TORSDOF 4
ENDMDL
MODEL 2
REMARK VINA RESULT:      -7.3      8.300      9.847
REMARK  Name = 
REMARK  6 active torsions:
REMARK  status: ('A' for Active; 'I' for Inactive)
REMARK    1  A    between atoms: C_1  and  C_2
REMARK    2  A    between atoms: C_5  and  C_6
REMARK    3  A    between atoms: C_7  and  C_8
REMARK    4  A    between atoms: C_13  and  C_15
REMARK    5  A    between atoms: C_19  and  N_20
REMARK    6  A    between atoms: C_21  and  C_23
REMARK                            x       y       z     vdW  Elec       q    Type
REMARK                         _______ _______ _______ _____ _____    ______ ____
ROOT
ATOM      1  C   UNL     1       0.675  10.448  20.326  0.00  0.00    +0.000 A 
ATOM      2  C   UNL     1       1.377  11.570  19.898  0.00  0.00    +0.000 A 
ATOM      3  C   UNL     1       1.994  11.574  18.657  0.00  0.00    +0.000 A 
ATOM      4  C   UNL     1       2.077  10.399  17.936  0.00  0.00    +0.000 A 
ATOM      5  C   UNL     1       1.694   9.189  18.514  0.00  0.00    +0.000 A 
ATOM      6  C   UNL     1       0.912   9.219  19.681  0.00  0.00    +0.000 A 
ENDROOT
BRANCH   1  12
ATOM      7  C   UNL     1      -2.224  11.976  20.605  0.00  0.00    +0.000 C 
ATOM      8  C   UNL     1      -2.763  13.238  21.283  0.00  0.00    +0.000 C 
ATOM      9  C   UNL     1      -2.922  12.772  22.724  0.00  0.00    +0.000 C 
ATOM     10  C   UNL     1      -1.767  11.788  22.921  0.00  0.00    +0.000 C 
ATOM     11  N   UNL     1      -1.208  11.532  21.591  0.00  0.00    +0.000 N 
ATOM     12  C   UNL     1      -0.202  10.559  21.527  0.00  0.00    +0.000 C 
ATOM     13  O   UNL     1       0.082   9.840  22.486  0.00  0.00    +0.000 OA
BRANCH   7  20
ATOM     14  C   UNL     1      -3.181  10.033  18.283  0.00  0.00    +0.000 C 
ATOM     15  C   UNL     1      -2.332  11.245  18.133  0.00  0.00    +0.000 A 
ATOM     16  N   UNL     1      -1.904  11.610  16.922  0.00  0.00    +0.000 NA
ATOM     17  N   UNL     1      -1.170  12.703  17.155  0.00  0.00    +0.000 N 
ATOM     18  C   UNL     1      -1.169  13.107  18.464  0.00  0.00    +0.000 A 
ATOM     19  C   UNL     1      -0.421  14.325  18.867  0.00  0.00    +0.000 C 
ATOM     20  C   UNL     1      -1.879  12.134  19.162  0.00  0.00    +0.000 A 
ATOM     21  H   UNL     1      -0.666  13.110  16.374  0.00  0.00    +0.000 HD
ENDBRANCH   7  20
ENDBRANCH   1  12
BRANCH   5  22
ATOM     22  N   UNL     1       2.155   7.958  17.981  0.00  0.00    +0.000 N 
ATOM     23  C   UNL     1       2.519   6.869  18.781  0.00  0.00    +0.000 C 
ATOM     24  O   UNL     1       2.579   6.848  20.007  0.00  0.00    +0.000 OA
ATOM     25  H   UNL     1       1.951   7.786  17.004  0.00  0.00    +0.000 HD
BRANCH  23  26
ATOM     26  C   UNL     1       2.828   5.597  18.104  0.00  0.00    +0.000 A 
ATOM     27  C   UNL     1       3.981   5.364  17.359  0.00  0.00    +0.000 A 
ATOM     28  C   UNL     1       4.186   4.090  16.825  0.00  0.00    +0.000 A 
ATOM     29  C   UNL     1       3.235   3.102  17.051  0.00  0.00    +0.000 A 
ATOM     30  N   UNL     1       2.106   3.299  17.764  0.00  0.00    +0.000 NA
ATOM     31  C   UNL     1       1.936   4.540  18.286  0.00  0.00    +0.000 A 
ENDBRANCH  23  26
ENDBRANCH   5  22
TORSDOF 4
ENDMDL
MODEL 3
REMARK VINA RESULT:      -7.2      0.685      1.788
REMARK  Name = 
REMARK  6 active torsions:
REMARK  status: ('A' for Active; 'I' for Inactive)
REMARK    1  A    between atoms: C_1  and  C_2
REMARK    2  A    between atoms: C_5  and  C_6
REMARK    3  A    between atoms: C_7  and  C_8
REMARK    4  A    between atoms: C_13  and  C_15
REMARK    5  A    between atoms: C_19  and  N_20
REMARK    6  A    between atoms: C_21  and  C_23
REMARK                            x       y       z     vdW  Elec       q    Type
REMARK                         _______ _______ _______ _____ _____    ______ ____
ROOT
ATOM      1  C   UNL     1       9.920  12.376  20.981  0.00  0.00    +0.000 A 
ATOM      2  C   UNL     1      11.174  12.608  20.426  0.00  0.00    +0.000 A 
ATOM      3  C   UNL     1      11.547  11.967  19.255  0.00  0.00    +0.000 A 
ATOM      4  C   UNL     1      10.754  10.954  18.753  0.00  0.00    +0.000 A 
ATOM      5  C   UNL     1       9.679  10.467  19.496  0.00  0.00    +0.000 A 
ATOM      6  C   UNL     1       9.206  11.232  20.575  0.00  0.00    +0.000 A 
ENDROOT
BRANCH   1  12
ATOM      7  C   UNL     1       9.246  15.592  20.839  0.00  0.00    +0.000 C 
ATOM      8  C   UNL     1       9.869  16.889  21.361  0.00  0.00    +0.000 C 
ATOM      9  C   UNL     1       9.395  16.901  22.808  0.00  0.00    +0.000 C 
ATOM     10  C   UNL     1       9.372  15.421  23.199  0.00  0.00    +0.000 C 
ATOM     11  N   UNL     1       9.543  14.662  21.957  0.00  0.00    +0.000 N 
ATOM     12  C   UNL     1       9.436  13.270  22.072  0.00  0.00    +0.000 C 
ATOM     13  O   UNL     1       9.054  12.721  23.106  0.00  0.00    +0.000 OA
BRANCH   7  20
ATOM     14  C   UNL     1       7.296  14.181  18.769  0.00  0.00    +0.000 C 
ATOM     15  C   UNL     1       8.697  14.613  18.516  0.00  0.00    +0.000 A 
ATOM     16  N   UNL     1       9.244  14.423  17.313  0.00  0.00    +0.000 NA
ATOM     17  N   UNL     1      10.485  14.900  17.444  0.00  0.00    +0.000 N 
ATOM     18  C   UNL     1      10.741  15.465  18.666  0.00  0.00    +0.000 A 
ATOM     19  C   UNL     1      12.071  16.065  18.946  0.00  0.00    +0.000 C 
ATOM     20  C   UNL     1       9.600  15.243  19.433  0.00  0.00    +0.000 A 
ATOM     21  H   UNL     1      11.123  14.779  16.664  0.00  0.00    +0.000 HD
ENDBRANCH   7  20
ENDBRANCH   1  12
BRANCH   5  22
ATOM     22  N   UNL     1       9.133   9.188  19.219  0.00  0.00    +0.000 N 
ATOM     23  C   UNL     1       8.195   8.963  18.204  0.00  0.00    +0.000 C 
ATOM     24  O   UNL     1       7.661   9.813  17.498  0.00  0.00    +0.000 OA
ATOM     25  H   UNL     1       9.642   8.391  19.584  0.00  0.00    +0.000 HD
BRANCH  23  26
ATOM     26  C   UNL     1       7.826   7.566  17.913  0.00  0.00    +0.000 A 
ATOM     27  C   UNL     1       8.017   6.503  18.792  0.00  0.00    +0.000 A 
ATOM     28  C   UNL     1       7.560   5.237  18.420  0.00  0.00    +0.000 A 
ATOM     29  C   UNL     1       6.936   5.079  17.189  0.00  0.00    +0.000 A 
ATOM     30  N   UNL     1       6.742   6.087  16.313  0.00  0.00    +0.000 NA
ATOM     31  C   UNL     1       7.180   7.311  16.703  0.00  0.00    +0.000 A 
ENDBRANCH  23  26
ENDBRANCH   5  22
TORSDOF 4
ENDMDL
MODEL 4
REMARK VINA RESULT:      -7.1      8.261      9.636
REMARK  Name = 
REMARK  6 active torsions:
REMARK  status: ('A' for Active; 'I' for Inactive)
REMARK    1  A    between atoms: C_1  and  C_2
REMARK    2  A    between atoms: C_5  and  C_6
REMARK    3  A    between atoms: C_7  and  C_8
REMARK    4  A    between atoms: C_13  and  C_15
REMARK    5  A    between atoms: C_19  and  N_20
REMARK    6  A    between atoms: C_21  and  C_23
REMARK                            x       y       z     vdW  Elec       q    Type
REMARK                         _______ _______ _______ _____ _____    ______ ____
ROOT
ATOM      1  C   UNL     1       0.615  10.309  20.526  0.00  0.00    +0.000 A 
ATOM      2  C   UNL     1       1.350  11.435  20.169  0.00  0.00    +0.000 A 
ATOM      3  C   UNL     1       1.981  11.491  18.936  0.00  0.00    +0.000 A 
ATOM      4  C   UNL     1       2.044  10.356  18.152  0.00  0.00    +0.000 A 
ATOM      5  C   UNL     1       1.624   9.127  18.658  0.00  0.00    +0.000 A 
ATOM      6  C   UNL     1       0.830   9.112  19.817  0.00  0.00    +0.000 A 
ENDROOT
BRANCH   1  12
ATOM      7  C   UNL     1      -2.095  12.121  20.960  0.00  0.00    +0.000 C 
ATOM      8  C   UNL     1      -2.502  13.346  21.782  0.00  0.00    +0.000 C 
ATOM      9  C   UNL     1      -2.750  12.731  23.152  0.00  0.00    +0.000 C 
ATOM     10  C   UNL     1      -1.721  11.602  23.240  0.00  0.00    +0.000 C 
ATOM     11  N   UNL     1      -1.162  11.445  21.894  0.00  0.00    +0.000 N 
ATOM     12  C   UNL     1      -0.273  10.376  21.723  0.00  0.00    +0.000 C 
ATOM     13  O   UNL     1      -0.098   9.519  22.588  0.00  0.00    +0.000 OA
BRANCH   7  20
ATOM     14  C   UNL     1      -0.388  14.631  20.029  0.00  0.00    +0.000 C 
ATOM     15  C   UNL     1      -0.920  13.548  19.160  0.00  0.00    +0.000 A 
ATOM     16  N   UNL     1      -0.681  13.572  17.846  0.00  0.00    +0.000 NA
ATOM     17  N   UNL     1      -1.306  12.486  17.384  0.00  0.00    +0.000 N 
ATOM     18  C   UNL     1      -1.877  11.712  18.360  0.00  0.00    +0.000 A 
ATOM     19  C   UNL     1      -2.581  10.455  17.998  0.00  0.00    +0.000 C 
ATOM     20  C   UNL     1      -1.698  12.410  19.551  0.00  0.00    +0.000 A 
ATOM     21  H   UNL     1      -1.332  12.346  16.379  0.00  0.00    +0.000 HD
ENDBRANCH   7  20
ENDBRANCH   1  12
BRANCH   5  22
ATOM     22  N   UNL     1       2.061   7.916  18.063  0.00  0.00    +0.000 N 
ATOM     23  C   UNL     1       2.468   6.803  18.808  0.00  0.00    +0.000 C 
ATOM     24  O   UNL     1       2.590   6.742  20.028  0.00  0.00    +0.000 OA
ATOM     25  H   UNL     1       1.808   7.774  17.092  0.00  0.00    +0.000 HD
BRANCH  23  26
ATOM     26  C   UNL     1       2.745   5.555  18.075  0.00  0.00    +0.000 A 
ATOM     27  C   UNL     1       3.960   5.256  17.464  0.00  0.00    +0.000 A 
ATOM     28  C   UNL     1       4.116   4.007  16.860  0.00  0.00    +0.000 A 
ATOM     29  C   UNL     1       3.056   3.109  16.884  0.00  0.00    +0.000 A 
ATOM     30  N   UNL     1       1.866   3.371  17.462  0.00  0.00    +0.000 NA
ATOM     31  C   UNL     1       1.743   4.584  18.056  0.00  0.00    +0.000 A 
ENDBRANCH  23  26
ENDBRANCH   5  22
TORSDOF 4
ENDMDL
MODEL 5
REMARK VINA RESULT:      -6.8      1.203      1.317
REMARK  Name = 
REMARK  6 active torsions:
REMARK  status: ('A' for Active; 'I' for Inactive)
REMARK    1  A    between atoms: C_1  and  C_2
REMARK    2  A    between atoms: C_5  and  C_6
REMARK    3  A    between atoms: C_7  and  C_8
REMARK    4  A    between atoms: C_13  and  C_15
REMARK    5  A    between atoms: C_19  and  N_20
REMARK    6  A    between atoms: C_21  and  C_23
REMARK                            x       y       z     vdW  Elec       q    Type
REMARK                         _______ _______ _______ _____ _____    ______ ____
ROOT
ATOM      1  C   UNL     1       9.465  11.727  20.307  0.00  0.00    +0.000 A 
ATOM      2  C   UNL     1      10.797  11.766  19.909  0.00  0.00    +0.000 A 
ATOM      3  C   UNL     1      11.156  11.349  18.638  0.00  0.00    +0.000 A 
ATOM      4  C   UNL     1      10.224  10.711  17.843  0.00  0.00    +0.000 A 
ATOM      5  C   UNL     1       8.985  10.344  18.367  0.00  0.00    +0.000 A 
ATOM      6  C   UNL     1       8.568  10.925  19.576  0.00  0.00    +0.000 A 
ENDROOT
BRANCH   1  12
ATOM      7  C   UNL     1       9.195  14.961  20.842  0.00  0.00    +0.000 C 
ATOM      8  C   UNL     1       9.958  16.033  21.625  0.00  0.00    +0.000 C 
ATOM      9  C   UNL     1       9.449  15.803  23.041  0.00  0.00    +0.000 C 
ATOM     10  C   UNL     1       9.234  14.289  23.113  0.00  0.00    +0.000 C 
ATOM     11  N   UNL     1       9.345  13.789  21.740  0.00  0.00    +0.000 N 
ATOM     12  C   UNL     1       9.064  12.428  21.561  0.00  0.00    +0.000 C 
ATOM     13  O   UNL     1       8.589  11.729  22.457  0.00  0.00    +0.000 OA
BRANCH   7  20
ATOM     14  C   UNL     1      12.112  15.331  19.644  0.00  0.00    +0.000 C 
ATOM     15  C   UNL     1      10.870  15.034  18.881  0.00  0.00    +0.000 A 
ATOM     16  N   UNL     1      10.924  14.887  17.555  0.00  0.00    +0.000 NA
ATOM     17  N   UNL     1       9.657  14.652  17.204  0.00  0.00    +0.000 N 
ATOM     18  C   UNL     1       8.791  14.563  18.263  0.00  0.00    +0.000 A 
ATOM     19  C   UNL     1       7.353  14.274  18.027  0.00  0.00    +0.000 C 
ATOM     20  C   UNL     1       9.542  14.870  19.394  0.00  0.00    +0.000 A 
ATOM     21  H   UNL     1       9.443  14.593  16.214  0.00  0.00    +0.000 HD
ENDBRANCH   7  20
ENDBRANCH   1  12
BRANCH   5  22
ATOM     22  N   UNL     1       8.204   9.343  17.735  0.00  0.00    +0.000 N 
ATOM     23  C   UNL     1       8.126   8.026  18.205  0.00  0.00    +0.000 C 
ATOM     24  O   UNL     1       8.764   7.541  19.134  0.00  0.00    +0.000 OA
ATOM     25  H   UNL     1       7.483   9.667  17.101  0.00  0.00    +0.000 HD
BRANCH  23  26
ATOM     26  C   UNL     1       7.157   7.125  17.555  0.00  0.00    +0.000 A 
ATOM     27  C   UNL     1       5.989   7.549  16.928  0.00  0.00    +0.000 A 
ATOM     28  C   UNL     1       5.190   6.599  16.290  0.00  0.00    +0.000 A 
ATOM     29  C   UNL     1       5.583   5.266  16.305  0.00  0.00    +0.000 A 
ATOM     30  N   UNL     1       6.705   4.824  16.910  0.00  0.00    +0.000 NA
ATOM     31  C   UNL     1       7.474   5.768  17.509  0.00  0.00    +0.000 A 
ENDBRANCH  23  26
ENDBRANCH   5  22
TORSDOF 4
ENDMDL
MODEL 6
REMARK VINA RESULT:      -6.8      3.721      7.045
REMARK  Name = 
REMARK  6 active torsions:
REMARK  status: ('A' for Active; 'I' for Inactive)
REMARK    1  A    between atoms: C_1  and  C_2
REMARK    2  A    between atoms: C_5  and  C_6
REMARK    3  A    between atoms: C_7  and  C_8
REMARK    4  A    between atoms: C_13  and  C_15
REMARK    5  A    between atoms: C_19  and  N_20
REMARK    6  A    between atoms: C_21  and  C_23
REMARK                            x       y       z     vdW  Elec       q    Type
REMARK                         _______ _______ _______ _____ _____    ______ ____
ROOT
ATOM      1  C   UNL     1       8.473  14.346  21.542  0.00  0.00    +0.000 A 
ATOM      2  C   UNL     1       9.355  15.412  21.689  0.00  0.00    +0.000 A 
ATOM      3  C   UNL     1       8.872  16.682  21.961  0.00  0.00    +0.000 A 
ATOM      4  C   UNL     1       7.513  16.923  21.889  0.00  0.00    +0.000 A 
ATOM      5  C   UNL     1       6.651  15.947  21.390  0.00  0.00    +0.000 A 
ATOM      6  C   UNL     1       7.116  14.625  21.294  0.00  0.00    +0.000 A 
ENDROOT
BRANCH   1  12
ATOM      7  C   UNL     1       9.610  12.628  18.979  0.00  0.00    +0.000 C 
ATOM      8  C   UNL     1       9.152  11.430  18.142  0.00  0.00    +0.000 C 
ATOM      9  C   UNL     1       9.536  10.261  19.038  0.00  0.00    +0.000 C 
ATOM     10  C   UNL     1       9.323  10.798  20.455  0.00  0.00    +0.000 C 
ATOM     11  N   UNL     1       9.117  12.243  20.324  0.00  0.00    +0.000 N 
ATOM     12  C   UNL     1       9.016  12.957  21.525  0.00  0.00    +0.000 C 
ATOM     13  O   UNL     1       9.253  12.444  22.619  0.00  0.00    +0.000 OA
BRANCH   7  20
ATOM     14  C   UNL     1      11.695  14.995  18.615  0.00  0.00    +0.000 C 
ATOM     15  C   UNL     1      10.257  15.012  18.236  0.00  0.00    +0.000 A 
ATOM     16  N   UNL     1       9.731  16.103  17.672  0.00  0.00    +0.000 NA
ATOM     17  N   UNL     1       8.448  15.783  17.485  0.00  0.00    +0.000 N 
ATOM     18  C   UNL     1       8.135  14.495  17.835  0.00  0.00    +0.000 A 
ATOM     19  C   UNL     1       6.751  13.989  17.653  0.00  0.00    +0.000 C 
ATOM     20  C   UNL     1       9.293  13.964  18.396  0.00  0.00    +0.000 A 
ATOM     21  H   UNL     1       7.825  16.507  17.142  0.00  0.00    +0.000 HD
ENDBRANCH   7  20
ENDBRANCH   1  12
BRANCH   5  22
ATOM     22  N   UNL     1       5.363  16.300  20.913  0.00  0.00    +0.000 N 
ATOM     23  C   UNL     1       5.140  16.815  19.630  0.00  0.00    +0.000 C 
ATOM     24  O   UNL     1       5.994  17.111  18.800  0.00  0.00    +0.000 OA
ATOM     25  H   UNL     1       4.574  15.911  21.415  0.00  0.00    +0.000 HD
BRANCH  23  26
ATOM     26  C   UNL     1       3.741  16.991  19.199  0.00  0.00    +0.000 A 
ATOM     27  C   UNL     1       3.306  16.884  17.881  0.00  0.00    +0.000 A 
ATOM     28  C   UNL     1       1.941  17.006  17.615  0.00  0.00    +0.000 A 
ATOM     29  C   UNL     1       1.066  17.233  18.669  0.00  0.00    +0.000 A 
ATOM     30  N   UNL     1       1.457  17.347  19.956  0.00  0.00    +0.000 NA
ATOM     31  C   UNL     1       2.786  17.210  20.192  0.00  0.00    +0.000 A 
ENDBRANCH  23  26
ENDBRANCH   5  22
TORSDOF 4
ENDMDL
MODEL 7
REMARK VINA RESULT:      -6.7     13.518     14.787
REMARK  Name = 
REMARK  6 active torsions:
REMARK  status: ('A' for Active; 'I' for Inactive)
REMARK    1  A    between atoms: C_1  and  C_2
REMARK    2  A    between atoms: C_5  and  C_6
REMARK    3  A    between atoms: C_7  and  C_8
REMARK    4  A    between atoms: C_13  and  C_15
REMARK    5  A    between atoms: C_19  and  N_20
REMARK    6  A    between atoms: C_21  and  C_23
REMARK                            x       y       z     vdW  Elec       q    Type
REMARK                         _______ _______ _______ _____ _____    ______ ____
ROOT
ATOM      1  C   UNL     1      -6.718  14.287  21.320  0.00  0.00    +0.000 A 
ATOM      2  C   UNL     1      -7.651  13.409  21.862  0.00  0.00    +0.000 A 
ATOM      3  C   UNL     1      -7.543  12.047  21.628  0.00  0.00    +0.000 A 
ATOM      4  C   UNL     1      -6.629  11.588  20.699  0.00  0.00    +0.000 A 
ATOM      5  C   UNL     1      -5.937  12.486  19.887  0.00  0.00    +0.000 A 
ATOM      6  C   UNL     1      -5.916  13.842  20.252  0.00  0.00    +0.000 A 
ENDROOT
BRANCH   1  12
ATOM      7  C   UNL     1      -4.555  15.710  23.349  0.00  0.00    +0.000 C 
ATOM      8  C   UNL     1      -4.546  16.230  24.788  0.00  0.00    +0.000 C 
ATOM      9  C   UNL     1      -5.222  17.585  24.633  0.00  0.00    +0.000 C 
ATOM     10  C   UNL     1      -6.247  17.359  23.520  0.00  0.00    +0.000 C 
ATOM     11  N   UNL     1      -5.936  16.054  22.928  0.00  0.00    +0.000 N 
ATOM     12  C   UNL     1      -6.690  15.698  21.802  0.00  0.00    +0.000 C 
ATOM     13  O   UNL     1      -7.444  16.490  21.237  0.00  0.00    +0.000 OA
BRANCH   7  20
ATOM     14  C   UNL     1      -2.020  14.954  21.592  0.00  0.00    +0.000 C 
ATOM     15  C   UNL     1      -2.867  14.017  22.380  0.00  0.00    +0.000 A 
ATOM     16  N   UNL     1      -2.577  12.714  22.397  0.00  0.00    +0.000 NA
ATOM     17  N   UNL     1      -3.529  12.181  23.168  0.00  0.00    +0.000 N 
ATOM     18  C   UNL     1      -4.383  13.101  23.717  0.00  0.00    +0.000 A 
ATOM     19  C   UNL     1      -5.474  12.657  24.622  0.00  0.00    +0.000 C 
ATOM     20  C   UNL     1      -4.019  14.329  23.173  0.00  0.00    +0.000 A 
ATOM     21  H   UNL     1      -3.559  11.170  23.253  0.00  0.00    +0.000 HD
ENDBRANCH   7  20
ENDBRANCH   1  12
BRANCH   5  22
ATOM     22  N   UNL     1      -5.341  12.050  18.676  0.00  0.00    +0.000 N 
ATOM     23  C   UNL     1      -3.987  11.712  18.571  0.00  0.00    +0.000 C 
ATOM     24  O   UNL     1      -3.133  11.824  19.446  0.00  0.00    +0.000 OA
ATOM     25  H   UNL     1      -5.974  11.721  17.956  0.00  0.00    +0.000 HD
BRANCH  23  26
ATOM     26  C   UNL     1      -3.527  11.122  17.301  0.00  0.00    +0.000 A 
ATOM     27  C   UNL     1      -2.479  10.212  17.191  0.00  0.00    +0.000 A 
ATOM     28  C   UNL     1      -2.188   9.676  15.936  0.00  0.00    +0.000 A 
ATOM     29  C   UNL     1      -2.947  10.069  14.841  0.00  0.00    +0.000 A 
ATOM     30  N   UNL     1      -3.965  10.953  14.914  0.00  0.00    +0.000 NA
ATOM     31  C   UNL     1      -4.239  11.449  16.147  0.00  0.00    +0.000 A 
ENDBRANCH  23  26
ENDBRANCH   5  22
TORSDOF 4
ENDMDL
MODEL 8
REMARK VINA RESULT:      -6.6      8.593      9.851
REMARK  Name = 
REMARK  6 active torsions:
REMARK  status: ('A' for Active; 'I' for Inactive)
REMARK    1  A    between atoms: C_1  and  C_2
REMARK    2  A    between atoms: C_5  and  C_6
REMARK    3  A    between atoms: C_7  and  C_8
REMARK    4  A    between atoms: C_13  and  C_15
REMARK    5  A    between atoms: C_19  and  N_20
REMARK    6  A    between atoms: C_21  and  C_23
REMARK                            x       y       z     vdW  Elec       q    Type
REMARK                         _______ _______ _______ _____ _____    ______ ____
ROOT
ATOM      1  C   UNL     1       0.017  10.750  21.365  0.00  0.00    +0.000 A 
ATOM      2  C   UNL     1       0.910  11.786  21.108  0.00  0.00    +0.000 A 
ATOM      3  C   UNL     1       1.780  11.705  20.033  0.00  0.00    +0.000 A 
ATOM      4  C   UNL     1       1.895  10.516  19.341  0.00  0.00    +0.000 A 
ATOM      5  C   UNL     1       1.271   9.362  19.813  0.00  0.00    +0.000 A 
ATOM      6  C   UNL     1       0.260   9.493  20.780  0.00  0.00    +0.000 A 
ENDROOT
BRANCH   1  12
ATOM      7  C   UNL     1      -2.725  12.526  20.987  0.00  0.00    +0.000 C 
ATOM      8  C   UNL     1      -3.283  13.849  21.517  0.00  0.00    +0.000 C 
ATOM      9  C   UNL     1      -3.791  13.442  22.894  0.00  0.00    +0.000 C 
ATOM     10  C   UNL     1      -2.798  12.371  23.350  0.00  0.00    +0.000 C 
ATOM     11  N   UNL     1      -1.990  12.028  22.176  0.00  0.00    +0.000 N 
ATOM     12  C   UNL     1      -1.085  10.972  22.344  0.00  0.00    +0.000 C 
ATOM     13  O   UNL     1      -1.081  10.261  23.350  0.00  0.00    +0.000 OA
BRANCH   7  20
ATOM     14  C   UNL     1      -0.683  14.792  20.108  0.00  0.00    +0.000 C 
ATOM     15  C   UNL     1      -1.139  13.640  19.284  0.00  0.00    +0.000 A 
ATOM     16  N   UNL     1      -0.671  13.483  18.044  0.00  0.00    +0.000 NA
ATOM     17  N   UNL     1      -1.290  12.385  17.602  0.00  0.00    +0.000 N 
ATOM     18  C   UNL     1      -2.086  11.777  18.537  0.00  0.00    +0.000 A 
ATOM     19  C   UNL     1      -2.814  10.527  18.197  0.00  0.00    +0.000 C 
ATOM     20  C   UNL     1      -2.064  12.609  19.653  0.00  0.00    +0.000 A 
ATOM     21  H   UNL     1      -1.150  12.120  16.632  0.00  0.00    +0.000 HD
ENDBRANCH   7  20
ENDBRANCH   1  12
BRANCH   5  22
ATOM     22  N   UNL     1       1.706   8.081  19.387  0.00  0.00    +0.000 N 
ATOM     23  C   UNL     1       2.323   7.858  18.151  0.00  0.00    +0.000 C 
ATOM     24  O   UNL     1       2.488   8.680  17.254  0.00  0.00    +0.000 OA
ATOM     25  H   UNL     1       1.816   7.379  20.109  0.00  0.00    +0.000 HD
BRANCH  23  26
ATOM     26  C   UNL     1       2.872   6.514  17.894  0.00  0.00    +0.000 A 
ATOM     27  C   UNL     1       2.171   5.328  18.092  0.00  0.00    +0.000 A 
ATOM     28  C   UNL     1       2.784   4.123  17.745  0.00  0.00    +0.000 A 
ATOM     29  C   UNL     1       4.070   4.146  17.219  0.00  0.00    +0.000 A 
ATOM     30  N   UNL     1       4.778   5.278  17.022  0.00  0.00    +0.000 NA
ATOM     31  C   UNL     1       4.155   6.438  17.351  0.00  0.00    +0.000 A 
ENDBRANCH  23  26
ENDBRANCH   5  22
TORSDOF 4
ENDMDL
MODEL 9
REMARK VINA RESULT:      -6.6      8.794     10.187
REMARK  Name = 
REMARK  6 active torsions:
REMARK  status: ('A' for Active; 'I' for Inactive)
REMARK    1  A    between atoms: C_1  and  C_2
REMARK    2  A    between atoms: C_5  and  C_6
REMARK    3  A    between atoms: C_7  and  C_8
REMARK    4  A    between atoms: C_13  and  C_15
REMARK    5  A    between atoms: C_19  and  N_20
REMARK    6  A    between atoms: C_21  and  C_23
REMARK                            x       y       z     vdW  Elec       q    Type
REMARK                         _______ _______ _______ _____ _____    ______ ____
ROOT
ATOM      1  C   UNL     1      -0.154  11.019  21.361  0.00  0.00    +0.000 A 
ATOM      2  C   UNL     1       0.735  12.077  21.199  0.00  0.00    +0.000 A 
ATOM      3  C   UNL     1       1.686  12.039  20.193  0.00  0.00    +0.000 A 
ATOM      4  C   UNL     1       1.878  10.870  19.482  0.00  0.00    +0.000 A 
ATOM      5  C   UNL     1       1.241   9.694  19.876  0.00  0.00    +0.000 A 
ATOM      6  C   UNL     1       0.158   9.781  20.765  0.00  0.00    +0.000 A 
ENDROOT
BRANCH   1  12
ATOM      7  C   UNL     1      -3.051  12.418  20.677  0.00  0.00    +0.000 C 
ATOM      8  C   UNL     1      -3.786  13.708  21.050  0.00  0.00    +0.000 C 
ATOM      9  C   UNL     1      -4.328  13.369  22.431  0.00  0.00    +0.000 C 
ATOM     10  C   UNL     1      -3.250  12.466  23.037  0.00  0.00    +0.000 C 
ATOM     11  N   UNL     1      -2.338  12.118  21.944  0.00  0.00    +0.000 N 
ATOM     12  C   UNL     1      -1.332  11.195  22.258  0.00  0.00    +0.000 C 
ATOM     13  O   UNL     1      -1.309  10.583  23.326  0.00  0.00    +0.000 OA
BRANCH   7  20
ATOM     14  C   UNL     1      -3.457  10.353  18.300  0.00  0.00    +0.000 C 
ATOM     15  C   UNL     1      -2.532  11.518  18.316  0.00  0.00    +0.000 A 
ATOM     16  N   UNL     1      -1.775  11.780  17.248  0.00  0.00    +0.000 NA
ATOM     17  N   UNL     1      -1.071  12.858  17.607  0.00  0.00    +0.000 N 
ATOM     18  C   UNL     1      -1.399  13.353  18.842  0.00  0.00    +0.000 A 
ATOM     19  C   UNL     1      -0.720  14.568  19.362  0.00  0.00    +0.000 C 
ATOM     20  C   UNL     1      -2.323  12.459  19.376  0.00  0.00    +0.000 A 
ATOM     21  H   UNL     1      -0.353  13.188  16.970  0.00  0.00    +0.000 HD
ENDBRANCH   7  20
ENDBRANCH   1  12
BRANCH   5  22
ATOM     22  N   UNL     1       1.733   8.432  19.453  0.00  0.00    +0.000 N 
ATOM     23  C   UNL     1       2.234   8.201  18.167  0.00  0.00    +0.000 C 
ATOM     24  O   UNL     1       2.237   8.992  17.228  0.00  0.00    +0.000 OA
ATOM     25  H   UNL     1       1.975   7.774  20.185  0.00  0.00    +0.000 HD
BRANCH  23  26
ATOM     26  C   UNL     1       2.861   6.894  17.903  0.00  0.00    +0.000 A 
ATOM     27  C   UNL     1       4.142   6.728  17.382  0.00  0.00    +0.000 A 
ATOM     28  C   UNL     1       4.645   5.433  17.244  0.00  0.00    +0.000 A 
ATOM     29  C   UNL     1       3.854   4.357  17.625  0.00  0.00    +0.000 A 
ATOM     30  N   UNL     1       2.607   4.485  18.128  0.00  0.00    +0.000 NA
ATOM     31  C   UNL     1       2.146   5.753  18.267  0.00  0.00    +0.000 A 
ENDBRANCH  23  26
ENDBRANCH   5  22
TORSDOF 4
ENDMDL
