MODEL 1
REMARK VINA RESULT:      -8.0      0.000      0.000
REMARK  Name = 
REMARK  5 active torsions:
REMARK  status: ('A' for Active; 'I' for Inactive)
REMARK    1  A    between atoms: C_1  and  C_2
REMARK    2  A    between atoms: C_3  and  N_4
REMARK    3  A    between atoms: C_5  and  C_7
REMARK    4  A    between atoms: N_15  and  C_16
REMARK    5  A    between atoms: N_19  and  C_20
REMARK                            x       y       z     vdW  Elec       q    Type
REMARK                         _______ _______ _______ _____ _____    ______ ____
ROOT
ATOM      1  N   UNL     1       2.813   6.952  18.840  0.00  0.00    +0.000 N 
ATOM      2  C   UNL     1       3.247   5.695  19.183  0.00  0.00    +0.000 C 
ATOM      3  O   UNL     1       2.986   5.132  20.237  0.00  0.00    +0.000 OA
ATOM      4  H   UNL     1       3.249   7.418  18.063  0.00  0.00    +0.000 HD
ENDROOT
BRANCH   2   5
ATOM      5  C   UNL     1       4.129   5.139  18.166  0.00  0.00    +0.000 A 
ATOM      6  C   UNL     1       3.788   4.548  16.958  0.00  0.00    +0.000 A 
ATOM      7  C   UNL     1       4.970   4.177  16.294  0.00  0.00    +0.000 A 
ATOM      8  C   UNL     1       5.191   3.586  15.050  0.00  0.00    +0.000 A 
ATOM      9  C   UNL     1       6.206   4.178  14.307  0.00  0.00    +0.000 A 
ATOM     10  C   UNL     1       7.256   4.810  14.968  0.00  0.00    +0.000 A 
ATOM     11  C   UNL     1       7.259   4.965  16.359  0.00  0.00    +0.000 A 
ATOM     12  C   UNL     1       6.017   4.779  16.978  0.00  0.00    +0.000 A 
ATOM     13  N   UNL     1       5.513   5.110  18.218  0.00  0.00    +0.000 N 
ATOM     14  C   UNL     1       6.302   5.461  19.381  0.00  0.00    +0.000 C 
ENDBRANCH   2   5
BRANCH   1  17
ATOM     15  C   UNL     1       1.929   9.708  17.910  0.00  0.00    +0.000 C 
ATOM     16  C   UNL     1       1.504   8.938  19.109  0.00  0.00    +0.000 A 
ATOM     17  C   UNL     1       1.990   7.739  19.599  0.00  0.00    +0.000 A 
ATOM     18  C   UNL     1       1.558   7.655  20.920  0.00  0.00    +0.000 A 
ATOM     19  N   UNL     1       0.787   8.688  21.250  0.00  0.00    +0.000 NA
ATOM     20  N   UNL     1       0.680   9.422  20.128  0.00  0.00    +0.000 N 
BRANCH  20  21
ATOM     21  C   UNL     1      -0.107  10.593  20.134  0.00  0.00    +0.000 A 
ATOM     22  C   UNL     1       0.203  11.599  21.047  0.00  0.00    +0.000 A 
ATOM     23  C   UNL     1      -0.477  12.817  21.026  0.00  0.00    +0.000 A 
ATOM     24  C   UNL     1      -1.528  13.007  20.129  0.00  0.00    +0.000 A 
ATOM     25  C   UNL     1      -1.899  11.980  19.265  0.00  0.00    +0.000 A 
ATOM     26  C   UNL     1      -1.197  10.774  19.283  0.00  0.00    +0.000 A 
ATOM     27  F   UNL     1      -1.649   9.790  18.496  0.00  0.00    +0.000 F 
ENDBRANCH  20  21
ENDBRANCH   1  17
TORSDOF 3
ENDMDL
MODEL 2
REMARK VINA RESULT:      -7.9      2.359      9.009
REMARK  Name = 
REMARK  5 active torsions:
REMARK  status: ('A' for Active; 'I' for Inactive)
REMARK    1  A    between atoms: C_1  and  C_2
REMARK    2  A    between atoms: C_3  and  N_4
REMARK    3  A    between atoms: C_5  and  C_7
REMARK    4  A    between atoms: N_15  and  C_16
REMARK    5  A    between atoms: N_19  and  C_20
REMARK                            x       y       z     vdW  Elec       q    Type
REMARK                         _______ _______ _______ _____ _____    ______ ____
ROOT
ATOM      1  N   UNL     1       0.823   8.423  20.949  0.00  0.00    +0.000 N 
ATOM      2  C   UNL     1       1.185   9.301  21.941  0.00  0.00    +0.000 C 
ATOM      3  O   UNL     1       2.165   9.172  22.660  0.00  0.00    +0.000 OA
ATOM      4  H   UNL     1      -0.103   8.489  20.560  0.00  0.00    +0.000 HD
ENDROOT
BRANCH   2   5
ATOM      5  C   UNL     1       0.209  10.373  22.088  0.00  0.00    +0.000 A 
ATOM      6  C   UNL     1      -0.924  10.405  22.889  0.00  0.00    +0.000 A 
ATOM      7  C   UNL     1      -1.553  11.650  22.721  0.00  0.00    +0.000 A 
ATOM      8  C   UNL     1      -2.690  12.204  23.309  0.00  0.00    +0.000 A 
ATOM      9  C   UNL     1      -2.536  13.521  23.727  0.00  0.00    +0.000 A 
ATOM     10  C   UNL     1      -1.629  14.345  23.064  0.00  0.00    +0.000 A 
ATOM     11  C   UNL     1      -0.786  13.851  22.062  0.00  0.00    +0.000 A 
ATOM     12  C   UNL     1      -0.661  12.458  22.028  0.00  0.00    +0.000 A 
ATOM     13  N   UNL     1       0.244  11.598  21.441  0.00  0.00    +0.000 N 
ATOM     14  C   UNL     1       1.159  11.939  20.372  0.00  0.00    +0.000 C 
ENDBRANCH   2   5
BRANCH   1  17
ATOM     15  C   UNL     1       2.303   8.249  18.300  0.00  0.00    +0.000 C 
ATOM     16  C   UNL     1       2.287   7.288  19.434  0.00  0.00    +0.000 A 
ATOM     17  C   UNL     1       1.524   7.305  20.587  0.00  0.00    +0.000 A 
ATOM     18  C   UNL     1       1.581   6.016  21.111  0.00  0.00    +0.000 A 
ATOM     19  N   UNL     1       2.379   5.230  20.394  0.00  0.00    +0.000 NA
ATOM     20  N   UNL     1       2.878   6.022  19.427  0.00  0.00    +0.000 N 
BRANCH  20  21
ATOM     21  C   UNL     1       3.796   5.490  18.497  0.00  0.00    +0.000 A 
ATOM     22  C   UNL     1       5.132   5.880  18.581  0.00  0.00    +0.000 A 
ATOM     23  C   UNL     1       6.097   5.307  17.754  0.00  0.00    +0.000 A 
ATOM     24  C   UNL     1       5.714   4.383  16.781  0.00  0.00    +0.000 A 
ATOM     25  C   UNL     1       4.371   4.043  16.634  0.00  0.00    +0.000 A 
ATOM     26  C   UNL     1       3.419   4.610  17.483  0.00  0.00    +0.000 A 
ATOM     27  F   UNL     1       2.134   4.318  17.244  0.00  0.00    +0.000 F 
ENDBRANCH  20  21
ENDBRANCH   1  17
TORSDOF 3
ENDMDL
MODEL 3
REMARK VINA RESULT:      -7.8      0.941      1.320
REMARK  Name = 
REMARK  5 active torsions:
REMARK  status: ('A' for Active; 'I' for Inactive)
REMARK    1  A    between atoms: C_1  and  C_2
REMARK    2  A    between atoms: C_3  and  N_4
REMARK    3  A    between atoms: C_5  and  C_7
REMARK    4  A    between atoms: N_15  and  C_16
REMARK    5  A    between atoms: N_19  and  C_20
REMARK                            x       y       z     vdW  Elec       q    Type
REMARK                         _______ _______ _______ _____ _____    ______ ____
ROOT
ATOM      1  N   UNL     1       2.812   6.991  18.794  0.00  0.00    +0.000 N 
ATOM      2  C   UNL     1       3.244   5.743  19.173  0.00  0.00    +0.000 C 
ATOM      3  O   UNL     1       2.980   5.210  20.241  0.00  0.00    +0.000 OA
ATOM      4  H   UNL     1       3.250   7.434  18.004  0.00  0.00    +0.000 HD
ENDROOT
BRANCH   2   5
ATOM      5  C   UNL     1       4.124   5.156  18.172  0.00  0.00    +0.000 A 
ATOM      6  C   UNL     1       3.783   4.545  16.974  0.00  0.00    +0.000 A 
ATOM      7  C   UNL     1       4.964   4.147  16.324  0.00  0.00    +0.000 A 
ATOM      8  C   UNL     1       5.185   3.529  15.093  0.00  0.00    +0.000 A 
ATOM      9  C   UNL     1       6.211   4.094  14.344  0.00  0.00    +0.000 A 
ATOM     10  C   UNL     1       7.265   4.727  14.999  0.00  0.00    +0.000 A 
ATOM     11  C   UNL     1       7.262   4.911  16.387  0.00  0.00    +0.000 A 
ATOM     12  C   UNL     1       6.015   4.751  17.001  0.00  0.00    +0.000 A 
ATOM     13  N   UNL     1       5.508   5.112  18.232  0.00  0.00    +0.000 N 
ATOM     14  C   UNL     1       6.294   5.478  19.392  0.00  0.00    +0.000 C 
ENDBRANCH   2   5
BRANCH   1  17
ATOM     15  C   UNL     1       1.979   9.743  17.810  0.00  0.00    +0.000 C 
ATOM     16  C   UNL     1       1.528   8.998  19.016  0.00  0.00    +0.000 A 
ATOM     17  C   UNL     1       1.992   7.801  19.530  0.00  0.00    +0.000 A 
ATOM     18  C   UNL     1       1.542   7.744  20.847  0.00  0.00    +0.000 A 
ATOM     19  N   UNL     1       0.782   8.792  21.152  0.00  0.00    +0.000 NA
ATOM     20  N   UNL     1       0.699   9.510  20.017  0.00  0.00    +0.000 N 
BRANCH  20  21
ATOM     21  C   UNL     1      -0.073  10.691  19.995  0.00  0.00    +0.000 A 
ATOM     22  C   UNL     1      -1.296  10.676  19.329  0.00  0.00    +0.000 A 
ATOM     23  C   UNL     1      -2.143  11.783  19.365  0.00  0.00    +0.000 A 
ATOM     24  C   UNL     1      -1.734  12.947  20.017  0.00  0.00    +0.000 A 
ATOM     25  C   UNL     1      -0.480  13.001  20.620  0.00  0.00    +0.000 A 
ATOM     26  C   UNL     1       0.349  11.879  20.594  0.00  0.00    +0.000 A 
ATOM     27  F   UNL     1       1.577  12.010  21.111  0.00  0.00    +0.000 F 
ENDBRANCH  20  21
ENDBRANCH   1  17
TORSDOF 3
ENDMDL
MODEL 4
REMARK VINA RESULT:      -7.7      2.919      9.032
REMARK  Name = 
REMARK  5 active torsions:
REMARK  status: ('A' for Active; 'I' for Inactive)
REMARK    1  A    between atoms: C_1  and  C_2
REMARK    2  A    between atoms: C_3  and  N_4
REMARK    3  A    between atoms: C_5  and  C_7
REMARK    4  A    between atoms: N_15  and  C_16
REMARK    5  A    between atoms: N_19  and  C_20
REMARK                            x       y       z     vdW  Elec       q    Type
REMARK                         _______ _______ _______ _____ _____    ______ ____
ROOT
ATOM      1  N   UNL     1       1.618   8.857  19.870  0.00  0.00    +0.000 N 
ATOM      2  C   UNL     1       0.695   9.762  19.405  0.00  0.00    +0.000 C 
ATOM      3  O   UNL     1       0.317   9.835  18.245  0.00  0.00    +0.000 OA
ATOM      4  H   UNL     1       2.027   9.009  20.777  0.00  0.00    +0.000 HD
ENDROOT
BRANCH   2   5
ATOM      5  C   UNL     1       0.275  10.683  20.452  0.00  0.00    +0.000 A 
ATOM      6  C   UNL     1       0.394  12.065  20.485  0.00  0.00    +0.000 A 
ATOM      7  C   UNL     1      -0.166  12.533  21.685  0.00  0.00    +0.000 A 
ATOM      8  C   UNL     1      -0.334  13.822  22.194  0.00  0.00    +0.000 A 
ATOM      9  C   UNL     1      -1.589  14.063  22.740  0.00  0.00    +0.000 A 
ATOM     10  C   UNL     1      -2.310  13.005  23.287  0.00  0.00    +0.000 A 
ATOM     11  C   UNL     1      -1.855  11.684  23.200  0.00  0.00    +0.000 A 
ATOM     12  C   UNL     1      -0.854  11.466  22.247  0.00  0.00    +0.000 A 
ATOM     13  N   UNL     1      -0.350  10.335  21.638  0.00  0.00    +0.000 N 
ATOM     14  C   UNL     1      -0.521   8.977  22.112  0.00  0.00    +0.000 C 
ENDBRANCH   2   5
BRANCH   1  17
ATOM     15  C   UNL     1       1.752   5.973  20.821  0.00  0.00    +0.000 C 
ATOM     16  C   UNL     1       2.162   6.554  19.514  0.00  0.00    +0.000 A 
ATOM     17  C   UNL     1       2.214   7.879  19.122  0.00  0.00    +0.000 A 
ATOM     18  C   UNL     1       3.026   7.919  17.991  0.00  0.00    +0.000 A 
ATOM     19  N   UNL     1       3.419   6.701  17.627  0.00  0.00    +0.000 NA
ATOM     20  N   UNL     1       2.825   5.864  18.497  0.00  0.00    +0.000 N 
BRANCH  20  21
ATOM     21  C   UNL     1       3.020   4.472  18.367  0.00  0.00    +0.000 A 
ATOM     22  C   UNL     1       4.204   3.917  18.850  0.00  0.00    +0.000 A 
ATOM     23  C   UNL     1       4.402   2.537  18.839  0.00  0.00    +0.000 A 
ATOM     24  C   UNL     1       3.435   1.703  18.276  0.00  0.00    +0.000 A 
ATOM     25  C   UNL     1       2.283   2.252  17.719  0.00  0.00    +0.000 A 
ATOM     26  C   UNL     1       2.088   3.633  17.754  0.00  0.00    +0.000 A 
ATOM     27  F   UNL     1       1.008   4.117  17.129  0.00  0.00    +0.000 F 
ENDBRANCH  20  21
ENDBRANCH   1  17
TORSDOF 3
ENDMDL
MODEL 5
REMARK VINA RESULT:      -7.6      2.420      9.030
REMARK  Name = 
REMARK  5 active torsions:
REMARK  status: ('A' for Active; 'I' for Inactive)
REMARK    1  A    between atoms: C_1  and  C_2
REMARK    2  A    between atoms: C_3  and  N_4
REMARK    3  A    between atoms: C_5  and  C_7
REMARK    4  A    between atoms: N_15  and  C_16
REMARK    5  A    between atoms: N_19  and  C_20
REMARK                            x       y       z     vdW  Elec       q    Type
REMARK                         _______ _______ _______ _____ _____    ______ ____
ROOT
ATOM      1  N   UNL     1       0.909   8.641  20.756  0.00  0.00    +0.000 N 
ATOM      2  C   UNL     1       1.200   9.409  21.857  0.00  0.00    +0.000 C 
ATOM      3  O   UNL     1       2.133   9.205  22.621  0.00  0.00    +0.000 OA
ATOM      4  H   UNL     1       0.011   8.748  20.317  0.00  0.00    +0.000 HD
ENDROOT
BRANCH   2   5
ATOM      5  C   UNL     1       0.211  10.460  22.051  0.00  0.00    +0.000 A 
ATOM      6  C   UNL     1      -0.951  10.422  22.811  0.00  0.00    +0.000 A 
ATOM      7  C   UNL     1      -1.584  11.673  22.718  0.00  0.00    +0.000 A 
ATOM      8  C   UNL     1      -2.747  12.172  23.306  0.00  0.00    +0.000 A 
ATOM      9  C   UNL     1      -2.620  13.453  23.831  0.00  0.00    +0.000 A 
ATOM     10  C   UNL     1      -1.697  14.332  23.269  0.00  0.00    +0.000 A 
ATOM     11  C   UNL     1      -0.814  13.924  22.263  0.00  0.00    +0.000 A 
ATOM     12  C   UNL     1      -0.676  12.538  22.124  0.00  0.00    +0.000 A 
ATOM     13  N   UNL     1       0.258  11.732  21.505  0.00  0.00    +0.000 N 
ATOM     14  C   UNL     1       1.207  12.163  20.500  0.00  0.00    +0.000 C 
ENDBRANCH   2   5
BRANCH   1  17
ATOM     15  C   UNL     1       2.007   8.484  17.926  0.00  0.00    +0.000 C 
ATOM     16  C   UNL     1       2.230   7.566  19.075  0.00  0.00    +0.000 A 
ATOM     17  C   UNL     1       1.639   7.567  20.325  0.00  0.00    +0.000 A 
ATOM     18  C   UNL     1       1.874   6.306  20.868  0.00  0.00    +0.000 A 
ATOM     19  N   UNL     1       2.623   5.558  20.062  0.00  0.00    +0.000 NA
ATOM     20  N   UNL     1       2.914   6.349  19.014  0.00  0.00    +0.000 N 
BRANCH  20  21
ATOM     21  C   UNL     1       3.731   5.855  17.975  0.00  0.00    +0.000 A 
ATOM     22  C   UNL     1       3.540   4.543  17.545  0.00  0.00    +0.000 A 
ATOM     23  C   UNL     1       4.249   4.040  16.454  0.00  0.00    +0.000 A 
ATOM     24  C   UNL     1       5.210   4.833  15.827  0.00  0.00    +0.000 A 
ATOM     25  C   UNL     1       5.465   6.119  16.297  0.00  0.00    +0.000 A 
ATOM     26  C   UNL     1       4.735   6.617  17.377  0.00  0.00    +0.000 A 
ATOM     27  F   UNL     1       5.078   7.823  17.845  0.00  0.00    +0.000 F 
ENDBRANCH  20  21
ENDBRANCH   1  17
TORSDOF 3
ENDMDL
MODEL 6
REMARK VINA RESULT:      -7.6      3.472      8.564
REMARK  Name = 
REMARK  5 active torsions:
REMARK  status: ('A' for Active; 'I' for Inactive)
REMARK    1  A    between atoms: C_1  and  C_2
REMARK    2  A    between atoms: C_3  and  N_4
REMARK    3  A    between atoms: C_5  and  C_7
REMARK    4  A    between atoms: N_15  and  C_16
REMARK    5  A    between atoms: N_19  and  C_20
REMARK                            x       y       z     vdW  Elec       q    Type
REMARK                         _______ _______ _______ _____ _____    ______ ____
ROOT
ATOM      1  N   UNL     1       1.990   9.765  18.885  0.00  0.00    +0.000 N 
ATOM      2  C   UNL     1       0.841  10.402  18.483  0.00  0.00    +0.000 C 
ATOM      3  O   UNL     1      -0.080   9.863  17.887  0.00  0.00    +0.000 OA
ATOM      4  H   UNL     1       2.777  10.324  19.169  0.00  0.00    +0.000 HD
ENDROOT
BRANCH   2   5
ATOM      5  C   UNL     1       0.886  11.826  18.786  0.00  0.00    +0.000 A 
ATOM      6  C   UNL     1       1.820  12.766  18.376  0.00  0.00    +0.000 A 
ATOM      7  C   UNL     1       1.449  14.019  18.894  0.00  0.00    +0.000 A 
ATOM      8  C   UNL     1       2.016  15.286  18.757  0.00  0.00    +0.000 A 
ATOM      9  C   UNL     1       1.099  16.299  18.496  0.00  0.00    +0.000 A 
ATOM     10  C   UNL     1      -0.208  16.172  18.961  0.00  0.00    +0.000 A 
ATOM     11  C   UNL     1      -0.654  15.001  19.585  0.00  0.00    +0.000 A 
ATOM     12  C   UNL     1       0.160  13.880  19.389  0.00  0.00    +0.000 A 
ATOM     13  N   UNL     1      -0.034  12.523  19.552  0.00  0.00    +0.000 N 
ATOM     14  C   UNL     1      -1.090  11.912  20.332  0.00  0.00    +0.000 C 
ENDBRANCH   2   5
BRANCH   1  17
ATOM     15  C   UNL     1       1.293   7.721  21.024  0.00  0.00    +0.000 C 
ATOM     16  C   UNL     1       1.825   7.504  19.652  0.00  0.00    +0.000 A 
ATOM     17  C   UNL     1       2.255   8.433  18.722  0.00  0.00    +0.000 A 
ATOM     18  C   UNL     1       3.017   7.730  17.793  0.00  0.00    +0.000 A 
ATOM     19  N   UNL     1       3.026   6.425  18.054  0.00  0.00    +0.000 NA
ATOM     20  N   UNL     1       2.233   6.275  19.130  0.00  0.00    +0.000 N 
BRANCH  20  21
ATOM     21  C   UNL     1       2.007   4.984  19.653  0.00  0.00    +0.000 A 
ATOM     22  C   UNL     1       2.470   4.695  20.936  0.00  0.00    +0.000 A 
ATOM     23  C   UNL     1       2.184   3.470  21.539  0.00  0.00    +0.000 A 
ATOM     24  C   UNL     1       1.487   2.494  20.827  0.00  0.00    +0.000 A 
ATOM     25  C   UNL     1       1.087   2.742  19.516  0.00  0.00    +0.000 A 
ATOM     26  C   UNL     1       1.362   3.979  18.932  0.00  0.00    +0.000 A 
ATOM     27  F   UNL     1       1.035   4.135  17.643  0.00  0.00    +0.000 F 
ENDBRANCH  20  21
ENDBRANCH   1  17
TORSDOF 3
ENDMDL
MODEL 7
REMARK VINA RESULT:      -7.6      2.499      9.005
REMARK  Name = 
REMARK  5 active torsions:
REMARK  status: ('A' for Active; 'I' for Inactive)
REMARK    1  A    between atoms: C_1  and  C_2
REMARK    2  A    between atoms: C_3  and  N_4
REMARK    3  A    between atoms: C_5  and  C_7
REMARK    4  A    between atoms: N_15  and  C_16
REMARK    5  A    between atoms: N_19  and  C_20
REMARK                            x       y       z     vdW  Elec       q    Type
REMARK                         _______ _______ _______ _____ _____    ______ ____
ROOT
ATOM      1  N   UNL     1       1.037   8.140  20.746  0.00  0.00    +0.000 N 
ATOM      2  C   UNL     1       1.332   8.990  21.784  0.00  0.00    +0.000 C 
ATOM      3  O   UNL     1       2.261   8.839  22.563  0.00  0.00    +0.000 OA
ATOM      4  H   UNL     1       0.140   8.219  20.297  0.00  0.00    +0.000 HD
ENDROOT
BRANCH   2   5
ATOM      5  C   UNL     1       0.350  10.060  21.893  0.00  0.00    +0.000 A 
ATOM      6  C   UNL     1      -0.679  10.197  22.814  0.00  0.00    +0.000 A 
ATOM      7  C   UNL     1      -1.360  11.396  22.547  0.00  0.00    +0.000 A 
ATOM      8  C   UNL     1      -2.435  12.017  23.185  0.00  0.00    +0.000 A 
ATOM      9  C   UNL     1      -2.271  13.383  23.386  0.00  0.00    +0.000 A 
ATOM     10  C   UNL     1      -1.475  14.111  22.505  0.00  0.00    +0.000 A 
ATOM     11  C   UNL     1      -0.743  13.486  21.488  0.00  0.00    +0.000 A 
ATOM     12  C   UNL     1      -0.583  12.104  21.641  0.00  0.00    +0.000 A 
ATOM     13  N   UNL     1       0.271  11.178  21.077  0.00  0.00    +0.000 N 
ATOM     14  C   UNL     1       1.040  11.369  19.866  0.00  0.00    +0.000 C 
ENDBRANCH   2   5
BRANCH   1  17
ATOM     15  C   UNL     1       2.624   8.002  18.157  0.00  0.00    +0.000 C 
ATOM     16  C   UNL     1       2.569   7.029  19.281  0.00  0.00    +0.000 A 
ATOM     17  C   UNL     1       1.759   7.030  20.402  0.00  0.00    +0.000 A 
ATOM     18  C   UNL     1       1.804   5.737  20.916  0.00  0.00    +0.000 A 
ATOM     19  N   UNL     1       2.636   4.963  20.224  0.00  0.00    +0.000 NA
ATOM     20  N   UNL     1       3.169   5.768  19.286  0.00  0.00    +0.000 N 
BRANCH  20  21
ATOM     21  C   UNL     1       4.127   5.251  18.388  0.00  0.00    +0.000 A 
ATOM     22  C   UNL     1       3.683   4.655  17.209  0.00  0.00    +0.000 A 
ATOM     23  C   UNL     1       4.590   4.222  16.242  0.00  0.00    +0.000 A 
ATOM     24  C   UNL     1       5.960   4.321  16.485  0.00  0.00    +0.000 A 
ATOM     25  C   UNL     1       6.417   4.843  17.692  0.00  0.00    +0.000 A 
ATOM     26  C   UNL     1       5.498   5.291  18.643  0.00  0.00    +0.000 A 
ATOM     27  F   UNL     1       5.985   5.702  19.820  0.00  0.00    +0.000 F 
ENDBRANCH  20  21
ENDBRANCH   1  17
TORSDOF 3
ENDMDL
MODEL 8
REMARK VINA RESULT:      -7.5      2.136      8.843
REMARK  Name = 
REMARK  5 active torsions:
REMARK  status: ('A' for Active; 'I' for Inactive)
REMARK    1  A    between atoms: C_1  and  C_2
REMARK    2  A    between atoms: C_3  and  N_4
REMARK    3  A    between atoms: C_5  and  C_7
REMARK    4  A    between atoms: N_15  and  C_16
REMARK    5  A    between atoms: N_19  and  C_20
REMARK                            x       y       z     vdW  Elec       q    Type
REMARK                         _______ _______ _______ _____ _____    ______ ____
ROOT
ATOM      1  N   UNL     1       1.152   8.765  20.636  0.00  0.00    +0.000 N 
ATOM      2  C   UNL     1      -0.047   8.878  21.296  0.00  0.00    +0.000 C 
ATOM      3  O   UNL     1      -0.744   7.933  21.638  0.00  0.00    +0.000 OA
ATOM      4  H   UNL     1       1.545   9.585  20.205  0.00  0.00    +0.000 HD
ENDROOT
BRANCH   2   5
ATOM      5  C   UNL     1      -0.431  10.272  21.471  0.00  0.00    +0.000 A 
ATOM      6  C   UNL     1      -0.532  10.998  22.650  0.00  0.00    +0.000 A 
ATOM      7  C   UNL     1      -0.917  12.311  22.333  0.00  0.00    +0.000 A 
ATOM      8  C   UNL     1      -1.124  13.438  23.130  0.00  0.00    +0.000 A 
ATOM      9  C   UNL     1      -0.557  14.605  22.632  0.00  0.00    +0.000 A 
ATOM     10  C   UNL     1      -0.397  14.751  21.256  0.00  0.00    +0.000 A 
ATOM     11  C   UNL     1      -0.686  13.708  20.368  0.00  0.00    +0.000 A 
ATOM     12  C   UNL     1      -0.791  12.443  20.957  0.00  0.00    +0.000 A 
ATOM     13  N   UNL     1      -0.765  11.157  20.459  0.00  0.00    +0.000 N 
ATOM     14  C   UNL     1      -0.965  10.786  19.074  0.00  0.00    +0.000 C 
ENDBRANCH   2   5
BRANCH   1  17
ATOM     15  C   UNL     1       2.436   8.338  17.914  0.00  0.00    +0.000 C 
ATOM     16  C   UNL     1       2.447   7.453  19.109  0.00  0.00    +0.000 A 
ATOM     17  C   UNL     1       1.766   7.588  20.306  0.00  0.00    +0.000 A 
ATOM     18  C   UNL     1       1.791   6.334  20.911  0.00  0.00    +0.000 A 
ATOM     19  N   UNL     1       2.495   5.459  20.198  0.00  0.00    +0.000 NA
ATOM     20  N   UNL     1       2.968   6.158  19.150  0.00  0.00    +0.000 N 
BRANCH  20  21
ATOM     21  C   UNL     1       3.790   5.516  18.200  0.00  0.00    +0.000 A 
ATOM     22  C   UNL     1       5.101   5.962  18.043  0.00  0.00    +0.000 A 
ATOM     23  C   UNL     1       5.985   5.298  17.193  0.00  0.00    +0.000 A 
ATOM     24  C   UNL     1       5.537   4.214  16.437  0.00  0.00    +0.000 A 
ATOM     25  C   UNL     1       4.208   3.806  16.527  0.00  0.00    +0.000 A 
ATOM     26  C   UNL     1       3.339   4.468  17.396  0.00  0.00    +0.000 A 
ATOM     27  F   UNL     1       2.054   4.095  17.380  0.00  0.00    +0.000 F 
ENDBRANCH  20  21
ENDBRANCH   1  17
TORSDOF 3
ENDMDL
MODEL 9
REMARK VINA RESULT:      -7.5      2.653      8.745
REMARK  Name = 
REMARK  5 active torsions:
REMARK  status: ('A' for Active; 'I' for Inactive)
REMARK    1  A    between atoms: C_1  and  C_2
REMARK    2  A    between atoms: C_3  and  N_4
REMARK    3  A    between atoms: C_5  and  C_7
REMARK    4  A    between atoms: N_15  and  C_16
REMARK    5  A    between atoms: N_19  and  C_20
REMARK                            x       y       z     vdW  Elec       q    Type
REMARK                         _______ _______ _______ _____ _____    ______ ____
ROOT
ATOM      1  N   UNL     1       1.364   9.776  20.092  0.00  0.00    +0.000 N 
ATOM      2  C   UNL     1       0.314  10.392  19.456  0.00  0.00    +0.000 C 
ATOM      3  O   UNL     1      -0.553   9.809  18.822  0.00  0.00    +0.000 OA
ATOM      4  H   UNL     1       2.140  10.339  20.399  0.00  0.00    +0.000 HD
ENDROOT
BRANCH   2   5
ATOM      5  C   UNL     1       0.403  11.842  19.562  0.00  0.00    +0.000 A 
ATOM      6  C   UNL     1       1.313  12.698  18.958  0.00  0.00    +0.000 A 
ATOM      7  C   UNL     1       1.002  14.016  19.332  0.00  0.00    +0.000 A 
ATOM      8  C   UNL     1       1.573  15.241  18.984  0.00  0.00    +0.000 A 
ATOM      9  C   UNL     1       0.652  16.232  18.665  0.00  0.00    +0.000 A 
ATOM     10  C   UNL     1      -0.615  16.199  19.244  0.00  0.00    +0.000 A 
ATOM     11  C   UNL     1      -1.024  15.131  20.052  0.00  0.00    +0.000 A 
ATOM     12  C   UNL     1      -0.244  13.974  19.942  0.00  0.00    +0.000 A 
ATOM     13  N   UNL     1      -0.442  12.656  20.299  0.00  0.00    +0.000 N 
ATOM     14  C   UNL     1      -1.438  12.178  21.235  0.00  0.00    +0.000 C 
ENDBRANCH   2   5
BRANCH   1  17
ATOM     15  C   UNL     1       2.574   8.238  17.767  0.00  0.00    +0.000 C 
ATOM     16  C   UNL     1       2.230   7.762  19.133  0.00  0.00    +0.000 A 
ATOM     17  C   UNL     1       1.571   8.425  20.152  0.00  0.00    +0.000 A 
ATOM     18  C   UNL     1       1.147   7.444  21.045  0.00  0.00    +0.000 A 
ATOM     19  N   UNL     1       1.559   6.234  20.676  0.00  0.00    +0.000 NA
ATOM     20  N   UNL     1       2.290   6.434  19.564  0.00  0.00    +0.000 N 
BRANCH  20  21
ATOM     21  C   UNL     1       2.902   5.334  18.926  0.00  0.00    +0.000 A 
ATOM     22  C   UNL     1       4.196   4.982  19.303  0.00  0.00    +0.000 A 
ATOM     23  C   UNL     1       4.807   3.842  18.779  0.00  0.00    +0.000 A 
ATOM     24  C   UNL     1       4.145   3.083  17.814  0.00  0.00    +0.000 A 
ATOM     25  C   UNL     1       2.882   3.469  17.372  0.00  0.00    +0.000 A 
ATOM     26  C   UNL     1       2.274   4.600  17.920  0.00  0.00    +0.000 A 
ATOM     27  F   UNL     1       1.100   4.978  17.399  0.00  0.00    +0.000 F 
ENDBRANCH  20  21
ENDBRANCH   1  17
TORSDOF 3
ENDMDL
