MODEL 1
REMARK VINA RESULT:      -8.7      0.000      0.000
REMARK  Name = 
REMARK  5 active torsions:
REMARK  status: ('A' for Active; 'I' for Inactive)
REMARK    1  A    between atoms: C_1  and  C_2
REMARK    2  A    between atoms: C_6  and  C_7
REMARK    3  A    between atoms: N_10  and  S_11
REMARK    4  A    between atoms: S_11  and  C_14
REMARK    5  A    between atoms: C_17  and  C_18
REMARK                            x       y       z     vdW  Elec       q    Type
REMARK                         _______ _______ _______ _____ _____    ______ ____
ROOT
ATOM      1  C   UNL     1       2.261   7.757  19.040  0.00  0.00    +0.000 C 
ATOM      2  C   UNL     1       2.572   6.713  19.829  0.00  0.00    +0.000 C 
ATOM      3  C   UNL     1       3.612   5.673  19.547  0.00  0.00    +0.000 C 
ATOM      4  N   UNL     1       4.277   5.825  18.225  0.00  0.00    +0.000 NA
ATOM      5  C   UNL     1       4.336   7.234  17.727  0.00  0.00    +0.000 C 
ATOM      6  C   UNL     1       2.962   7.908  17.719  0.00  0.00    +0.000 C 
ENDROOT
BRANCH   1  12
ATOM      7  C   UNL     1      -0.553   9.903  22.605  0.00  0.00    +0.000 C 
ATOM      8  C   UNL     1      -0.121   9.834  21.171  0.00  0.00    +0.000 A 
ATOM      9  C   UNL     1      -0.629  10.718  20.217  0.00  0.00    +0.000 A 
ATOM     10  C   UNL     1      -0.201  10.641  18.893  0.00  0.00    +0.000 A 
ATOM     11  C   UNL     1       0.734   9.677  18.509  0.00  0.00    +0.000 A 
ATOM     12  C   UNL     1       1.254   8.767  19.440  0.00  0.00    +0.000 A 
ATOM     13  C   UNL     1       0.822   8.872  20.774  0.00  0.00    +0.000 A 
ENDBRANCH   1  12
BRANCH   4  14
ATOM     14  S   UNL     1       5.824   5.061  18.172  0.00  0.00    +0.000 S 
ATOM     15  O   UNL     1       6.828   6.067  18.460  0.00  0.00    +0.000 OA
ATOM     16  O   UNL     1       5.746   3.849  18.957  0.00  0.00    +0.000 OA
BRANCH  14  17
ATOM     17  C   UNL     1       6.041   4.615  16.483  0.00  0.00    +0.000 A 
ATOM     18  C   UNL     1       5.007   4.014  15.768  0.00  0.00    +0.000 A 
ATOM     19  C   UNL     1       5.187   3.753  14.408  0.00  0.00    +0.000 A 
ATOM     20  C   UNL     1       6.388   4.110  13.790  0.00  0.00    +0.000 A 
ATOM     21  N   UNL     1       7.401   4.703  14.494  0.00  0.00    +0.000 NA
ATOM     22  C   UNL     1       7.202   4.951  15.818  0.00  0.00    +0.000 A 
BRANCH  20  23
ATOM     23  C   UNL     1       6.577   3.851  12.295  0.00  0.00    +0.000 C 
ATOM     24  F   UNL     1       7.133   2.629  12.030  0.00  0.00    +0.000 F 
ATOM     25  F   UNL     1       5.408   3.873  11.591  0.00  0.00    +0.000 F 
ATOM     26  F   UNL     1       7.400   4.757  11.693  0.00  0.00    +0.000 F 
ENDBRANCH  20  23
ENDBRANCH  14  17
ENDBRANCH   4  14
TORSDOF 4
ENDMDL
MODEL 2
REMARK VINA RESULT:      -8.5      0.590      1.207
REMARK  Name = 
REMARK  5 active torsions:
REMARK  status: ('A' for Active; 'I' for Inactive)
REMARK    1  A    between atoms: C_1  and  C_2
REMARK    2  A    between atoms: C_6  and  C_7
REMARK    3  A    between atoms: N_10  and  S_11
REMARK    4  A    between atoms: S_11  and  C_14
REMARK    5  A    between atoms: C_17  and  C_18
REMARK                            x       y       z     vdW  Elec       q    Type
REMARK                         _______ _______ _______ _____ _____    ______ ____
ROOT
ATOM      1  C   UNL     1       2.227   7.733  19.177  0.00  0.00    +0.000 C 
ATOM      2  C   UNL     1       2.566   6.682  19.944  0.00  0.00    +0.000 C 
ATOM      3  C   UNL     1       3.582   5.634  19.606  0.00  0.00    +0.000 C 
ATOM      4  N   UNL     1       4.183   5.788  18.254  0.00  0.00    +0.000 NA
ATOM      5  C   UNL     1       4.231   7.201  17.761  0.00  0.00    +0.000 C 
ATOM      6  C   UNL     1       2.864   7.886  17.824  0.00  0.00    +0.000 C 
ENDROOT
BRANCH   1  12
ATOM      7  C   UNL     1      -0.561   9.737  22.844  0.00  0.00    +0.000 C 
ATOM      8  C   UNL     1      -0.112   9.747  21.414  0.00  0.00    +0.000 A 
ATOM      9  C   UNL     1      -0.577  10.708  20.514  0.00  0.00    +0.000 A 
ATOM     10  C   UNL     1      -0.134  10.704  19.193  0.00  0.00    +0.000 A 
ATOM     11  C   UNL     1       0.773   9.735  18.757  0.00  0.00    +0.000 A 
ATOM     12  C   UNL     1       1.249   8.749  19.631  0.00  0.00    +0.000 A 
ATOM     13  C   UNL     1       0.803   8.782  20.964  0.00  0.00    +0.000 A 
ENDBRANCH   1  12
BRANCH   4  14
ATOM     14  S   UNL     1       5.719   5.012  18.122  0.00  0.00    +0.000 S 
ATOM     15  O   UNL     1       6.739   5.975  18.491  0.00  0.00    +0.000 OA
ATOM     16  O   UNL     1       5.630   3.736  18.795  0.00  0.00    +0.000 OA
BRANCH  14  17
ATOM     17  C   UNL     1       5.920   4.717  16.397  0.00  0.00    +0.000 A 
ATOM     18  C   UNL     1       7.083   5.111  15.740  0.00  0.00    +0.000 A 
ATOM     19  C   UNL     1       7.243   4.784  14.392  0.00  0.00    +0.000 A 
ATOM     20  C   UNL     1       6.245   4.059  13.735  0.00  0.00    +0.000 A 
ATOM     21  N   UNL     1       5.104   3.670  14.385  0.00  0.00    +0.000 NA
ATOM     22  C   UNL     1       4.972   3.997  15.700  0.00  0.00    +0.000 A 
BRANCH  20  23
ATOM     23  C   UNL     1       6.430   3.674  12.266  0.00  0.00    +0.000 C 
ATOM     24  F   UNL     1       7.293   4.502  11.602  0.00  0.00    +0.000 F 
ATOM     25  F   UNL     1       6.935   2.419  12.097  0.00  0.00    +0.000 F 
ATOM     26  F   UNL     1       5.270   3.717  11.551  0.00  0.00    +0.000 F 
ENDBRANCH  20  23
ENDBRANCH  14  17
ENDBRANCH   4  14
TORSDOF 4
ENDMDL
MODEL 3
REMARK VINA RESULT:      -8.4      5.500      7.312
REMARK  Name = 
REMARK  5 active torsions:
REMARK  status: ('A' for Active; 'I' for Inactive)
REMARK    1  A    between atoms: C_1  and  C_2
REMARK    2  A    between atoms: C_6  and  C_7
REMARK    3  A    between atoms: N_10  and  S_11
REMARK    4  A    between atoms: S_11  and  C_14
REMARK    5  A    between atoms: C_17  and  C_18
REMARK                            x       y       z     vdW  Elec       q    Type
REMARK                         _______ _______ _______ _____ _____    ______ ____
ROOT
ATOM      1  C   UNL     1       8.541   8.936  18.591  0.00  0.00    +0.000 C 
ATOM      2  C   UNL     1       8.744   7.789  19.263  0.00  0.00    +0.000 C 
ATOM      3  C   UNL     1       8.123   6.462  18.951  0.00  0.00    +0.000 C 
ATOM      4  N   UNL     1       7.149   6.499  17.828  0.00  0.00    +0.000 NA
ATOM      5  C   UNL     1       7.425   7.561  16.811  0.00  0.00    +0.000 C 
ATOM      6  C   UNL     1       7.572   8.947  17.442  0.00  0.00    +0.000 C 
ENDROOT
BRANCH   1  12
ATOM      7  C   UNL     1      10.970  13.097  17.168  0.00  0.00    +0.000 C 
ATOM      8  C   UNL     1      10.433  12.229  18.266  0.00  0.00    +0.000 A 
ATOM      9  C   UNL     1      10.568  12.591  19.608  0.00  0.00    +0.000 A 
ATOM     10  C   UNL     1      10.049  11.773  20.610  0.00  0.00    +0.000 A 
ATOM     11  C   UNL     1       9.394  10.584  20.280  0.00  0.00    +0.000 A 
ATOM     12  C   UNL     1       9.252  10.186  18.944  0.00  0.00    +0.000 A 
ATOM     13  C   UNL     1       9.769  11.034  17.948  0.00  0.00    +0.000 A 
ENDBRANCH   1  12
BRANCH   4  14
ATOM     14  S   UNL     1       6.928   4.952  17.095  0.00  0.00    +0.000 S 
ATOM     15  O   UNL     1       6.760   5.154  15.669  0.00  0.00    +0.000 OA
ATOM     16  O   UNL     1       7.958   4.072  17.600  0.00  0.00    +0.000 OA
BRANCH  14  17
ATOM     17  C   UNL     1       5.373   4.391  17.701  0.00  0.00    +0.000 A 
ATOM     18  C   UNL     1       4.321   4.132  16.826  0.00  0.00    +0.000 A 
ATOM     19  C   UNL     1       3.131   3.607  17.334  0.00  0.00    +0.000 A 
ATOM     20  C   UNL     1       3.023   3.341  18.701  0.00  0.00    +0.000 A 
ATOM     21  N   UNL     1       4.060   3.594  19.559  0.00  0.00    +0.000 NA
ATOM     22  C   UNL     1       5.211   4.102  19.040  0.00  0.00    +0.000 A 
BRANCH  20  23
ATOM     23  C   UNL     1       1.731   2.740  19.256  0.00  0.00    +0.000 C 
ATOM     24  F   UNL     1       1.906   2.114  20.460  0.00  0.00    +0.000 F 
ATOM     25  F   UNL     1       0.754   3.668  19.474  0.00  0.00    +0.000 F 
ATOM     26  F   UNL     1       1.183   1.797  18.438  0.00  0.00    +0.000 F 
ENDBRANCH  20  23
ENDBRANCH  14  17
ENDBRANCH   4  14
TORSDOF 4
ENDMDL
MODEL 4
REMARK VINA RESULT:      -8.4      0.405      1.383
REMARK  Name = 
REMARK  5 active torsions:
REMARK  status: ('A' for Active; 'I' for Inactive)
REMARK    1  A    between atoms: C_1  and  C_2
REMARK    2  A    between atoms: C_6  and  C_7
REMARK    3  A    between atoms: N_10  and  S_11
REMARK    4  A    between atoms: S_11  and  C_14
REMARK    5  A    between atoms: C_17  and  C_18
REMARK                            x       y       z     vdW  Elec       q    Type
REMARK                         _______ _______ _______ _____ _____    ______ ____
ROOT
ATOM      1  C   UNL     1       2.241   7.826  18.952  0.00  0.00    +0.000 C 
ATOM      2  C   UNL     1       2.536   6.770  19.731  0.00  0.00    +0.000 C 
ATOM      3  C   UNL     1       3.592   5.742  19.459  0.00  0.00    +0.000 C 
ATOM      4  N   UNL     1       4.292   5.923  18.159  0.00  0.00    +0.000 NA
ATOM      5  C   UNL     1       4.355   7.342  17.688  0.00  0.00    +0.000 C 
ATOM      6  C   UNL     1       2.977   8.006  17.654  0.00  0.00    +0.000 C 
ENDROOT
BRANCH   1  12
ATOM      7  C   UNL     1      -1.421  11.015  17.663  0.00  0.00    +0.000 C 
ATOM      8  C   UNL     1      -0.582  10.377  18.730  0.00  0.00    +0.000 A 
ATOM      9  C   UNL     1      -0.769  10.685  20.079  0.00  0.00    +0.000 A 
ATOM     10  C   UNL     1       0.015  10.069  21.053  0.00  0.00    +0.000 A 
ATOM     11  C   UNL     1       0.995   9.144  20.687  0.00  0.00    +0.000 A 
ATOM     12  C   UNL     1       1.216   8.822  19.341  0.00  0.00    +0.000 A 
ATOM     13  C   UNL     1       0.403   9.442  18.376  0.00  0.00    +0.000 A 
ENDBRANCH   1  12
BRANCH   4  14
ATOM     14  S   UNL     1       5.846   5.170  18.137  0.00  0.00    +0.000 S 
ATOM     15  O   UNL     1       6.837   6.186  18.436  0.00  0.00    +0.000 OA
ATOM     16  O   UNL     1       5.764   3.962  18.927  0.00  0.00    +0.000 OA
BRANCH  14  17
ATOM     17  C   UNL     1       6.095   4.717  16.453  0.00  0.00    +0.000 A 
ATOM     18  C   UNL     1       5.164   3.922  15.787  0.00  0.00    +0.000 A 
ATOM     19  C   UNL     1       5.352   3.654  14.429  0.00  0.00    +0.000 A 
ATOM     20  C   UNL     1       6.456   4.197  13.766  0.00  0.00    +0.000 A 
ATOM     21  N   UNL     1       7.367   4.980  14.422  0.00  0.00    +0.000 NA
ATOM     22  C   UNL     1       7.161   5.230  15.745  0.00  0.00    +0.000 A 
BRANCH  20  23
ATOM     23  C   UNL     1       6.648   3.928  12.272  0.00  0.00    +0.000 C 
ATOM     24  F   UNL     1       7.234   2.718  12.018  0.00  0.00    +0.000 F 
ATOM     25  F   UNL     1       5.478   3.915  11.571  0.00  0.00    +0.000 F 
ATOM     26  F   UNL     1       7.448   4.848  11.660  0.00  0.00    +0.000 F 
ENDBRANCH  20  23
ENDBRANCH  14  17
ENDBRANCH   4  14
TORSDOF 4
ENDMDL
MODEL 5
REMARK VINA RESULT:      -8.3      1.019      1.271
REMARK  Name = 
REMARK  5 active torsions:
REMARK  status: ('A' for Active; 'I' for Inactive)
REMARK    1  A    between atoms: C_1  and  C_2
REMARK    2  A    between atoms: C_6  and  C_7
REMARK    3  A    between atoms: N_10  and  S_11
REMARK    4  A    between atoms: S_11  and  C_14
REMARK    5  A    between atoms: C_17  and  C_18
REMARK                            x       y       z     vdW  Elec       q    Type
REMARK                         _______ _______ _______ _____ _____    ______ ____
ROOT
ATOM      1  C   UNL     1       2.274   7.717  18.857  0.00  0.00    +0.000 C 
ATOM      2  C   UNL     1       2.232   6.610  19.619  0.00  0.00    +0.000 C 
ATOM      3  C   UNL     1       2.972   5.334  19.363  0.00  0.00    +0.000 C 
ATOM      4  N   UNL     1       3.753   5.330  18.096  0.00  0.00    +0.000 NA
ATOM      5  C   UNL     1       4.226   6.682  17.665  0.00  0.00    +0.000 C 
ATOM      6  C   UNL     1       3.089   7.703  17.594  0.00  0.00    +0.000 C 
ENDROOT
BRANCH   1  12
ATOM      7  C   UNL     1      -0.408  10.326  22.208  0.00  0.00    +0.000 C 
ATOM      8  C   UNL     1       0.245  10.245  20.861  0.00  0.00    +0.000 A 
ATOM      9  C   UNL     1       0.203  11.319  19.970  0.00  0.00    +0.000 A 
ATOM     10  C   UNL     1       0.829  11.224  18.728  0.00  0.00    +0.000 A 
ATOM     11  C   UNL     1       1.498  10.052  18.364  0.00  0.00    +0.000 A 
ATOM     12  C   UNL     1       1.548   8.953  19.231  0.00  0.00    +0.000 A 
ATOM     13  C   UNL     1       0.924   9.076  20.486  0.00  0.00    +0.000 A 
ENDBRANCH   1  12
BRANCH   4  14
ATOM     14  S   UNL     1       5.037   4.177  18.115  0.00  0.00    +0.000 S 
ATOM     15  O   UNL     1       5.987   4.585  19.132  0.00  0.00    +0.000 OA
ATOM     16  O   UNL     1       4.447   2.858  18.142  0.00  0.00    +0.000 OA
BRANCH  14  17
ATOM     17  C   UNL     1       5.848   4.391  16.566  0.00  0.00    +0.000 A 
ATOM     18  C   UNL     1       5.248   3.960  15.385  0.00  0.00    +0.000 A 
ATOM     19  C   UNL     1       5.881   4.223  14.169  0.00  0.00    +0.000 A 
ATOM     20  C   UNL     1       7.091   4.922  14.159  0.00  0.00    +0.000 A 
ATOM     21  N   UNL     1       7.677   5.347  15.321  0.00  0.00    +0.000 NA
ATOM     22  C   UNL     1       7.039   5.082  16.494  0.00  0.00    +0.000 A 
BRANCH  20  23
ATOM     23  C   UNL     1       7.773   5.237  12.826  0.00  0.00    +0.000 C 
ATOM     24  F   UNL     1       9.132   5.347  12.934  0.00  0.00    +0.000 F 
ATOM     25  F   UNL     1       7.565   4.281  11.875  0.00  0.00    +0.000 F 
ATOM     26  F   UNL     1       7.360   6.415  12.277  0.00  0.00    +0.000 F 
ENDBRANCH  20  23
ENDBRANCH  14  17
ENDBRANCH   4  14
TORSDOF 4
ENDMDL
MODEL 6
REMARK VINA RESULT:      -8.2      5.554      7.415
REMARK  Name = 
REMARK  5 active torsions:
REMARK  status: ('A' for Active; 'I' for Inactive)
REMARK    1  A    between atoms: C_1  and  C_2
REMARK    2  A    between atoms: C_6  and  C_7
REMARK    3  A    between atoms: N_10  and  S_11
REMARK    4  A    between atoms: S_11  and  C_14
REMARK    5  A    between atoms: C_17  and  C_18
REMARK                            x       y       z     vdW  Elec       q    Type
REMARK                         _______ _______ _______ _____ _____    ______ ____
ROOT
ATOM      1  C   UNL     1       8.206   9.069  18.236  0.00  0.00    +0.000 C 
ATOM      2  C   UNL     1       8.657   7.983  18.889  0.00  0.00    +0.000 C 
ATOM      3  C   UNL     1       8.053   6.613  18.845  0.00  0.00    +0.000 C 
ATOM      4  N   UNL     1       6.802   6.528  18.044  0.00  0.00    +0.000 NA
ATOM      5  C   UNL     1       6.718   7.524  16.931  0.00  0.00    +0.000 C 
ATOM      6  C   UNL     1       6.954   8.957  17.412  0.00  0.00    +0.000 C 
ENDROOT
BRANCH   1  12
ATOM      7  C   UNL     1      12.091  11.821  19.837  0.00  0.00    +0.000 C 
ATOM      8  C   UNL     1      10.809  11.726  19.065  0.00  0.00    +0.000 A 
ATOM      9  C   UNL     1      10.287  12.830  18.387  0.00  0.00    +0.000 A 
ATOM     10  C   UNL     1       9.100  12.712  17.666  0.00  0.00    +0.000 A 
ATOM     11  C   UNL     1       8.422  11.492  17.621  0.00  0.00    +0.000 A 
ATOM     12  C   UNL     1       8.912  10.369  18.300  0.00  0.00    +0.000 A 
ATOM     13  C   UNL     1      10.120  10.505  19.007  0.00  0.00    +0.000 A 
ENDBRANCH   1  12
BRANCH   4  14
ATOM     14  S   UNL     1       6.477   4.924  17.495  0.00  0.00    +0.000 S 
ATOM     15  O   UNL     1       6.243   4.981  16.065  0.00  0.00    +0.000 OA
ATOM     16  O   UNL     1       7.493   4.054  18.044  0.00  0.00    +0.000 OA
BRANCH  14  17
ATOM     17  C   UNL     1       4.933   4.508  18.233  0.00  0.00    +0.000 A 
ATOM     18  C   UNL     1       3.757   5.129  17.817  0.00  0.00    +0.000 A 
ATOM     19  C   UNL     1       2.541   4.712  18.364  0.00  0.00    +0.000 A 
ATOM     20  C   UNL     1       2.526   3.676  19.302  0.00  0.00    +0.000 A 
ATOM     21  N   UNL     1       3.683   3.066  19.706  0.00  0.00    +0.000 NA
ATOM     22  C   UNL     1       4.856   3.487  19.157  0.00  0.00    +0.000 A 
BRANCH  20  23
ATOM     23  C   UNL     1       1.194   3.199  19.882  0.00  0.00    +0.000 C 
ATOM     24  F   UNL     1       0.445   2.488  18.984  0.00  0.00    +0.000 F 
ATOM     25  F   UNL     1       1.339   2.376  20.960  0.00  0.00    +0.000 F 
ATOM     26  F   UNL     1       0.389   4.221  20.290  0.00  0.00    +0.000 F 
ENDBRANCH  20  23
ENDBRANCH  14  17
ENDBRANCH   4  14
TORSDOF 4
ENDMDL
MODEL 7
REMARK VINA RESULT:      -8.2      5.493      7.173
REMARK  Name = 
REMARK  5 active torsions:
REMARK  status: ('A' for Active; 'I' for Inactive)
REMARK    1  A    between atoms: C_1  and  C_2
REMARK    2  A    between atoms: C_6  and  C_7
REMARK    3  A    between atoms: N_10  and  S_11
REMARK    4  A    between atoms: S_11  and  C_14
REMARK    5  A    between atoms: C_17  and  C_18
REMARK                            x       y       z     vdW  Elec       q    Type
REMARK                         _______ _______ _______ _____ _____    ______ ____
ROOT
ATOM      1  C   UNL     1       8.466   8.947  18.533  0.00  0.00    +0.000 C 
ATOM      2  C   UNL     1       8.724   7.816  19.214  0.00  0.00    +0.000 C 
ATOM      3  C   UNL     1       8.091   6.480  18.975  0.00  0.00    +0.000 C 
ATOM      4  N   UNL     1       7.040   6.487  17.923  0.00  0.00    +0.000 NA
ATOM      5  C   UNL     1       7.236   7.528  16.867  0.00  0.00    +0.000 C 
ATOM      6  C   UNL     1       7.418   8.929  17.456  0.00  0.00    +0.000 C 
ENDROOT
BRANCH   1  12
ATOM      7  C   UNL     1       9.798  12.573  21.744  0.00  0.00    +0.000 C 
ATOM      8  C   UNL     1       9.861  11.983  20.368  0.00  0.00    +0.000 A 
ATOM      9  C   UNL     1      10.609  12.585  19.354  0.00  0.00    +0.000 A 
ATOM     10  C   UNL     1      10.662  12.010  18.086  0.00  0.00    +0.000 A 
ATOM     11  C   UNL     1       9.962  10.831  17.818  0.00  0.00    +0.000 A 
ATOM     12  C   UNL     1       9.192  10.208  18.809  0.00  0.00    +0.000 A 
ATOM     13  C   UNL     1       9.166  10.796  20.087  0.00  0.00    +0.000 A 
ENDBRANCH   1  12
BRANCH   4  14
ATOM     14  S   UNL     1       6.778   4.923  17.240  0.00  0.00    +0.000 S 
ATOM     15  O   UNL     1       6.658   5.079  15.803  0.00  0.00    +0.000 OA
ATOM     16  O   UNL     1       7.758   4.023  17.806  0.00  0.00    +0.000 OA
BRANCH  14  17
ATOM     17  C   UNL     1       5.186   4.447  17.820  0.00  0.00    +0.000 A 
ATOM     18  C   UNL     1       4.358   3.639  17.042  0.00  0.00    +0.000 A 
ATOM     19  C   UNL     1       3.139   3.211  17.570  0.00  0.00    +0.000 A 
ATOM     20  C   UNL     1       2.780   3.587  18.868  0.00  0.00    +0.000 A 
ATOM     21  N   UNL     1       3.595   4.378  19.631  0.00  0.00    +0.000 NA
ATOM     22  C   UNL     1       4.781   4.781  19.096  0.00  0.00    +0.000 A 
BRANCH  20  23
ATOM     23  C   UNL     1       1.457   3.097  19.459  0.00  0.00    +0.000 C 
ATOM     24  F   UNL     1       1.619   2.081  20.361  0.00  0.00    +0.000 F 
ATOM     25  F   UNL     1       0.774   4.068  20.132  0.00  0.00    +0.000 F 
ATOM     26  F   UNL     1       0.597   2.609  18.520  0.00  0.00    +0.000 F 
ENDBRANCH  20  23
ENDBRANCH  14  17
ENDBRANCH   4  14
TORSDOF 4
ENDMDL
MODEL 8
REMARK VINA RESULT:      -8.1      0.656      1.796
REMARK  Name = 
REMARK  5 active torsions:
REMARK  status: ('A' for Active; 'I' for Inactive)
REMARK    1  A    between atoms: C_1  and  C_2
REMARK    2  A    between atoms: C_6  and  C_7
REMARK    3  A    between atoms: N_10  and  S_11
REMARK    4  A    between atoms: S_11  and  C_14
REMARK    5  A    between atoms: C_17  and  C_18
REMARK                            x       y       z     vdW  Elec       q    Type
REMARK                         _______ _______ _______ _____ _____    ______ ____
ROOT
ATOM      1  C   UNL     1       2.246   7.712  19.267  0.00  0.00    +0.000 C 
ATOM      2  C   UNL     1       2.587   6.639  20.003  0.00  0.00    +0.000 C 
ATOM      3  C   UNL     1       3.607   5.606  19.636  0.00  0.00    +0.000 C 
ATOM      4  N   UNL     1       4.213   5.803  18.292  0.00  0.00    +0.000 NA
ATOM      5  C   UNL     1       4.257   7.230  17.843  0.00  0.00    +0.000 C 
ATOM      6  C   UNL     1       2.888   7.908  17.922  0.00  0.00    +0.000 C 
ENDROOT
BRANCH   1  12
ATOM      7  C   UNL     1      -0.745  11.643  18.356  0.00  0.00    +0.000 C 
ATOM      8  C   UNL     1      -0.210  10.626  19.319  0.00  0.00    +0.000 A 
ATOM      9  C   UNL     1      -0.640  10.587  20.646  0.00  0.00    +0.000 A 
ATOM     10  C   UNL     1      -0.137   9.623  21.518  0.00  0.00    +0.000 A 
ATOM     11  C   UNL     1       0.804   8.692  21.072  0.00  0.00    +0.000 A 
ATOM     12  C   UNL     1       1.264   8.711  19.749  0.00  0.00    +0.000 A 
ATOM     13  C   UNL     1       0.732   9.681  18.881  0.00  0.00    +0.000 A 
ENDBRANCH   1  12
BRANCH   4  14
ATOM     14  S   UNL     1       5.752   5.036  18.141  0.00  0.00    +0.000 S 
ATOM     15  O   UNL     1       6.770   6.008  18.488  0.00  0.00    +0.000 OA
ATOM     16  O   UNL     1       5.681   3.764  18.825  0.00  0.00    +0.000 OA
BRANCH  14  17
ATOM     17  C   UNL     1       5.928   4.730  16.416  0.00  0.00    +0.000 A 
ATOM     18  C   UNL     1       7.051   5.179  15.726  0.00  0.00    +0.000 A 
ATOM     19  C   UNL     1       7.197   4.844  14.378  0.00  0.00    +0.000 A 
ATOM     20  C   UNL     1       6.226   4.056  13.755  0.00  0.00    +0.000 A 
ATOM     21  N   UNL     1       5.124   3.613  14.437  0.00  0.00    +0.000 NA
ATOM     22  C   UNL     1       5.005   3.950  15.751  0.00  0.00    +0.000 A 
BRANCH  20  23
ATOM     23  C   UNL     1       6.397   3.663  12.287  0.00  0.00    +0.000 C 
ATOM     24  F   UNL     1       5.244   3.790  11.561  0.00  0.00    +0.000 F 
ATOM     25  F   UNL     1       7.320   4.422  11.629  0.00  0.00    +0.000 F 
ATOM     26  F   UNL     1       6.784   2.366  12.120  0.00  0.00    +0.000 F 
ENDBRANCH  20  23
ENDBRANCH  14  17
ENDBRANCH   4  14
TORSDOF 4
ENDMDL
MODEL 9
REMARK VINA RESULT:      -8.1      5.554      7.504
REMARK  Name = 
REMARK  5 active torsions:
REMARK  status: ('A' for Active; 'I' for Inactive)
REMARK    1  A    between atoms: C_1  and  C_2
REMARK    2  A    between atoms: C_6  and  C_7
REMARK    3  A    between atoms: N_10  and  S_11
REMARK    4  A    between atoms: S_11  and  C_14
REMARK    5  A    between atoms: C_17  and  C_18
REMARK                            x       y       z     vdW  Elec       q    Type
REMARK                         _______ _______ _______ _____ _____    ______ ____
ROOT
ATOM      1  C   UNL     1       8.421   8.956  18.541  0.00  0.00    +0.000 C 
ATOM      2  C   UNL     1       8.644   7.743  19.077  0.00  0.00    +0.000 C 
ATOM      3  C   UNL     1       7.895   6.486  18.756  0.00  0.00    +0.000 C 
ATOM      4  N   UNL     1       6.770   6.678  17.802  0.00  0.00    +0.000 NA
ATOM      5  C   UNL     1       6.964   7.813  16.846  0.00  0.00    +0.000 C 
ATOM      6  C   UNL     1       7.295   9.125  17.559  0.00  0.00    +0.000 C 
ENDROOT
BRANCH   1  12
ATOM      7  C   UNL     1      11.244  12.846  17.080  0.00  0.00    +0.000 C 
ATOM      8  C   UNL     1      10.634  12.039  18.187  0.00  0.00    +0.000 A 
ATOM      9  C   UNL     1      10.819  12.389  19.526  0.00  0.00    +0.000 A 
ATOM     10  C   UNL     1      10.230  11.630  20.536  0.00  0.00    +0.000 A 
ATOM     11  C   UNL     1       9.455  10.513  20.216  0.00  0.00    +0.000 A 
ATOM     12  C   UNL     1       9.259  10.128  18.883  0.00  0.00    +0.000 A 
ATOM     13  C   UNL     1       9.849  10.917  17.879  0.00  0.00    +0.000 A 
ENDBRANCH   1  12
BRANCH   4  14
ATOM     14  S   UNL     1       6.340   5.219  16.986  0.00  0.00    +0.000 S 
ATOM     15  O   UNL     1       5.916   5.567  15.644  0.00  0.00    +0.000 OA
ATOM     16  O   UNL     1       7.403   4.262  17.199  0.00  0.00    +0.000 OA
BRANCH  14  17
ATOM     17  C   UNL     1       4.903   4.648  17.827  0.00  0.00    +0.000 A 
ATOM     18  C   UNL     1       4.053   5.544  18.472  0.00  0.00    +0.000 A 
ATOM     19  C   UNL     1       2.879   5.064  19.055  0.00  0.00    +0.000 A 
ATOM     20  C   UNL     1       2.572   3.704  18.968  0.00  0.00    +0.000 A 
ATOM     21  N   UNL     1       3.407   2.826  18.331  0.00  0.00    +0.000 NA
ATOM     22  C   UNL     1       4.545   3.317  17.768  0.00  0.00    +0.000 A 
BRANCH  20  23
ATOM     23  C   UNL     1       1.272   3.180  19.581  0.00  0.00    +0.000 C 
ATOM     24  F   UNL     1       0.439   2.607  18.659  0.00  0.00    +0.000 F 
ATOM     25  F   UNL     1       1.471   2.220  20.530  0.00  0.00    +0.000 F 
ATOM     26  F   UNL     1       0.529   4.156  20.178  0.00  0.00    +0.000 F 
ENDBRANCH  20  23
ENDBRANCH  14  17
ENDBRANCH   4  14
TORSDOF 4
ENDMDL
