MODEL 1
REMARK VINA RESULT:      -8.7      0.000      0.000
REMARK  Name = 
REMARK  3 active torsions:
REMARK  status: ('A' for Active; 'I' for Inactive)
REMARK    1  A    between atoms: C_1  and  C_2
REMARK    2  A    between atoms: C_2  and  C_3
REMARK    3  A    between atoms: C_9  and  C_10
REMARK                            x       y       z     vdW  Elec       q    Type
REMARK                         _______ _______ _______ _____ _____    ______ ____
ROOT
ATOM      1  C   UNL     1       0.824  10.594  20.640  0.00  0.00    +0.000 C 
ATOM      2  O   UNL     1       1.417  11.031  21.616  0.00  0.00    +0.000 OA
ATOM      3  N   UNL     1      -0.283  11.238  20.053  0.00  0.00    +0.000 N 
ATOM      4  C   UNL     1      -0.694  12.453  20.741  0.00  0.00    +0.000 C 
ATOM      5  C   UNL     1      -2.045  13.068  20.383  0.00  0.00    +0.000 C 
ATOM      6  O   UNL     1      -3.085  12.191  19.977  0.00  0.00    +0.000 OA
ATOM      7  C   UNL     1      -3.035  11.614  18.740  0.00  0.00    +0.000 A 
ATOM      8  C   UNL     1      -4.297  11.481  18.127  0.00  0.00    +0.000 A 
ATOM      9  C   UNL     1      -4.469  10.726  16.967  0.00  0.00    +0.000 A 
ATOM     10  C   UNL     1      -3.377  10.078  16.416  0.00  0.00    +0.000 A 
ATOM     11  C   UNL     1      -2.122  10.242  17.000  0.00  0.00    +0.000 A 
ATOM     12  F   UNL     1      -1.087   9.603  16.434  0.00  0.00    +0.000 F 
ATOM     13  C   UNL     1      -1.914  11.024  18.156  0.00  0.00    +0.000 A 
ATOM     14  C   UNL     1      -0.493  11.215  18.610  0.00  0.00    +0.000 C 
ENDROOT
BRANCH   1  23
ATOM     15  C   UNL     1       1.506   4.799  17.703  0.00  0.00    +0.000 C 
ATOM     16  C   UNL     1       2.509   5.484  18.629  0.00  0.00    +0.000 C 
ATOM     17  C   UNL     1       3.932   5.408  18.081  0.00  0.00    +0.000 C 
ATOM     18  C   UNL     1       2.449   4.824  20.031  0.00  0.00    +0.000 C 
ATOM     19  O   UNL     1       2.693   3.660  20.308  0.00  0.00    +0.000 OA
ATOM     20  N   UNL     1       2.070   5.802  20.937  0.00  0.00    +0.000 N 
ATOM     21  C   UNL     1       1.869   7.020  20.317  0.00  0.00    +0.000 A 
ATOM     22  C   UNL     1       1.485   8.197  20.916  0.00  0.00    +0.000 A 
ATOM     23  C   UNL     1       1.297   9.299  20.076  0.00  0.00    +0.000 A 
ATOM     24  C   UNL     1       1.569   9.218  18.695  0.00  0.00    +0.000 A 
ATOM     25  C   UNL     1       1.982   8.011  18.117  0.00  0.00    +0.000 A 
ATOM     26  C   UNL     1       2.108   6.908  18.947  0.00  0.00    +0.000 A 
ATOM     27  H   UNL     1       1.952   5.616  21.927  0.00  0.00    +0.000 HD
ENDBRANCH   1  23
TORSDOF 1
ENDMDL
MODEL 2
REMARK VINA RESULT:      -8.5      2.968      4.035
REMARK  Name = 
REMARK  3 active torsions:
REMARK  status: ('A' for Active; 'I' for Inactive)
REMARK    1  A    between atoms: C_1  and  C_2
REMARK    2  A    between atoms: C_2  and  C_3
REMARK    3  A    between atoms: C_9  and  C_10
REMARK                            x       y       z     vdW  Elec       q    Type
REMARK                         _______ _______ _______ _____ _____    ______ ____
ROOT
ATOM      1  C   UNL     1       2.561   8.451  17.905  0.00  0.00    +0.000 C 
ATOM      2  O   UNL     1       3.202   8.734  16.902  0.00  0.00    +0.000 OA
ATOM      3  N   UNL     1       1.772   9.382  18.609  0.00  0.00    +0.000 N 
ATOM      4  C   UNL     1       1.821  10.731  18.065  0.00  0.00    +0.000 C 
ATOM      5  C   UNL     1       1.252  11.873  18.904  0.00  0.00    +0.000 C 
ATOM      6  O   UNL     1       1.334  11.760  20.317  0.00  0.00    +0.000 OA
ATOM      7  C   UNL     1       0.512  10.888  20.972  0.00  0.00    +0.000 A 
ATOM      8  C   UNL     1       0.068  11.361  22.223  0.00  0.00    +0.000 A 
ATOM      9  C   UNL     1      -0.597  10.529  23.124  0.00  0.00    +0.000 A 
ATOM     10  C   UNL     1      -0.809   9.203  22.786  0.00  0.00    +0.000 A 
ATOM     11  C   UNL     1      -0.406   8.746  21.533  0.00  0.00    +0.000 A 
ATOM     12  F   UNL     1      -0.633   7.456  21.240  0.00  0.00    +0.000 F 
ATOM     13  C   UNL     1       0.243   9.573  20.591  0.00  0.00    +0.000 A 
ATOM     14  C   UNL     1       0.515   8.987  19.233  0.00  0.00    +0.000 C 
ENDROOT
BRANCH   1  23
ATOM     15  C   UNL     1       1.712   2.146  19.385  0.00  0.00    +0.000 C 
ATOM     16  C   UNL     1       2.747   3.099  19.982  0.00  0.00    +0.000 C 
ATOM     17  C   UNL     1       4.128   2.455  20.070  0.00  0.00    +0.000 C 
ATOM     18  C   UNL     1       2.282   3.545  21.392  0.00  0.00    +0.000 C 
ATOM     19  O   UNL     1       2.092   2.832  22.364  0.00  0.00    +0.000 OA
ATOM     20  N   UNL     1       2.122   4.922  21.363  0.00  0.00    +0.000 N 
ATOM     21  C   UNL     1       2.417   5.443  20.117  0.00  0.00    +0.000 A 
ATOM     22  C   UNL     1       2.359   6.764  19.741  0.00  0.00    +0.000 A 
ATOM     23  C   UNL     1       2.658   7.052  18.405  0.00  0.00    +0.000 A 
ATOM     24  C   UNL     1       3.077   6.040  17.516  0.00  0.00    +0.000 A 
ATOM     25  C   UNL     1       3.149   4.706  17.936  0.00  0.00    +0.000 A 
ATOM     26  C   UNL     1       2.792   4.420  19.245  0.00  0.00    +0.000 A 
ATOM     27  H   UNL     1       1.815   5.455  22.168  0.00  0.00    +0.000 HD
ENDBRANCH   1  23
TORSDOF 1
ENDMDL
MODEL 3
REMARK VINA RESULT:      -8.3      2.787      7.497
REMARK  Name = 
REMARK  3 active torsions:
REMARK  status: ('A' for Active; 'I' for Inactive)
REMARK    1  A    between atoms: C_1  and  C_2
REMARK    2  A    between atoms: C_2  and  C_3
REMARK    3  A    between atoms: C_9  and  C_10
REMARK                            x       y       z     vdW  Elec       q    Type
REMARK                         _______ _______ _______ _____ _____    ______ ____
ROOT
ATOM      1  C   UNL     1       3.495   7.344  17.455  0.00  0.00    +0.000 C 
ATOM      2  O   UNL     1       4.106   7.840  16.519  0.00  0.00    +0.000 OA
ATOM      3  N   UNL     1       3.603   5.988  17.820  0.00  0.00    +0.000 N 
ATOM      4  C   UNL     1       4.474   5.209  16.952  0.00  0.00    +0.000 C 
ATOM      5  C   UNL     1       4.437   3.687  17.065  0.00  0.00    +0.000 C 
ATOM      6  O   UNL     1       3.208   3.079  17.432  0.00  0.00    +0.000 OA
ATOM      7  C   UNL     1       2.770   3.172  18.723  0.00  0.00    +0.000 A 
ATOM      8  C   UNL     1       2.116   2.011  19.181  0.00  0.00    +0.000 A 
ATOM      9  C   UNL     1       1.417   1.996  20.389  0.00  0.00    +0.000 A 
ATOM     10  C   UNL     1       1.350   3.155  21.143  0.00  0.00    +0.000 A 
ATOM     11  C   UNL     1       2.031   4.290  20.708  0.00  0.00    +0.000 A 
ATOM     12  F   UNL     1       1.947   5.393  21.470  0.00  0.00    +0.000 F 
ATOM     13  C   UNL     1       2.770   4.326  19.507  0.00  0.00    +0.000 A 
ATOM     14  C   UNL     1       3.555   5.575  19.218  0.00  0.00    +0.000 C 
ENDROOT
BRANCH   1  23
ATOM     15  C   UNL     1       0.690  11.979  21.106  0.00  0.00    +0.000 C 
ATOM     16  C   UNL     1       0.044  10.690  20.601  0.00  0.00    +0.000 C 
ATOM     17  C   UNL     1      -1.354  10.937  20.040  0.00  0.00    +0.000 C 
ATOM     18  C   UNL     1      -0.027   9.662  21.760  0.00  0.00    +0.000 C 
ATOM     19  O   UNL     1      -0.632   9.782  22.814  0.00  0.00    +0.000 OA
ATOM     20  N   UNL     1       0.721   8.558  21.385  0.00  0.00    +0.000 N 
ATOM     21  C   UNL     1       1.281   8.723  20.132  0.00  0.00    +0.000 A 
ATOM     22  C   UNL     1       2.081   7.828  19.462  0.00  0.00    +0.000 A 
ATOM     23  C   UNL     1       2.574   8.233  18.218  0.00  0.00    +0.000 A 
ATOM     24  C   UNL     1       2.197   9.467  17.650  0.00  0.00    +0.000 A 
ATOM     25  C   UNL     1       1.361  10.348  18.348  0.00  0.00    +0.000 A 
ATOM     26  C   UNL     1       0.925   9.965  19.607  0.00  0.00    +0.000 A 
ATOM     27  H   UNL     1       0.837   7.745  21.981  0.00  0.00    +0.000 HD
ENDBRANCH   1  23
TORSDOF 1
ENDMDL
MODEL 4
REMARK VINA RESULT:      -8.3      1.214      1.758
REMARK  Name = 
REMARK  3 active torsions:
REMARK  status: ('A' for Active; 'I' for Inactive)
REMARK    1  A    between atoms: C_1  and  C_2
REMARK    2  A    between atoms: C_2  and  C_3
REMARK    3  A    between atoms: C_9  and  C_10
REMARK                            x       y       z     vdW  Elec       q    Type
REMARK                         _______ _______ _______ _____ _____    ______ ____
ROOT
ATOM      1  C   UNL     1       0.678  10.329  20.932  0.00  0.00    +0.000 C 
ATOM      2  O   UNL     1       1.187  10.765  21.955  0.00  0.00    +0.000 OA
ATOM      3  N   UNL     1      -0.335  11.002  20.223  0.00  0.00    +0.000 N 
ATOM      4  C   UNL     1      -0.763  12.248  20.841  0.00  0.00    +0.000 C 
ATOM      5  C   UNL     1      -2.043  12.908  20.334  0.00  0.00    +0.000 C 
ATOM      6  O   UNL     1      -3.073  12.064  19.840  0.00  0.00    +0.000 OA
ATOM      7  C   UNL     1      -2.922  11.456  18.627  0.00  0.00    +0.000 A 
ATOM      8  C   UNL     1      -4.119  11.359  17.891  0.00  0.00    +0.000 A 
ATOM      9  C   UNL     1      -4.204  10.584  16.733  0.00  0.00    +0.000 A 
ATOM     10  C   UNL     1      -3.089   9.880  16.311  0.00  0.00    +0.000 A 
ATOM     11  C   UNL     1      -1.895  10.008  17.017  0.00  0.00    +0.000 A 
ATOM     12  F   UNL     1      -0.835   9.315  16.573  0.00  0.00    +0.000 F 
ATOM     13  C   UNL     1      -1.772  10.808  18.172  0.00  0.00    +0.000 A 
ATOM     14  C   UNL     1      -0.398  10.954  18.767  0.00  0.00    +0.000 C 
ENDROOT
BRANCH   1  23
ATOM     15  C   UNL     1       3.745   4.659  19.871  0.00  0.00    +0.000 C 
ATOM     16  C   UNL     1       2.703   5.323  18.972  0.00  0.00    +0.000 C 
ATOM     17  C   UNL     1       1.665   4.323  18.471  0.00  0.00    +0.000 C 
ATOM     18  C   UNL     1       3.415   5.993  17.768  0.00  0.00    +0.000 C 
ATOM     19  O   UNL     1       4.088   5.441  16.911  0.00  0.00    +0.000 OA
ATOM     20  N   UNL     1       3.147   7.351  17.826  0.00  0.00    +0.000 N 
ATOM     21  C   UNL     1       2.354   7.668  18.913  0.00  0.00    +0.000 A 
ATOM     22  C   UNL     1       1.906   8.917  19.271  0.00  0.00    +0.000 A 
ATOM     23  C   UNL     1       1.151   9.003  20.445  0.00  0.00    +0.000 A 
ATOM     24  C   UNL     1       0.803   7.848  21.175  0.00  0.00    +0.000 A 
ATOM     25  C   UNL     1       1.255   6.585  20.772  0.00  0.00    +0.000 A 
ATOM     26  C   UNL     1       2.054   6.515  19.641  0.00  0.00    +0.000 A 
ATOM     27  H   UNL     1       3.509   8.011  17.147  0.00  0.00    +0.000 HD
ENDBRANCH   1  23
TORSDOF 1
ENDMDL
MODEL 5
REMARK VINA RESULT:      -8.2      2.464      7.932
REMARK  Name = 
REMARK  3 active torsions:
REMARK  status: ('A' for Active; 'I' for Inactive)
REMARK    1  A    between atoms: C_1  and  C_2
REMARK    2  A    between atoms: C_2  and  C_3
REMARK    3  A    between atoms: C_9  and  C_10
REMARK                            x       y       z     vdW  Elec       q    Type
REMARK                         _______ _______ _______ _____ _____    ______ ____
ROOT
ATOM      1  C   UNL     1       1.953   5.680  20.144  0.00  0.00    +0.000 C 
ATOM      2  O   UNL     1       1.237   5.111  20.956  0.00  0.00    +0.000 OA
ATOM      3  N   UNL     1       3.030   5.053  19.488  0.00  0.00    +0.000 N 
ATOM      4  C   UNL     1       3.250   3.673  19.896  0.00  0.00    +0.000 C 
ATOM      5  C   UNL     1       4.552   2.992  19.481  0.00  0.00    +0.000 C 
ATOM      6  O   UNL     1       5.711   3.803  19.350  0.00  0.00    +0.000 OA
ATOM      7  C   UNL     1       5.826   4.646  18.282  0.00  0.00    +0.000 A 
ATOM      8  C   UNL     1       7.142   4.756  17.790  0.00  0.00    +0.000 A 
ATOM      9  C   UNL     1       7.491   5.725  16.848  0.00  0.00    +0.000 A 
ATOM     10  C   UNL     1       6.523   6.610  16.403  0.00  0.00    +0.000 A 
ATOM     11  C   UNL     1       5.214   6.475  16.860  0.00  0.00    +0.000 A 
ATOM     12  F   UNL     1       4.304   7.348  16.402  0.00  0.00    +0.000 F 
ATOM     13  C   UNL     1       4.827   5.486  17.788  0.00  0.00    +0.000 A 
ATOM     14  C   UNL     1       3.361   5.373  18.104  0.00  0.00    +0.000 C 
ENDROOT
BRANCH   1  23
ATOM     15  C   UNL     1       2.173  12.065  18.782  0.00  0.00    +0.000 C 
ATOM     16  C   UNL     1       0.972  11.277  19.304  0.00  0.00    +0.000 C 
ATOM     17  C   UNL     1      -0.310  11.635  18.558  0.00  0.00    +0.000 C 
ATOM     18  C   UNL     1       0.795  11.554  20.819  0.00  0.00    +0.000 C 
ATOM     19  O   UNL     1       0.566  12.630  21.349  0.00  0.00    +0.000 OA
ATOM     20  N   UNL     1       0.937  10.347  21.484  0.00  0.00    +0.000 N 
ATOM     21  C   UNL     1       1.188   9.308  20.607  0.00  0.00    +0.000 A 
ATOM     22  C   UNL     1       1.383   7.986  20.929  0.00  0.00    +0.000 A 
ATOM     23  C   UNL     1       1.670   7.117  19.872  0.00  0.00    +0.000 A 
ATOM     24  C   UNL     1       1.677   7.569  18.536  0.00  0.00    +0.000 A 
ATOM     25  C   UNL     1       1.450   8.918  18.238  0.00  0.00    +0.000 A 
ATOM     26  C   UNL     1       1.226   9.785  19.297  0.00  0.00    +0.000 A 
ATOM     27  H   UNL     1       0.870  10.265  22.493  0.00  0.00    +0.000 HD
ENDBRANCH   1  23
TORSDOF 1
ENDMDL
MODEL 6
REMARK VINA RESULT:      -7.9      2.646      7.960
REMARK  Name = 
REMARK  3 active torsions:
REMARK  status: ('A' for Active; 'I' for Inactive)
REMARK    1  A    between atoms: C_1  and  C_2
REMARK    2  A    between atoms: C_2  and  C_3
REMARK    3  A    between atoms: C_9  and  C_10
REMARK                            x       y       z     vdW  Elec       q    Type
REMARK                         _______ _______ _______ _____ _____    ______ ____
ROOT
ATOM      1  C   UNL     1       1.879   5.368  20.339  0.00  0.00    +0.000 C 
ATOM      2  O   UNL     1       1.155   4.645  21.009  0.00  0.00    +0.000 OA
ATOM      3  N   UNL     1       3.007   4.900  19.637  0.00  0.00    +0.000 N 
ATOM      4  C   UNL     1       3.268   3.480  19.816  0.00  0.00    +0.000 C 
ATOM      5  C   UNL     1       4.613   2.925  19.353  0.00  0.00    +0.000 C 
ATOM      6  O   UNL     1       5.741   3.786  19.417  0.00  0.00    +0.000 OA
ATOM      7  C   UNL     1       5.864   4.802  18.512  0.00  0.00    +0.000 A 
ATOM      8  C   UNL     1       7.193   5.041  18.108  0.00  0.00    +0.000 A 
ATOM      9  C   UNL     1       7.538   6.168  17.362  0.00  0.00    +0.000 A 
ATOM     10  C   UNL     1       6.553   7.082  17.028  0.00  0.00    +0.000 A 
ATOM     11  C   UNL     1       5.233   6.825  17.394  0.00  0.00    +0.000 A 
ATOM     12  F   UNL     1       4.306   7.732  17.047  0.00  0.00    +0.000 F 
ATOM     13  C   UNL     1       4.851   5.679  18.122  0.00  0.00    +0.000 A 
ATOM     14  C   UNL     1       3.380   5.463  18.345  0.00  0.00    +0.000 C 
ENDROOT
BRANCH   1  23
ATOM     15  C   UNL     1      -0.881  11.254  19.694  0.00  0.00    +0.000 C 
ATOM     16  C   UNL     1       0.595  10.954  19.949  0.00  0.00    +0.000 C 
ATOM     17  C   UNL     1       1.180  11.859  21.030  0.00  0.00    +0.000 C 
ATOM     18  C   UNL     1       1.391  11.125  18.630  0.00  0.00    +0.000 C 
ATOM     19  O   UNL     1       1.512  12.146  17.971  0.00  0.00    +0.000 OA
ATOM     20  N   UNL     1       1.960   9.899  18.322  0.00  0.00    +0.000 N 
ATOM     21  C   UNL     1       1.641   8.939  19.264  0.00  0.00    +0.000 A 
ATOM     22  C   UNL     1       2.033   7.622  19.264  0.00  0.00    +0.000 A 
ATOM     23  C   UNL     1       1.547   6.820  20.301  0.00  0.00    +0.000 A 
ATOM     24  C   UNL     1       0.759   7.364  21.336  0.00  0.00    +0.000 A 
ATOM     25  C   UNL     1       0.395   8.716  21.321  0.00  0.00    +0.000 A 
ATOM     26  C   UNL     1       0.831   9.491  20.257  0.00  0.00    +0.000 A 
ATOM     27  H   UNL     1       2.528   9.750  17.495  0.00  0.00    +0.000 HD
ENDBRANCH   1  23
TORSDOF 1
ENDMDL
MODEL 7
REMARK VINA RESULT:      -7.7      2.952      4.174
REMARK  Name = 
REMARK  3 active torsions:
REMARK  status: ('A' for Active; 'I' for Inactive)
REMARK    1  A    between atoms: C_1  and  C_2
REMARK    2  A    between atoms: C_2  and  C_3
REMARK    3  A    between atoms: C_9  and  C_10
REMARK                            x       y       z     vdW  Elec       q    Type
REMARK                         _______ _______ _______ _____ _____    ______ ____
ROOT
ATOM      1  C   UNL     1       2.319   8.539  18.026  0.00  0.00    +0.000 C 
ATOM      2  O   UNL     1       2.983   8.715  17.014  0.00  0.00    +0.000 OA
ATOM      3  N   UNL     1       1.593   9.563  18.666  0.00  0.00    +0.000 N 
ATOM      4  C   UNL     1       1.739  10.870  18.042  0.00  0.00    +0.000 C 
ATOM      5  C   UNL     1       1.248  12.098  18.805  0.00  0.00    +0.000 C 
ATOM      6  O   UNL     1       1.314  12.066  20.223  0.00  0.00    +0.000 OA
ATOM      7  C   UNL     1       0.430  11.294  20.922  0.00  0.00    +0.000 A 
ATOM      8  C   UNL     1       0.014  11.872  22.138  0.00  0.00    +0.000 A 
ATOM      9  C   UNL     1      -0.712  11.145  23.081  0.00  0.00    +0.000 A 
ATOM     10  C   UNL     1      -1.014   9.818  22.823  0.00  0.00    +0.000 A 
ATOM     11  C   UNL     1      -0.637   9.260  21.603  0.00  0.00    +0.000 A 
ATOM     12  F   UNL     1      -0.953   7.973  21.387  0.00  0.00    +0.000 F 
ATOM     13  C   UNL     1       0.071   9.980  20.619  0.00  0.00    +0.000 A 
ATOM     14  C   UNL     1       0.309   9.295  19.301  0.00  0.00    +0.000 C 
ENDROOT
BRANCH   1  23
ATOM     15  C   UNL     1       3.713   2.834  20.887  0.00  0.00    +0.000 C 
ATOM     16  C   UNL     1       2.450   3.184  20.101  0.00  0.00    +0.000 C 
ATOM     17  C   UNL     1       1.188   2.702  20.811  0.00  0.00    +0.000 C 
ATOM     18  C   UNL     1       2.533   2.554  18.687  0.00  0.00    +0.000 C 
ATOM     19  O   UNL     1       2.609   1.366  18.413  0.00  0.00    +0.000 OA
ATOM     20  N   UNL     1       2.499   3.588  17.765  0.00  0.00    +0.000 N 
ATOM     21  C   UNL     1       2.409   4.820  18.386  0.00  0.00    +0.000 A 
ATOM     22  C   UNL     1       2.359   6.050  17.774  0.00  0.00    +0.000 A 
ATOM     23  C   UNL     1       2.316   7.169  18.611  0.00  0.00    +0.000 A 
ATOM     24  C   UNL     1       2.246   7.029  20.013  0.00  0.00    +0.000 A 
ATOM     25  C   UNL     1       2.275   5.761  20.606  0.00  0.00    +0.000 A 
ATOM     26  C   UNL     1       2.378   4.659  19.772  0.00  0.00    +0.000 A 
ATOM     27  H   UNL     1       2.547   3.433  16.764  0.00  0.00    +0.000 HD
ENDBRANCH   1  23
TORSDOF 1
ENDMDL
MODEL 8
REMARK VINA RESULT:      -7.6      8.950     11.582
REMARK  Name = 
REMARK  3 active torsions:
REMARK  status: ('A' for Active; 'I' for Inactive)
REMARK    1  A    between atoms: C_1  and  C_2
REMARK    2  A    between atoms: C_2  and  C_3
REMARK    3  A    between atoms: C_9  and  C_10
REMARK                            x       y       z     vdW  Elec       q    Type
REMARK                         _______ _______ _______ _____ _____    ______ ____
ROOT
ATOM      1  C   UNL     1       8.282  17.400  18.380  0.00  0.00    +0.000 C 
ATOM      2  O   UNL     1       8.327  18.603  18.163  0.00  0.00    +0.000 OA
ATOM      3  N   UNL     1       9.403  16.553  18.286  0.00  0.00    +0.000 N 
ATOM      4  C   UNL     1      10.620  17.227  17.859  0.00  0.00    +0.000 C 
ATOM      5  C   UNL     1      11.814  16.372  17.438  0.00  0.00    +0.000 C 
ATOM      6  O   UNL     1      11.548  15.113  16.838  0.00  0.00    +0.000 OA
ATOM      7  C   UNL     1      11.098  14.080  17.610  0.00  0.00    +0.000 A 
ATOM      8  C   UNL     1      11.606  12.824  17.225  0.00  0.00    +0.000 A 
ATOM      9  C   UNL     1      11.098  11.637  17.753  0.00  0.00    +0.000 A 
ATOM     10  C   UNL     1      10.057  11.697  18.664  0.00  0.00    +0.000 A 
ATOM     11  C   UNL     1       9.582  12.941  19.075  0.00  0.00    +0.000 A 
ATOM     12  F   UNL     1       8.575  12.959  19.963  0.00  0.00    +0.000 F 
ATOM     13  C   UNL     1      10.097  14.157  18.580  0.00  0.00    +0.000 A 
ATOM     14  C   UNL     1       9.578  15.427  19.196  0.00  0.00    +0.000 C 
ENDROOT
BRANCH   1  23
ATOM     15  C   UNL     1       3.237  14.167  20.981  0.00  0.00    +0.000 C 
ATOM     16  C   UNL     1       3.252  14.942  19.664  0.00  0.00    +0.000 C 
ATOM     17  C   UNL     1       2.011  15.817  19.506  0.00  0.00    +0.000 C 
ATOM     18  C   UNL     1       3.347  13.944  18.482  0.00  0.00    +0.000 C 
ATOM     19  O   UNL     1       2.543  13.074  18.186  0.00  0.00    +0.000 OA
ATOM     20  N   UNL     1       4.522  14.218  17.798  0.00  0.00    +0.000 N 
ATOM     21  C   UNL     1       5.216  15.263  18.377  0.00  0.00    +0.000 A 
ATOM     22  C   UNL     1       6.416  15.787  17.959  0.00  0.00    +0.000 A 
ATOM     23  C   UNL     1       6.957  16.819  18.733  0.00  0.00    +0.000 A 
ATOM     24  C   UNL     1       6.258  17.343  19.840  0.00  0.00    +0.000 A 
ATOM     25  C   UNL     1       5.026  16.804  20.228  0.00  0.00    +0.000 A 
ATOM     26  C   UNL     1       4.525  15.741  19.491  0.00  0.00    +0.000 A 
ATOM     27  H   UNL     1       4.817  13.692  16.982  0.00  0.00    +0.000 HD
ENDBRANCH   1  23
TORSDOF 1
ENDMDL
MODEL 9
REMARK VINA RESULT:      -7.6      2.742      7.763
REMARK  Name = 
REMARK  3 active torsions:
REMARK  status: ('A' for Active; 'I' for Inactive)
REMARK    1  A    between atoms: C_1  and  C_2
REMARK    2  A    between atoms: C_2  and  C_3
REMARK    3  A    between atoms: C_9  and  C_10
REMARK                            x       y       z     vdW  Elec       q    Type
REMARK                         _______ _______ _______ _____ _____    ______ ____
ROOT
ATOM      1  C   UNL     1       3.586   7.337  17.351  0.00  0.00    +0.000 C 
ATOM      2  O   UNL     1       4.213   7.779  16.399  0.00  0.00    +0.000 OA
ATOM      3  N   UNL     1       3.649   5.992  17.763  0.00  0.00    +0.000 N 
ATOM      4  C   UNL     1       4.493   5.154  16.924  0.00  0.00    +0.000 C 
ATOM      5  C   UNL     1       4.406   3.639  17.089  0.00  0.00    +0.000 C 
ATOM      6  O   UNL     1       3.157   3.086  17.477  0.00  0.00    +0.000 OA
ATOM      7  C   UNL     1       2.722   3.238  18.763  0.00  0.00    +0.000 A 
ATOM      8  C   UNL     1       2.030   2.117  19.262  0.00  0.00    +0.000 A 
ATOM      9  C   UNL     1       1.331   2.167  20.468  0.00  0.00    +0.000 A 
ATOM     10  C   UNL     1       1.304   3.353  21.182  0.00  0.00    +0.000 A 
ATOM     11  C   UNL     1       2.022   4.450  20.708  0.00  0.00    +0.000 A 
ATOM     12  F   UNL     1       1.975   5.580  21.430  0.00  0.00    +0.000 F 
ATOM     13  C   UNL     1       2.761   4.418  19.507  0.00  0.00    +0.000 A 
ATOM     14  C   UNL     1       3.587   5.630  19.174  0.00  0.00    +0.000 C 
ENDROOT
BRANCH   1  23
ATOM     15  C   UNL     1      -1.391  10.731  19.879  0.00  0.00    +0.000 C 
ATOM     16  C   UNL     1       0.094  11.083  19.953  0.00  0.00    +0.000 C 
ATOM     17  C   UNL     1       0.503  11.528  21.355  0.00  0.00    +0.000 C 
ATOM     18  C   UNL     1       0.408  12.206  18.931  0.00  0.00    +0.000 C 
ATOM     19  O   UNL     1      -0.059  13.335  18.911  0.00  0.00    +0.000 OA
ATOM     20  N   UNL     1       1.333  11.704  18.030  0.00  0.00    +0.000 N 
ATOM     21  C   UNL     1       1.668  10.395  18.320  0.00  0.00    +0.000 A 
ATOM     22  C   UNL     1       2.549   9.597  17.628  0.00  0.00    +0.000 A 
ATOM     23  C   UNL     1       2.695   8.282  18.081  0.00  0.00    +0.000 A 
ATOM     24  C   UNL     1       2.030   7.830  19.239  0.00  0.00    +0.000 A 
ATOM     25  C   UNL     1       1.156   8.675  19.936  0.00  0.00    +0.000 A 
ATOM     26  C   UNL     1       0.970   9.958  19.446  0.00  0.00    +0.000 A 
ATOM     27  H   UNL     1       1.694  12.249  17.255  0.00  0.00    +0.000 HD
ENDBRANCH   1  23
TORSDOF 1
ENDMDL
