MODEL 1
REMARK VINA RESULT:      -8.4      0.000      0.000
REMARK  Name = 
REMARK  5 active torsions:
REMARK  status: ('A' for Active; 'I' for Inactive)
REMARK    1  A    between atoms: C_1  and  N_2
REMARK    2  A    between atoms: C_6  and  C_7
REMARK    3  A    between atoms: C_11  and  N_12
REMARK    4  A    between atoms: C_13  and  C_15
REMARK    5  A    between atoms: C_18  and  C_19
REMARK                            x       y       z     vdW  Elec       q    Type
REMARK                         _______ _______ _______ _____ _____    ______ ____
ROOT
ATOM      1  N   UNL     1       1.745   6.861  20.739  0.00  0.00    +0.000 N 
ATOM      2  C   UNL     1       1.521   8.109  20.170  0.00  0.00    +0.000 C 
ATOM      3  O   UNL     1       1.769   8.392  19.004  0.00  0.00    +0.000 OA
ATOM      4  H   UNL     1       1.398   6.745  21.684  0.00  0.00    +0.000 HD
ENDROOT
BRANCH   1   9
ATOM      5  C   UNL     1       4.168   4.677  18.972  0.00  0.00    +0.000 A 
ATOM      6  C   UNL     1       3.457   3.469  18.945  0.00  0.00    +0.000 A 
ATOM      7  C   UNL     1       2.161   3.386  19.448  0.00  0.00    +0.000 A 
ATOM      8  C   UNL     1       1.562   4.507  20.018  0.00  0.00    +0.000 A 
ATOM      9  C   UNL     1       2.260   5.711  20.104  0.00  0.00    +0.000 A 
ATOM     10  C   UNL     1       3.553   5.795  19.558  0.00  0.00    +0.000 A 
BRANCH   5  16
ATOM     11  C   UNL     1       5.153   4.616  15.932  0.00  0.00    +0.000 C 
ATOM     12  N   UNL     1       5.948   4.653  17.128  0.00  0.00    +0.000 N 
ATOM     13  C   UNL     1       7.310   4.581  17.150  0.00  0.00    +0.000 A 
ATOM     14  N   UNL     1       7.733   4.590  18.388  0.00  0.00    +0.000 NA
ATOM     15  N   UNL     1       6.625   4.647  19.196  0.00  0.00    +0.000 NA
ATOM     16  C   UNL     1       5.536   4.683  18.441  0.00  0.00    +0.000 A 
ENDBRANCH   5  16
ENDBRANCH   1   9
BRANCH   2  17
ATOM     17  C   UNL     1       0.907   9.079  21.057  0.00  0.00    +0.000 A 
ATOM     18  C   UNL     1       1.045   9.161  22.427  0.00  0.00    +0.000 A 
ATOM     19  N   UNL     1       0.359  10.191  23.040  0.00  0.00    +0.000 NA
ATOM     20  C   UNL     1      -0.279  10.919  22.140  0.00  0.00    +0.000 A 
ATOM     21  S   UNL     1      -0.119  10.336  20.519  0.00  0.00    +0.000 S 
BRANCH  20  22
ATOM     22  C   UNL     1      -1.092  12.123  22.393  0.00  0.00    +0.000 A 
ATOM     23  N   UNL     1      -0.628  13.006  23.305  0.00  0.00    +0.000 NA
ATOM     24  C   UNL     1      -1.385  14.097  23.513  0.00  0.00    +0.000 A 
ATOM     25  C   UNL     1      -2.561  14.341  22.845  0.00  0.00    +0.000 A 
ATOM     26  C   UNL     1      -2.945  13.381  21.938  0.00  0.00    +0.000 A 
ATOM     27  N   UNL     1      -2.234  12.263  21.693  0.00  0.00    +0.000 NA
ENDBRANCH  20  22
ENDBRANCH   2  17
TORSDOF 4
ENDMDL
MODEL 2
REMARK VINA RESULT:      -7.8      1.848      2.645
REMARK  Name = 
REMARK  5 active torsions:
REMARK  status: ('A' for Active; 'I' for Inactive)
REMARK    1  A    between atoms: C_1  and  N_2
REMARK    2  A    between atoms: C_6  and  C_7
REMARK    3  A    between atoms: C_11  and  N_12
REMARK    4  A    between atoms: C_13  and  C_15
REMARK    5  A    between atoms: C_18  and  C_19
REMARK                            x       y       z     vdW  Elec       q    Type
REMARK                         _______ _______ _______ _____ _____    ______ ____
ROOT
ATOM      1  N   UNL     1       1.608   8.369  20.241  0.00  0.00    +0.000 N 
ATOM      2  C   UNL     1       0.788   9.454  19.950  0.00  0.00    +0.000 C 
ATOM      3  O   UNL     1       0.622   9.913  18.826  0.00  0.00    +0.000 OA
ATOM      4  H   UNL     1       1.569   8.039  21.198  0.00  0.00    +0.000 HD
ENDROOT
BRANCH   1   9
ATOM      5  C   UNL     1       3.379   5.428  18.835  0.00  0.00    +0.000 A 
ATOM      6  C   UNL     1       3.726   5.916  17.567  0.00  0.00    +0.000 A 
ATOM      7  C   UNL     1       3.436   7.228  17.198  0.00  0.00    +0.000 A 
ATOM      8  C   UNL     1       2.764   8.068  18.081  0.00  0.00    +0.000 A 
ATOM      9  C   UNL     1       2.362   7.598  19.331  0.00  0.00    +0.000 A 
ATOM     10  C   UNL     1       2.692   6.285  19.709  0.00  0.00    +0.000 A 
BRANCH   5  16
ATOM     11  C   UNL     1       1.490   2.853  18.708  0.00  0.00    +0.000 C 
ATOM     12  N   UNL     1       2.874   2.929  19.090  0.00  0.00    +0.000 N 
ATOM     13  C   UNL     1       3.601   1.874  19.557  0.00  0.00    +0.000 A 
ATOM     14  N   UNL     1       4.810   2.274  19.864  0.00  0.00    +0.000 NA
ATOM     15  N   UNL     1       4.868   3.622  19.614  0.00  0.00    +0.000 NA
ATOM     16  C   UNL     1       3.698   4.030  19.145  0.00  0.00    +0.000 A 
ENDBRANCH   5  16
ENDBRANCH   1   9
BRANCH   2  17
ATOM     17  C   UNL     1       0.076   9.999  21.090  0.00  0.00    +0.000 A 
ATOM     18  C   UNL     1       0.053   9.500  22.376  0.00  0.00    +0.000 A 
ATOM     19  N   UNL     1      -0.699  10.217  23.285  0.00  0.00    +0.000 NA
ATOM     20  C   UNL     1      -1.228  11.281  22.709  0.00  0.00    +0.000 A 
ATOM     21  S   UNL     1      -0.880  11.414  21.019  0.00  0.00    +0.000 S 
BRANCH  20  22
ATOM     22  C   UNL     1      -2.064  12.312  23.353  0.00  0.00    +0.000 A 
ATOM     23  N   UNL     1      -1.511  13.530  23.546  0.00  0.00    +0.000 NA
ATOM     24  C   UNL     1      -2.296  14.452  24.130  0.00  0.00    +0.000 A 
ATOM     25  C   UNL     1      -3.594  14.209  24.510  0.00  0.00    +0.000 A 
ATOM     26  C   UNL     1      -4.061  12.938  24.270  0.00  0.00    +0.000 A 
ATOM     27  N   UNL     1      -3.321  11.970  23.696  0.00  0.00    +0.000 NA
ENDBRANCH  20  22
ENDBRANCH   2  17
TORSDOF 4
ENDMDL
MODEL 3
REMARK VINA RESULT:      -7.7      2.540      3.929
REMARK  Name = 
REMARK  5 active torsions:
REMARK  status: ('A' for Active; 'I' for Inactive)
REMARK    1  A    between atoms: C_1  and  N_2
REMARK    2  A    between atoms: C_6  and  C_7
REMARK    3  A    between atoms: C_11  and  N_12
REMARK    4  A    between atoms: C_13  and  C_15
REMARK    5  A    between atoms: C_18  and  C_19
REMARK                            x       y       z     vdW  Elec       q    Type
REMARK                         _______ _______ _______ _____ _____    ______ ____
ROOT
ATOM      1  N   UNL     1       4.313   7.044  18.051  0.00  0.00    +0.000 N 
ATOM      2  C   UNL     1       2.960   6.765  18.199  0.00  0.00    +0.000 C 
ATOM      3  O   UNL     1       2.451   5.671  17.984  0.00  0.00    +0.000 OA
ATOM      4  H   UNL     1       4.605   7.963  18.361  0.00  0.00    +0.000 HD
ENDROOT
BRANCH   1   9
ATOM      5  C   UNL     1       6.678   5.250  15.825  0.00  0.00    +0.000 A 
ATOM      6  C   UNL     1       7.424   4.528  16.768  0.00  0.00    +0.000 A 
ATOM      7  C   UNL     1       7.112   4.580  18.124  0.00  0.00    +0.000 A 
ATOM      8  C   UNL     1       6.064   5.382  18.568  0.00  0.00    +0.000 A 
ATOM      9  C   UNL     1       5.333   6.150  17.662  0.00  0.00    +0.000 A 
ATOM     10  C   UNL     1       5.631   6.061  16.291  0.00  0.00    +0.000 A 
BRANCH   5  16
ATOM     11  C   UNL     1       5.379   3.531  13.464  0.00  0.00    +0.000 C 
ATOM     12  N   UNL     1       6.512   4.414  13.408  0.00  0.00    +0.000 N 
ATOM     13  C   UNL     1       7.291   4.597  12.304  0.00  0.00    +0.000 A 
ATOM     14  N   UNL     1       8.268   5.422  12.585  0.00  0.00    +0.000 NA
ATOM     15  N   UNL     1       8.139   5.769  13.906  0.00  0.00    +0.000 NA
ATOM     16  C   UNL     1       7.078   5.162  14.416  0.00  0.00    +0.000 A 
ENDBRANCH   5  16
ENDBRANCH   1   9
BRANCH   2  17
ATOM     17  C   UNL     1       2.161   7.873  18.689  0.00  0.00    +0.000 A 
ATOM     18  C   UNL     1       1.716   8.962  17.970  0.00  0.00    +0.000 A 
ATOM     19  N   UNL     1       0.959   9.878  18.674  0.00  0.00    +0.000 NA
ATOM     20  C   UNL     1       0.796   9.479  19.922  0.00  0.00    +0.000 A 
ATOM     21  S   UNL     1       1.613   8.002  20.303  0.00  0.00    +0.000 S 
BRANCH  20  22
ATOM     22  C   UNL     1       0.022  10.162  20.975  0.00  0.00    +0.000 A 
ATOM     23  N   UNL     1      -0.057   9.557  22.181  0.00  0.00    +0.000 NA
ATOM     24  C   UNL     1      -0.764  10.203  23.124  0.00  0.00    +0.000 A 
ATOM     25  C   UNL     1      -1.374  11.417  22.914  0.00  0.00    +0.000 A 
ATOM     26  C   UNL     1      -1.234  11.947  21.653  0.00  0.00    +0.000 A 
ATOM     27  N   UNL     1      -0.546  11.343  20.665  0.00  0.00    +0.000 NA
ENDBRANCH  20  22
ENDBRANCH   2  17
TORSDOF 4
ENDMDL
MODEL 4
REMARK VINA RESULT:      -7.7      1.188      1.589
REMARK  Name = 
REMARK  5 active torsions:
REMARK  status: ('A' for Active; 'I' for Inactive)
REMARK    1  A    between atoms: C_1  and  N_2
REMARK    2  A    between atoms: C_6  and  C_7
REMARK    3  A    between atoms: C_11  and  N_12
REMARK    4  A    between atoms: C_13  and  C_15
REMARK    5  A    between atoms: C_18  and  C_19
REMARK                            x       y       z     vdW  Elec       q    Type
REMARK                         _______ _______ _______ _____ _____    ______ ____
ROOT
ATOM      1  N   UNL     1       1.897   7.640  20.135  0.00  0.00    +0.000 N 
ATOM      2  C   UNL     1       1.602   8.574  19.148  0.00  0.00    +0.000 C 
ATOM      3  O   UNL     1       1.811   8.406  17.953  0.00  0.00    +0.000 OA
ATOM      4  H   UNL     1       1.576   7.875  21.067  0.00  0.00    +0.000 HD
ENDROOT
BRANCH   1   9
ATOM      5  C   UNL     1       4.365   5.037  19.187  0.00  0.00    +0.000 A 
ATOM      6  C   UNL     1       3.728   3.887  19.675  0.00  0.00    +0.000 A 
ATOM      7  C   UNL     1       2.464   3.956  20.255  0.00  0.00    +0.000 A 
ATOM      8  C   UNL     1       1.825   5.186  20.388  0.00  0.00    +0.000 A 
ATOM      9  C   UNL     1       2.451   6.354  19.958  0.00  0.00    +0.000 A 
ATOM     10  C   UNL     1       3.710   6.270  19.339  0.00  0.00    +0.000 A 
BRANCH   5  16
ATOM     11  C   UNL     1       5.194   4.279  16.195  0.00  0.00    +0.000 C 
ATOM     12  N   UNL     1       6.049   4.559  17.316  0.00  0.00    +0.000 N 
ATOM     13  C   UNL     1       7.409   4.459  17.290  0.00  0.00    +0.000 A 
ATOM     14  N   UNL     1       7.894   4.730  18.475  0.00  0.00    +0.000 NA
ATOM     15  N   UNL     1       6.829   4.993  19.300  0.00  0.00    +0.000 NA
ATOM     16  C   UNL     1       5.704   4.890  18.607  0.00  0.00    +0.000 A 
ENDBRANCH   5  16
ENDBRANCH   1   9
BRANCH   2  17
ATOM     17  C   UNL     1       0.963   9.784  19.629  0.00  0.00    +0.000 A 
ATOM     18  C   UNL     1       0.724  10.941  18.916  0.00  0.00    +0.000 A 
ATOM     19  N   UNL     1       0.085  11.951  19.607  0.00  0.00    +0.000 NA
ATOM     20  C   UNL     1      -0.195  11.562  20.839  0.00  0.00    +0.000 A 
ATOM     21  S   UNL     1       0.368   9.971  21.220  0.00  0.00    +0.000 S 
BRANCH  20  22
ATOM     22  C   UNL     1      -0.901  12.341  21.873  0.00  0.00    +0.000 A 
ATOM     23  N   UNL     1      -2.097  11.872  22.296  0.00  0.00    +0.000 NA
ATOM     24  C   UNL     1      -2.717  12.597  23.242  0.00  0.00    +0.000 A 
ATOM     25  C   UNL     1      -2.192  13.747  23.780  0.00  0.00    +0.000 A 
ATOM     26  C   UNL     1      -0.971  14.139  23.281  0.00  0.00    +0.000 A 
ATOM     27  N   UNL     1      -0.305  13.459  22.328  0.00  0.00    +0.000 NA
ENDBRANCH  20  22
ENDBRANCH   2  17
TORSDOF 4
ENDMDL
MODEL 5
REMARK VINA RESULT:      -7.6      2.606      4.242
REMARK  Name = 
REMARK  5 active torsions:
REMARK  status: ('A' for Active; 'I' for Inactive)
REMARK    1  A    between atoms: C_1  and  N_2
REMARK    2  A    between atoms: C_6  and  C_7
REMARK    3  A    between atoms: C_11  and  N_12
REMARK    4  A    between atoms: C_13  and  C_15
REMARK    5  A    between atoms: C_18  and  C_19
REMARK                            x       y       z     vdW  Elec       q    Type
REMARK                         _______ _______ _______ _____ _____    ______ ____
ROOT
ATOM      1  N   UNL     1       4.387   6.919  17.765  0.00  0.00    +0.000 N 
ATOM      2  C   UNL     1       3.083   6.599  18.124  0.00  0.00    +0.000 C 
ATOM      3  O   UNL     1       2.614   5.468  18.091  0.00  0.00    +0.000 OA
ATOM      4  H   UNL     1       4.664   7.878  17.940  0.00  0.00    +0.000 HD
ENDROOT
BRANCH   1   9
ATOM      5  C   UNL     1       6.342   4.759  15.468  0.00  0.00    +0.000 A 
ATOM      6  C   UNL     1       7.408   4.392  16.302  0.00  0.00    +0.000 A 
ATOM      7  C   UNL     1       7.453   4.800  17.633  0.00  0.00    +0.000 A 
ATOM      8  C   UNL     1       6.445   5.610  18.148  0.00  0.00    +0.000 A 
ATOM      9  C   UNL     1       5.396   6.033  17.332  0.00  0.00    +0.000 A 
ATOM     10  C   UNL     1       5.339   5.585  16.000  0.00  0.00    +0.000 A 
BRANCH   5  16
ATOM     11  C   UNL     1       8.301   5.650  13.106  0.00  0.00    +0.000 C 
ATOM     12  N   UNL     1       7.221   4.704  13.062  0.00  0.00    +0.000 N 
ATOM     13  C   UNL     1       6.796   4.074  11.929  0.00  0.00    +0.000 A 
ATOM     14  N   UNL     1       5.767   3.314  12.207  0.00  0.00    +0.000 NA
ATOM     15  N   UNL     1       5.498   3.466  13.543  0.00  0.00    +0.000 NA
ATOM     16  C   UNL     1       6.373   4.310  14.072  0.00  0.00    +0.000 A 
ENDBRANCH   5  16
ENDBRANCH   1   9
BRANCH   2  17
ATOM     17  C   UNL     1       2.294   7.718  18.606  0.00  0.00    +0.000 A 
ATOM     18  C   UNL     1       1.846   8.798  17.875  0.00  0.00    +0.000 A 
ATOM     19  N   UNL     1       1.100   9.728  18.572  0.00  0.00    +0.000 NA
ATOM     20  C   UNL     1       0.947   9.348  19.828  0.00  0.00    +0.000 A 
ATOM     21  S   UNL     1       1.763   7.874  20.223  0.00  0.00    +0.000 S 
BRANCH  20  22
ATOM     22  C   UNL     1       0.187  10.050  20.878  0.00  0.00    +0.000 A 
ATOM     23  N   UNL     1       0.049   9.426  22.069  0.00  0.00    +0.000 NA
ATOM     24  C   UNL     1      -0.644  10.090  23.010  0.00  0.00    +0.000 A 
ATOM     25  C   UNL     1      -1.184  11.338  22.813  0.00  0.00    +0.000 A 
ATOM     26  C   UNL     1      -0.987  11.886  21.567  0.00  0.00    +0.000 A 
ATOM     27  N   UNL     1      -0.310  11.266  20.581  0.00  0.00    +0.000 NA
ENDBRANCH  20  22
ENDBRANCH   2  17
TORSDOF 4
ENDMDL
MODEL 6
REMARK VINA RESULT:      -7.6      1.000      1.532
REMARK  Name = 
REMARK  5 active torsions:
REMARK  status: ('A' for Active; 'I' for Inactive)
REMARK    1  A    between atoms: C_1  and  N_2
REMARK    2  A    between atoms: C_6  and  C_7
REMARK    3  A    between atoms: C_11  and  N_12
REMARK    4  A    between atoms: C_13  and  C_15
REMARK    5  A    between atoms: C_18  and  C_19
REMARK                            x       y       z     vdW  Elec       q    Type
REMARK                         _______ _______ _______ _____ _____    ______ ____
ROOT
ATOM      1  N   UNL     1       1.789   6.437  20.984  0.00  0.00    +0.000 N 
ATOM      2  C   UNL     1       1.754   7.679  20.361  0.00  0.00    +0.000 C 
ATOM      3  O   UNL     1       2.230   7.912  19.257  0.00  0.00    +0.000 OA
ATOM      4  H   UNL     1       1.268   6.369  21.850  0.00  0.00    +0.000 HD
ENDROOT
BRANCH   1   9
ATOM      5  C   UNL     1       3.996   4.214  18.997  0.00  0.00    +0.000 A 
ATOM      6  C   UNL     1       3.612   2.958  19.490  0.00  0.00    +0.000 A 
ATOM      7  C   UNL     1       2.586   2.836  20.425  0.00  0.00    +0.000 A 
ATOM      8  C   UNL     1       1.947   3.975  20.909  0.00  0.00    +0.000 A 
ATOM      9  C   UNL     1       2.338   5.240  20.476  0.00  0.00    +0.000 A 
ATOM     10  C   UNL     1       3.348   5.351  19.503  0.00  0.00    +0.000 A 
BRANCH   5  16
ATOM     11  C   UNL     1       6.918   5.465  19.331  0.00  0.00    +0.000 C 
ATOM     12  N   UNL     1       6.352   4.811  18.184  0.00  0.00    +0.000 N 
ATOM     13  C   UNL     1       6.979   4.693  16.978  0.00  0.00    +0.000 A 
ATOM     14  N   UNL     1       6.187   4.093  16.126  0.00  0.00    +0.000 NA
ATOM     15  N   UNL     1       5.009   3.832  16.779  0.00  0.00    +0.000 NA
ATOM     16  C   UNL     1       5.097   4.265  18.028  0.00  0.00    +0.000 A 
ENDBRANCH   5  16
ENDBRANCH   1   9
BRANCH   2  17
ATOM     17  C   UNL     1       1.050   8.709  21.101  0.00  0.00    +0.000 A 
ATOM     18  C   UNL     1       1.265   9.090  22.410  0.00  0.00    +0.000 A 
ATOM     19  N   UNL     1       0.462  10.112  22.878  0.00  0.00    +0.000 NA
ATOM     20  C   UNL     1      -0.346  10.537  21.923  0.00  0.00    +0.000 A 
ATOM     21  S   UNL     1      -0.202   9.663  20.437  0.00  0.00    +0.000 S 
BRANCH  20  22
ATOM     22  C   UNL     1      -1.326  11.634  22.019  0.00  0.00    +0.000 A 
ATOM     23  N   UNL     1      -1.503  12.408  20.924  0.00  0.00    +0.000 NA
ATOM     24  C   UNL     1      -2.405  13.397  21.036  0.00  0.00    +0.000 A 
ATOM     25  C   UNL     1      -3.135  13.631  22.177  0.00  0.00    +0.000 A 
ATOM     26  C   UNL     1      -2.880  12.788  23.234  0.00  0.00    +0.000 A 
ATOM     27  N   UNL     1      -1.983  11.785  23.185  0.00  0.00    +0.000 NA
ENDBRANCH  20  22
ENDBRANCH   2  17
TORSDOF 4
ENDMDL
MODEL 7
REMARK VINA RESULT:      -7.6      3.447     10.208
REMARK  Name = 
REMARK  5 active torsions:
REMARK  status: ('A' for Active; 'I' for Inactive)
REMARK    1  A    between atoms: C_1  and  N_2
REMARK    2  A    between atoms: C_6  and  C_7
REMARK    3  A    between atoms: C_11  and  N_12
REMARK    4  A    between atoms: C_13  and  C_15
REMARK    5  A    between atoms: C_18  and  C_19
REMARK                            x       y       z     vdW  Elec       q    Type
REMARK                         _______ _______ _______ _____ _____    ______ ____
ROOT
ATOM      1  N   UNL     1       2.914   6.976  18.260  0.00  0.00    +0.000 N 
ATOM      2  C   UNL     1       3.810   5.983  18.639  0.00  0.00    +0.000 C 
ATOM      3  O   UNL     1       4.062   5.684  19.799  0.00  0.00    +0.000 OA
ATOM      4  H   UNL     1       2.732   7.043  17.266  0.00  0.00    +0.000 HD
ENDROOT
BRANCH   1   9
ATOM      5  C   UNL     1       0.738   9.791  19.312  0.00  0.00    +0.000 A 
ATOM      6  C   UNL     1       0.444   9.413  20.630  0.00  0.00    +0.000 A 
ATOM      7  C   UNL     1       1.009   8.271  21.194  0.00  0.00    +0.000 A 
ATOM      8  C   UNL     1       1.857   7.467  20.436  0.00  0.00    +0.000 A 
ATOM      9  C   UNL     1       2.131   7.789  19.108  0.00  0.00    +0.000 A 
ATOM     10  C   UNL     1       1.586   8.963  18.560  0.00  0.00    +0.000 A 
BRANCH   5  16
ATOM     11  C   UNL     1       1.755  12.821  19.369  0.00  0.00    +0.000 C 
ATOM     12  N   UNL     1       0.537  12.297  18.814  0.00  0.00    +0.000 N 
ATOM     13  C   UNL     1      -0.455  13.062  18.274  0.00  0.00    +0.000 A 
ATOM     14  N   UNL     1      -1.450  12.297  17.903  0.00  0.00    +0.000 NA
ATOM     15  N   UNL     1      -1.113  11.007  18.224  0.00  0.00    +0.000 NA
ATOM     16  C   UNL     1       0.090  10.995  18.780  0.00  0.00    +0.000 A 
ENDBRANCH   5  16
ENDBRANCH   1   9
BRANCH   2  17
ATOM     17  C   UNL     1       4.415   5.259  17.536  0.00  0.00    +0.000 A 
ATOM     18  C   UNL     1       4.422   3.894  17.339  0.00  0.00    +0.000 A 
ATOM     19  N   UNL     1       5.061   3.455  16.196  0.00  0.00    +0.000 NA
ATOM     20  C   UNL     1       5.515   4.481  15.499  0.00  0.00    +0.000 A 
ATOM     21  S   UNL     1       5.238   6.018  16.244  0.00  0.00    +0.000 S 
BRANCH  20  22
ATOM     22  C   UNL     1       6.221   4.428  14.205  0.00  0.00    +0.000 A 
ATOM     23  N   UNL     1       5.804   3.509  13.306  0.00  0.00    +0.000 NA
ATOM     24  C   UNL     1       6.461   3.485  12.134  0.00  0.00    +0.000 A 
ATOM     25  C   UNL     1       7.493   4.339  11.827  0.00  0.00    +0.000 A 
ATOM     26  C   UNL     1       7.840   5.236  12.810  0.00  0.00    +0.000 A 
ATOM     27  N   UNL     1       7.226   5.303  14.006  0.00  0.00    +0.000 NA
ENDBRANCH  20  22
ENDBRANCH   2  17
TORSDOF 4
ENDMDL
MODEL 8
REMARK VINA RESULT:      -7.5      2.167      3.002
REMARK  Name = 
REMARK  5 active torsions:
REMARK  status: ('A' for Active; 'I' for Inactive)
REMARK    1  A    between atoms: C_1  and  N_2
REMARK    2  A    between atoms: C_6  and  C_7
REMARK    3  A    between atoms: C_11  and  N_12
REMARK    4  A    between atoms: C_13  and  C_15
REMARK    5  A    between atoms: C_18  and  C_19
REMARK                            x       y       z     vdW  Elec       q    Type
REMARK                         _______ _______ _______ _____ _____    ______ ____
ROOT
ATOM      1  N   UNL     1       1.569   8.415  20.145  0.00  0.00    +0.000 N 
ATOM      2  C   UNL     1       0.709   9.471  19.868  0.00  0.00    +0.000 C 
ATOM      3  O   UNL     1       0.471   9.893  18.744  0.00  0.00    +0.000 OA
ATOM      4  H   UNL     1       1.590   8.112  21.111  0.00  0.00    +0.000 HD
ENDROOT
BRANCH   1   9
ATOM      5  C   UNL     1       2.777   5.393  18.364  0.00  0.00    +0.000 A 
ATOM      6  C   UNL     1       3.549   5.980  17.351  0.00  0.00    +0.000 A 
ATOM      7  C   UNL     1       3.726   7.360  17.291  0.00  0.00    +0.000 A 
ATOM      8  C   UNL     1       3.105   8.183  18.227  0.00  0.00    +0.000 A 
ATOM      9  C   UNL     1       2.292   7.635  19.217  0.00  0.00    +0.000 A 
ATOM     10  C   UNL     1       2.150   6.238  19.293  0.00  0.00    +0.000 A 
BRANCH   5  16
ATOM     11  C   UNL     1       4.674   3.149  19.624  0.00  0.00    +0.000 C 
ATOM     12  N   UNL     1       3.446   2.977  18.896  0.00  0.00    +0.000 N 
ATOM     13  C   UNL     1       2.923   1.767  18.546  0.00  0.00    +0.000 A 
ATOM     14  N   UNL     1       1.829   1.944  17.850  0.00  0.00    +0.000 NA
ATOM     15  N   UNL     1       1.642   3.297  17.723  0.00  0.00    +0.000 NA
ATOM     16  C   UNL     1       2.620   3.934  18.352  0.00  0.00    +0.000 A 
ENDBRANCH   5  16
ENDBRANCH   1   9
BRANCH   2  17
ATOM     17  C   UNL     1       0.046  10.034  21.030  0.00  0.00    +0.000 A 
ATOM     18  C   UNL     1       0.124   9.587  22.333  0.00  0.00    +0.000 A 
ATOM     19  N   UNL     1      -0.600  10.309  23.261  0.00  0.00    +0.000 NA
ATOM     20  C   UNL     1      -1.207  11.328  22.679  0.00  0.00    +0.000 A 
ATOM     21  S   UNL     1      -0.971  11.406  20.967  0.00  0.00    +0.000 S 
BRANCH  20  22
ATOM     22  C   UNL     1      -2.044  12.349  23.335  0.00  0.00    +0.000 A 
ATOM     23  N   UNL     1      -1.494  13.568  23.538  0.00  0.00    +0.000 NA
ATOM     24  C   UNL     1      -2.280  14.482  24.133  0.00  0.00    +0.000 A 
ATOM     25  C   UNL     1      -3.576  14.232  24.515  0.00  0.00    +0.000 A 
ATOM     26  C   UNL     1      -4.040  12.961  24.264  0.00  0.00    +0.000 A 
ATOM     27  N   UNL     1      -3.299  12.001  23.680  0.00  0.00    +0.000 NA
ENDBRANCH  20  22
ENDBRANCH   2  17
TORSDOF 4
ENDMDL
MODEL 9
REMARK VINA RESULT:      -7.5      2.003      2.548
REMARK  Name = 
REMARK  5 active torsions:
REMARK  status: ('A' for Active; 'I' for Inactive)
REMARK    1  A    between atoms: C_1  and  N_2
REMARK    2  A    between atoms: C_6  and  C_7
REMARK    3  A    between atoms: C_11  and  N_12
REMARK    4  A    between atoms: C_13  and  C_15
REMARK    5  A    between atoms: C_18  and  C_19
REMARK                            x       y       z     vdW  Elec       q    Type
REMARK                         _______ _______ _______ _____ _____    ______ ____
ROOT
ATOM      1  N   UNL     1       2.131   7.005  18.993  0.00  0.00    +0.000 N 
ATOM      2  C   UNL     1       1.674   7.093  20.303  0.00  0.00    +0.000 C 
ATOM      3  O   UNL     1       1.575   6.140  21.066  0.00  0.00    +0.000 OA
ATOM      4  H   UNL     1       2.255   7.890  18.515  0.00  0.00    +0.000 HD
ENDROOT
BRANCH   1   9
ATOM      5  C   UNL     1       4.281   4.844  16.880  0.00  0.00    +0.000 A 
ATOM      6  C   UNL     1       3.645   3.605  17.045  0.00  0.00    +0.000 A 
ATOM      7  C   UNL     1       2.477   3.491  17.794  0.00  0.00    +0.000 A 
ATOM      8  C   UNL     1       1.940   4.612  18.422  0.00  0.00    +0.000 A 
ATOM      9  C   UNL     1       2.575   5.848  18.318  0.00  0.00    +0.000 A 
ATOM     10  C   UNL     1       3.732   5.961  17.528  0.00  0.00    +0.000 A 
BRANCH   5  16
ATOM     11  C   UNL     1       7.313   4.713  17.882  0.00  0.00    +0.000 C 
ATOM     12  N   UNL     1       6.821   4.829  16.537  0.00  0.00    +0.000 N 
ATOM     13  C   UNL     1       7.613   4.991  15.439  0.00  0.00    +0.000 A 
ATOM     14  N   UNL     1       6.867   5.115  14.371  0.00  0.00    +0.000 NA
ATOM     15  N   UNL     1       5.559   5.054  14.779  0.00  0.00    +0.000 NA
ATOM     16  C   UNL     1       5.519   4.883  16.093  0.00  0.00    +0.000 A 
ENDBRANCH   5  16
ENDBRANCH   1   9
BRANCH   2  17
ATOM     17  C   UNL     1       1.358   8.438  20.747  0.00  0.00    +0.000 A 
ATOM     18  C   UNL     1       1.403   8.923  22.038  0.00  0.00    +0.000 A 
ATOM     19  N   UNL     1       1.063  10.252  22.193  0.00  0.00    +0.000 NA
ATOM     20  C   UNL     1       0.788  10.797  21.021  0.00  0.00    +0.000 A 
ATOM     21  S   UNL     1       0.872   9.692  19.693  0.00  0.00    +0.000 S 
BRANCH  20  22
ATOM     22  C   UNL     1       0.419  12.201  20.765  0.00  0.00    +0.000 A 
ATOM     23  N   UNL     1      -0.402  12.447  19.719  0.00  0.00    +0.000 NA
ATOM     24  C   UNL     1      -0.727  13.734  19.510  0.00  0.00    +0.000 A 
ATOM     25  C   UNL     1      -0.281  14.766  20.301  0.00  0.00    +0.000 A 
ATOM     26  C   UNL     1       0.549  14.409  21.338  0.00  0.00    +0.000 A 
ATOM     27  N   UNL     1       0.917  13.139  21.593  0.00  0.00    +0.000 NA
ENDBRANCH  20  22
ENDBRANCH   2  17
TORSDOF 4
ENDMDL
