MODEL 1
REMARK VINA RESULT:      -8.8      0.000      0.000
REMARK  Name = 
REMARK  4 active torsions:
REMARK  status: ('A' for Active; 'I' for Inactive)
REMARK    1  A    between atoms: C_1  and  C_2
REMARK    2  A    between atoms: C_5  and  N_6
REMARK    3  A    between atoms: C_7  and  C_9
REMARK    4  A    between atoms: C_19  and  C_20
REMARK                            x       y       z     vdW  Elec       q    Type
REMARK                         _______ _______ _______ _____ _____    ______ ____
ROOT
ATOM      1  C   UNL     1       3.772   2.094  18.783  0.00  0.00    +0.000 C 
ATOM      2  C   UNL     1       3.219   3.421  19.230  0.00  0.00    +0.000 A 
ATOM      3  C   UNL     1       1.890   3.412  19.674  0.00  0.00    +0.000 A 
ATOM      4  C   UNL     1       1.290   4.564  20.167  0.00  0.00    +0.000 A 
ATOM      5  C   UNL     1       2.008   5.751  20.276  0.00  0.00    +0.000 A 
ATOM      6  C   UNL     1       3.326   5.786  19.799  0.00  0.00    +0.000 A 
ATOM      7  C   UNL     1       3.933   4.647  19.222  0.00  0.00    +0.000 A 
ENDROOT
BRANCH   7   8
ATOM      8  C   UNL     1       5.355   4.710  18.732  0.00  0.00    +0.000 C 
ATOM      9  O   UNL     1       6.246   4.429  19.535  0.00  0.00    +0.000 OA
ATOM     10  N   UNL     1       5.684   5.068  17.417  0.00  0.00    +0.000 N 
ATOM     11  C   UNL     1       4.779   5.464  16.332  0.00  0.00    +0.000 C 
ATOM     12  C   UNL     1       5.264   4.996  14.953  0.00  0.00    +0.000 C 
ATOM     13  O   UNL     1       6.638   5.325  14.719  0.00  0.00    +0.000 OA
ATOM     14  C   UNL     1       7.467   4.734  15.731  0.00  0.00    +0.000 C 
ATOM     15  C   UNL     1       7.105   5.294  17.106  0.00  0.00    +0.000 C 
ENDBRANCH   7   8
BRANCH   5  16
ATOM     16  N   UNL     1       1.453   6.907  20.871  0.00  0.00    +0.000 N 
ATOM     17  C   UNL     1       1.417   8.165  20.277  0.00  0.00    +0.000 C 
ATOM     18  O   UNL     1       1.849   8.448  19.165  0.00  0.00    +0.000 OA
ATOM     19  H   UNL     1       0.931   6.817  21.737  0.00  0.00    +0.000 HD
BRANCH  17  20
ATOM     20  C   UNL     1       0.729   9.239  21.058  0.00  0.00    +0.000 A 
ATOM     21  C   UNL     1       0.100   8.861  22.247  0.00  0.00    +0.000 A 
ATOM     22  C   UNL     1      -0.513   9.829  23.041  0.00  0.00    +0.000 A 
ATOM     23  C   UNL     1      -0.449  11.146  22.586  0.00  0.00    +0.000 A 
ATOM     24  N   UNL     1      -0.922  12.310  23.135  0.00  0.00    +0.000 NA
ATOM     25  C   UNL     1      -0.568  13.249  22.289  0.00  0.00    +0.000 A 
ATOM     26  N   UNL     1       0.098  12.744  21.206  0.00  0.00    +0.000 N 
ATOM     27  C   UNL     1       0.200  11.393  21.378  0.00  0.00    +0.000 A 
ATOM     28  N   UNL     1       0.813  10.516  20.556  0.00  0.00    +0.000 NA
ATOM     29  H   UNL     1       0.464  13.267  20.426  0.00  0.00    +0.000 HD
ENDBRANCH  17  20
ENDBRANCH   5  16
TORSDOF 3
ENDMDL
MODEL 2
REMARK VINA RESULT:      -8.3      1.455      1.949
REMARK  Name = 
REMARK  4 active torsions:
REMARK  status: ('A' for Active; 'I' for Inactive)
REMARK    1  A    between atoms: C_1  and  C_2
REMARK    2  A    between atoms: C_5  and  N_6
REMARK    3  A    between atoms: C_7  and  C_9
REMARK    4  A    between atoms: C_19  and  C_20
REMARK                            x       y       z     vdW  Elec       q    Type
REMARK                         _______ _______ _______ _____ _____    ______ ____
ROOT
ATOM      1  C   UNL     1       4.131   1.766  19.513  0.00  0.00    +0.000 C 
ATOM      2  C   UNL     1       3.397   3.065  19.720  0.00  0.00    +0.000 A 
ATOM      3  C   UNL     1       2.812   3.242  20.982  0.00  0.00    +0.000 A 
ATOM      4  C   UNL     1       2.160   4.424  21.309  0.00  0.00    +0.000 A 
ATOM      5  C   UNL     1       2.110   5.484  20.410  0.00  0.00    +0.000 A 
ATOM      6  C   UNL     1       2.656   5.307  19.131  0.00  0.00    +0.000 A 
ATOM      7  C   UNL     1       3.257   4.086  18.747  0.00  0.00    +0.000 A 
ENDROOT
BRANCH   7   8
ATOM      8  C   UNL     1       3.849   3.930  17.372  0.00  0.00    +0.000 C 
ATOM      9  O   UNL     1       3.164   3.364  16.518  0.00  0.00    +0.000 OA
ATOM     10  N   UNL     1       5.128   4.404  17.043  0.00  0.00    +0.000 N 
ATOM     11  C   UNL     1       6.100   5.069  17.918  0.00  0.00    +0.000 C 
ATOM     12  C   UNL     1       6.931   6.131  17.183  0.00  0.00    +0.000 C 
ATOM     13  O   UNL     1       7.486   5.637  15.959  0.00  0.00    +0.000 OA
ATOM     14  C   UNL     1       6.439   5.180  15.090  0.00  0.00    +0.000 C 
ATOM     15  C   UNL     1       5.684   4.018  15.736  0.00  0.00    +0.000 C 
ENDBRANCH   7   8
BRANCH   5  16
ATOM     16  N   UNL     1       1.545   6.733  20.758  0.00  0.00    +0.000 N 
ATOM     17  C   UNL     1       1.698   7.905  20.024  0.00  0.00    +0.000 C 
ATOM     18  O   UNL     1       2.331   8.022  18.980  0.00  0.00    +0.000 OA
ATOM     19  H   UNL     1       0.880   6.780  21.523  0.00  0.00    +0.000 HD
BRANCH  17  20
ATOM     20  C   UNL     1       0.967   9.102  20.541  0.00  0.00    +0.000 A 
ATOM     21  C   UNL     1       0.898  10.219  19.704  0.00  0.00    +0.000 A 
ATOM     22  C   UNL     1       0.186  11.346  20.113  0.00  0.00    +0.000 A 
ATOM     23  C   UNL     1      -0.433  11.276  21.361  0.00  0.00    +0.000 A 
ATOM     24  N   UNL     1      -1.211  12.187  22.029  0.00  0.00    +0.000 NA
ATOM     25  C   UNL     1      -1.535  11.591  23.153  0.00  0.00    +0.000 A 
ATOM     26  N   UNL     1      -0.986  10.342  23.253  0.00  0.00    +0.000 N 
ATOM     27  C   UNL     1      -0.281  10.109  22.106  0.00  0.00    +0.000 A 
ATOM     28  N   UNL     1       0.389   8.983  21.782  0.00  0.00    +0.000 NA
ATOM     29  H   UNL     1      -1.089   9.698  24.021  0.00  0.00    +0.000 HD
ENDBRANCH  17  20
ENDBRANCH   5  16
TORSDOF 3
ENDMDL
MODEL 3
REMARK VINA RESULT:      -8.3      0.880      1.349
REMARK  Name = 
REMARK  4 active torsions:
REMARK  status: ('A' for Active; 'I' for Inactive)
REMARK    1  A    between atoms: C_1  and  C_2
REMARK    2  A    between atoms: C_5  and  N_6
REMARK    3  A    between atoms: C_7  and  C_9
REMARK    4  A    between atoms: C_19  and  C_20
REMARK                            x       y       z     vdW  Elec       q    Type
REMARK                         _______ _______ _______ _____ _____    ______ ____
ROOT
ATOM      1  C   UNL     1       4.118   2.316  19.532  0.00  0.00    +0.000 C 
ATOM      2  C   UNL     1       3.491   3.672  19.728  0.00  0.00    +0.000 A 
ATOM      3  C   UNL     1       2.177   3.673  20.216  0.00  0.00    +0.000 A 
ATOM      4  C   UNL     1       1.517   4.863  20.493  0.00  0.00    +0.000 A 
ATOM      5  C   UNL     1       2.158   6.088  20.337  0.00  0.00    +0.000 A 
ATOM      6  C   UNL     1       3.457   6.104  19.813  0.00  0.00    +0.000 A 
ATOM      7  C   UNL     1       4.123   4.911  19.450  0.00  0.00    +0.000 A 
ENDROOT
BRANCH   7   8
ATOM      8  C   UNL     1       5.525   4.958  18.903  0.00  0.00    +0.000 C 
ATOM      9  O   UNL     1       6.450   4.749  19.690  0.00  0.00    +0.000 OA
ATOM     10  N   UNL     1       5.799   5.223  17.553  0.00  0.00    +0.000 N 
ATOM     11  C   UNL     1       4.848   5.526  16.478  0.00  0.00    +0.000 C 
ATOM     12  C   UNL     1       5.289   4.966  15.119  0.00  0.00    +0.000 C 
ATOM     13  O   UNL     1       6.648   5.296  14.810  0.00  0.00    +0.000 OA
ATOM     14  C   UNL     1       7.524   4.792  15.829  0.00  0.00    +0.000 C 
ATOM     15  C   UNL     1       7.203   5.446  17.173  0.00  0.00    +0.000 C 
ENDBRANCH   7   8
BRANCH   5  16
ATOM     16  N   UNL     1       1.544   7.305  20.712  0.00  0.00    +0.000 N 
ATOM     17  C   UNL     1       1.455   8.432  19.900  0.00  0.00    +0.000 C 
ATOM     18  O   UNL     1       1.885   8.528  18.755  0.00  0.00    +0.000 OA
ATOM     19  H   UNL     1       1.018   7.349  21.579  0.00  0.00    +0.000 HD
BRANCH  17  20
ATOM     20  C   UNL     1       0.711   9.596  20.472  0.00  0.00    +0.000 A 
ATOM     21  C   UNL     1       0.630  10.749  19.688  0.00  0.00    +0.000 A 
ATOM     22  C   UNL     1      -0.094  11.848  20.150  0.00  0.00    +0.000 A 
ATOM     23  C   UNL     1      -0.711  11.714  21.394  0.00  0.00    +0.000 A 
ATOM     24  N   UNL     1      -1.499  12.583  22.104  0.00  0.00    +0.000 NA
ATOM     25  C   UNL     1      -1.815  11.932  23.198  0.00  0.00    +0.000 A 
ATOM     26  N   UNL     1      -1.252  10.686  23.240  0.00  0.00    +0.000 N 
ATOM     27  C   UNL     1      -0.546  10.515  22.083  0.00  0.00    +0.000 A 
ATOM     28  N   UNL     1       0.136   9.413  21.706  0.00  0.00    +0.000 NA
ATOM     29  H   UNL     1      -1.347  10.006  23.977  0.00  0.00    +0.000 HD
ENDBRANCH  17  20
ENDBRANCH   5  16
TORSDOF 3
ENDMDL
MODEL 4
REMARK VINA RESULT:      -8.3      1.292      1.548
REMARK  Name = 
REMARK  4 active torsions:
REMARK  status: ('A' for Active; 'I' for Inactive)
REMARK    1  A    between atoms: C_1  and  C_2
REMARK    2  A    between atoms: C_5  and  N_6
REMARK    3  A    between atoms: C_7  and  C_9
REMARK    4  A    between atoms: C_19  and  C_20
REMARK                            x       y       z     vdW  Elec       q    Type
REMARK                         _______ _______ _______ _____ _____    ______ ____
ROOT
ATOM      1  C   UNL     1       4.159   1.712  19.369  0.00  0.00    +0.000 C 
ATOM      2  C   UNL     1       3.414   2.986  19.668  0.00  0.00    +0.000 A 
ATOM      3  C   UNL     1       2.880   3.093  20.960  0.00  0.00    +0.000 A 
ATOM      4  C   UNL     1       2.223   4.247  21.370  0.00  0.00    +0.000 A 
ATOM      5  C   UNL     1       2.117   5.346  20.524  0.00  0.00    +0.000 A 
ATOM      6  C   UNL     1       2.611   5.239  19.217  0.00  0.00    +0.000 A 
ATOM      7  C   UNL     1       3.215   4.049  18.751  0.00  0.00    +0.000 A 
ENDROOT
BRANCH   7   8
ATOM      8  C   UNL     1       3.750   3.968  17.346  0.00  0.00    +0.000 C 
ATOM      9  O   UNL     1       3.003   3.515  16.478  0.00  0.00    +0.000 OA
ATOM     10  N   UNL     1       5.045   4.387  17.007  0.00  0.00    +0.000 N 
ATOM     11  C   UNL     1       6.087   4.918  17.894  0.00  0.00    +0.000 C 
ATOM     12  C   UNL     1       6.959   5.982  17.214  0.00  0.00    +0.000 C 
ATOM     13  O   UNL     1       7.441   5.555  15.935  0.00  0.00    +0.000 OA
ATOM     14  C   UNL     1       6.339   5.235  15.073  0.00  0.00    +0.000 C 
ATOM     15  C   UNL     1       5.532   4.074  15.654  0.00  0.00    +0.000 C 
ENDBRANCH   7   8
BRANCH   5  16
ATOM     16  N   UNL     1       1.547   6.567  20.954  0.00  0.00    +0.000 N 
ATOM     17  C   UNL     1       1.664   7.778  20.280  0.00  0.00    +0.000 C 
ATOM     18  O   UNL     1       2.265   7.959  19.226  0.00  0.00    +0.000 OA
ATOM     19  H   UNL     1       0.904   6.564  21.739  0.00  0.00    +0.000 HD
BRANCH  17  20
ATOM     20  C   UNL     1       0.933   8.936  20.880  0.00  0.00    +0.000 A 
ATOM     21  C   UNL     1       0.550   8.824  22.219  0.00  0.00    +0.000 A 
ATOM     22  C   UNL     1      -0.091   9.893  22.846  0.00  0.00    +0.000 A 
ATOM     23  C   UNL     1      -0.303  11.035  22.073  0.00  0.00    +0.000 A 
ATOM     24  N   UNL     1      -0.873  12.241  22.392  0.00  0.00    +0.000 NA
ATOM     25  C   UNL     1      -0.798  12.950  21.290  0.00  0.00    +0.000 A 
ATOM     26  N   UNL     1      -0.222  12.251  20.264  0.00  0.00    +0.000 N 
ATOM     27  C   UNL     1       0.118  11.019  20.746  0.00  0.00    +0.000 A 
ATOM     28  N   UNL     1       0.740  10.029  20.071  0.00  0.00    +0.000 NA
ATOM     29  H   UNL     1      -0.060  12.582  19.326  0.00  0.00    +0.000 HD
ENDBRANCH  17  20
ENDBRANCH   5  16
TORSDOF 3
ENDMDL
MODEL 5
REMARK VINA RESULT:      -8.0      2.531      3.035
REMARK  Name = 
REMARK  4 active torsions:
REMARK  status: ('A' for Active; 'I' for Inactive)
REMARK    1  A    between atoms: C_1  and  C_2
REMARK    2  A    between atoms: C_5  and  N_6
REMARK    3  A    between atoms: C_7  and  C_9
REMARK    4  A    between atoms: C_19  and  C_20
REMARK                            x       y       z     vdW  Elec       q    Type
REMARK                         _______ _______ _______ _____ _____    ______ ____
ROOT
ATOM      1  C   UNL     1       2.898   2.879  19.968  0.00  0.00    +0.000 C 
ATOM      2  C   UNL     1       2.600   4.335  19.722  0.00  0.00    +0.000 A 
ATOM      3  C   UNL     1       1.915   5.001  20.749  0.00  0.00    +0.000 A 
ATOM      4  C   UNL     1       1.637   6.359  20.662  0.00  0.00    +0.000 A 
ATOM      5  C   UNL     1       2.071   7.107  19.571  0.00  0.00    +0.000 A 
ATOM      6  C   UNL     1       2.721   6.448  18.520  0.00  0.00    +0.000 A 
ATOM      7  C   UNL     1       2.947   5.053  18.550  0.00  0.00    +0.000 A 
ENDROOT
BRANCH   7   8
ATOM      8  C   UNL     1       3.662   4.374  17.412  0.00  0.00    +0.000 C 
ATOM      9  O   UNL     1       2.991   3.665  16.660  0.00  0.00    +0.000 OA
ATOM     10  N   UNL     1       5.038   4.526  17.188  0.00  0.00    +0.000 N 
ATOM     11  C   UNL     1       6.006   5.293  17.981  0.00  0.00    +0.000 C 
ATOM     12  C   UNL     1       7.109   5.926  17.121  0.00  0.00    +0.000 C 
ATOM     13  O   UNL     1       7.704   4.986  16.220  0.00  0.00    +0.000 OA
ATOM     14  C   UNL     1       6.703   4.427  15.357  0.00  0.00    +0.000 C 
ATOM     15  C   UNL     1       5.666   3.660  16.177  0.00  0.00    +0.000 C 
ENDBRANCH   7   8
BRANCH   5  16
ATOM     16  N   UNL     1       1.892   8.509  19.510  0.00  0.00    +0.000 N 
ATOM     17  C   UNL     1       1.951   9.265  18.343  0.00  0.00    +0.000 C 
ATOM     18  O   UNL     1       2.156   8.831  17.215  0.00  0.00    +0.000 OA
ATOM     19  H   UNL     1       1.579   9.005  20.338  0.00  0.00    +0.000 HD
BRANCH  17  20
ATOM     20  C   UNL     1       1.674  10.727  18.495  0.00  0.00    +0.000 A 
ATOM     21  C   UNL     1       0.518  11.088  19.192  0.00  0.00    +0.000 A 
ATOM     22  C   UNL     1       0.236  12.437  19.407  0.00  0.00    +0.000 A 
ATOM     23  C   UNL     1       1.156  13.357  18.905  0.00  0.00    +0.000 A 
ATOM     24  N   UNL     1       1.182  14.727  18.969  0.00  0.00    +0.000 NA
ATOM     25  C   UNL     1       2.283  15.072  18.343  0.00  0.00    +0.000 A 
ATOM     26  N   UNL     1       2.963  13.988  17.859  0.00  0.00    +0.000 N 
ATOM     27  C   UNL     1       2.266  12.870  18.219  0.00  0.00    +0.000 A 
ATOM     28  N   UNL     1       2.607  11.588  17.970  0.00  0.00    +0.000 NA
ATOM     29  H   UNL     1       3.830  14.001  17.344  0.00  0.00    +0.000 HD
ENDBRANCH  17  20
ENDBRANCH   5  16
TORSDOF 3
ENDMDL
MODEL 6
REMARK VINA RESULT:      -7.9      2.551      8.949
REMARK  Name = 
REMARK  4 active torsions:
REMARK  status: ('A' for Active; 'I' for Inactive)
REMARK    1  A    between atoms: C_1  and  C_2
REMARK    2  A    between atoms: C_5  and  N_6
REMARK    3  A    between atoms: C_7  and  C_9
REMARK    4  A    between atoms: C_19  and  C_20
REMARK                            x       y       z     vdW  Elec       q    Type
REMARK                         _______ _______ _______ _____ _____    ______ ____
ROOT
ATOM      1  C   UNL     1      -1.048  11.177  22.526  0.00  0.00    +0.000 C 
ATOM      2  C   UNL     1      -0.133  10.326  21.685  0.00  0.00    +0.000 A 
ATOM      3  C   UNL     1       0.460   9.236  22.338  0.00  0.00    +0.000 A 
ATOM      4  C   UNL     1       1.275   8.347  21.650  0.00  0.00    +0.000 A 
ATOM      5  C   UNL     1       1.490   8.486  20.282  0.00  0.00    +0.000 A 
ATOM      6  C   UNL     1       0.935   9.592  19.625  0.00  0.00    +0.000 A 
ATOM      7  C   UNL     1       0.166  10.555  20.318  0.00  0.00    +0.000 A 
ENDROOT
BRANCH   7   8
ATOM      8  C   UNL     1      -0.430  11.725  19.582  0.00  0.00    +0.000 C 
ATOM      9  O   UNL     1      -1.552  11.580  19.095  0.00  0.00    +0.000 OA
ATOM     10  N   UNL     1       0.241  12.949  19.442  0.00  0.00    +0.000 N 
ATOM     11  C   UNL     1       1.583  13.306  19.917  0.00  0.00    +0.000 C 
ATOM     12  C   UNL     1       1.689  14.774  20.351  0.00  0.00    +0.000 C 
ATOM     13  O   UNL     1       1.157  15.671  19.370  0.00  0.00    +0.000 OA
ATOM     14  C   UNL     1      -0.220  15.359  19.110  0.00  0.00    +0.000 C 
ATOM     15  C   UNL     1      -0.343  13.949  18.534  0.00  0.00    +0.000 C 
ENDBRANCH   7   8
BRANCH   5  16
ATOM     16  N   UNL     1       2.229   7.535  19.542  0.00  0.00    +0.000 N 
ATOM     17  C   UNL     1       2.657   7.710  18.229  0.00  0.00    +0.000 C 
ATOM     18  O   UNL     1       2.464   8.704  17.537  0.00  0.00    +0.000 OA
ATOM     19  H   UNL     1       2.589   6.711  20.013  0.00  0.00    +0.000 HD
BRANCH  17  20
ATOM     20  C   UNL     1       3.477   6.600  17.654  0.00  0.00    +0.000 A 
ATOM     21  C   UNL     1       3.020   5.296  17.860  0.00  0.00    +0.000 A 
ATOM     22  C   UNL     1       3.717   4.224  17.303  0.00  0.00    +0.000 A 
ATOM     23  C   UNL     1       4.850   4.537  16.551  0.00  0.00    +0.000 A 
ATOM     24  N   UNL     1       5.723   3.732  15.865  0.00  0.00    +0.000 NA
ATOM     25  C   UNL     1       6.590   4.557  15.328  0.00  0.00    +0.000 A 
ATOM     26  N   UNL     1       6.331   5.862  15.651  0.00  0.00    +0.000 N 
ATOM     27  C   UNL     1       5.207   5.877  16.427  0.00  0.00    +0.000 A 
ATOM     28  N   UNL     1       4.589   6.965  16.934  0.00  0.00    +0.000 NA
ATOM     29  H   UNL     1       6.858   6.670  15.361  0.00  0.00    +0.000 HD
ENDBRANCH  17  20
ENDBRANCH   5  16
TORSDOF 3
ENDMDL
MODEL 7
REMARK VINA RESULT:      -7.9      3.300      8.915
REMARK  Name = 
REMARK  4 active torsions:
REMARK  status: ('A' for Active; 'I' for Inactive)
REMARK    1  A    between atoms: C_1  and  C_2
REMARK    2  A    between atoms: C_5  and  N_6
REMARK    3  A    between atoms: C_7  and  C_9
REMARK    4  A    between atoms: C_19  and  C_20
REMARK                            x       y       z     vdW  Elec       q    Type
REMARK                         _______ _______ _______ _____ _____    ______ ____
ROOT
ATOM      1  C   UNL     1      -1.464  12.736  19.205  0.00  0.00    +0.000 C 
ATOM      2  C   UNL     1      -0.483  11.623  18.947  0.00  0.00    +0.000 A 
ATOM      3  C   UNL     1      -0.965  10.547  18.188  0.00  0.00    +0.000 A 
ATOM      4  C   UNL     1      -0.134   9.491  17.836  0.00  0.00    +0.000 A 
ATOM      5  C   UNL     1       1.212   9.493  18.189  0.00  0.00    +0.000 A 
ATOM      6  C   UNL     1       1.697  10.542  18.981  0.00  0.00    +0.000 A 
ATOM      7  C   UNL     1       0.854  11.589  19.417  0.00  0.00    +0.000 A 
ENDROOT
BRANCH   7   8
ATOM      8  C   UNL     1       1.407  12.711  20.255  0.00  0.00    +0.000 C 
ATOM      9  O   UNL     1       1.249  12.642  21.475  0.00  0.00    +0.000 OA
ATOM     10  N   UNL     1       2.084  13.806  19.697  0.00  0.00    +0.000 N 
ATOM     11  C   UNL     1       2.344  14.085  18.280  0.00  0.00    +0.000 C 
ATOM     12  C   UNL     1       3.690  14.785  18.049  0.00  0.00    +0.000 C 
ATOM     13  O   UNL     1       3.872  15.914  18.911  0.00  0.00    +0.000 OA
ATOM     14  C   UNL     1       3.787  15.506  20.284  0.00  0.00    +0.000 C 
ATOM     15  C   UNL     1       2.400  14.937  20.584  0.00  0.00    +0.000 C 
ENDBRANCH   7   8
BRANCH   5  16
ATOM     16  N   UNL     1       2.099   8.481  17.753  0.00  0.00    +0.000 N 
ATOM     17  C   UNL     1       2.534   7.416  18.535  0.00  0.00    +0.000 C 
ATOM     18  O   UNL     1       2.209   7.199  19.698  0.00  0.00    +0.000 OA
ATOM     19  H   UNL     1       2.357   8.437  16.772  0.00  0.00    +0.000 HD
BRANCH  17  20
ATOM     20  C   UNL     1       3.427   6.427  17.858  0.00  0.00    +0.000 A 
ATOM     21  C   UNL     1       3.034   5.086  17.891  0.00  0.00    +0.000 A 
ATOM     22  C   UNL     1       3.802   4.126  17.232  0.00  0.00    +0.000 A 
ATOM     23  C   UNL     1       4.937   4.583  16.563  0.00  0.00    +0.000 A 
ATOM     24  N   UNL     1       5.870   3.911  15.815  0.00  0.00    +0.000 NA
ATOM     25  C   UNL     1       6.707   4.838  15.412  0.00  0.00    +0.000 A 
ATOM     26  N   UNL     1       6.371   6.079  15.880  0.00  0.00    +0.000 N 
ATOM     27  C   UNL     1       5.226   5.945  16.613  0.00  0.00    +0.000 A 
ATOM     28  N   UNL     1       4.537   6.931  17.226  0.00  0.00    +0.000 NA
ATOM     29  H   UNL     1       6.862   6.941  15.708  0.00  0.00    +0.000 HD
ENDBRANCH  17  20
ENDBRANCH   5  16
TORSDOF 3
ENDMDL
MODEL 8
REMARK VINA RESULT:      -7.9      2.259      2.899
REMARK  Name = 
REMARK  4 active torsions:
REMARK  status: ('A' for Active; 'I' for Inactive)
REMARK    1  A    between atoms: C_1  and  C_2
REMARK    2  A    between atoms: C_5  and  N_6
REMARK    3  A    between atoms: C_7  and  C_9
REMARK    4  A    between atoms: C_19  and  C_20
REMARK                            x       y       z     vdW  Elec       q    Type
REMARK                         _______ _______ _______ _____ _____    ______ ____
ROOT
ATOM      1  C   UNL     1       3.004   2.909  20.000  0.00  0.00    +0.000 C 
ATOM      2  C   UNL     1       2.651   4.355  19.766  0.00  0.00    +0.000 A 
ATOM      3  C   UNL     1       1.982   4.999  20.816  0.00  0.00    +0.000 A 
ATOM      4  C   UNL     1       1.658   6.348  20.739  0.00  0.00    +0.000 A 
ATOM      5  C   UNL     1       2.030   7.109  19.635  0.00  0.00    +0.000 A 
ATOM      6  C   UNL     1       2.665   6.470  18.562  0.00  0.00    +0.000 A 
ATOM      7  C   UNL     1       2.936   5.083  18.583  0.00  0.00    +0.000 A 
ENDROOT
BRANCH   7   8
ATOM      8  C   UNL     1       3.633   4.427  17.421  0.00  0.00    +0.000 C 
ATOM      9  O   UNL     1       2.943   3.764  16.645  0.00  0.00    +0.000 OA
ATOM     10  N   UNL     1       5.013   4.550  17.201  0.00  0.00    +0.000 N 
ATOM     11  C   UNL     1       6.000   5.261  18.020  0.00  0.00    +0.000 C 
ATOM     12  C   UNL     1       7.120   5.896  17.184  0.00  0.00    +0.000 C 
ATOM     13  O   UNL     1       7.690   4.973  16.248  0.00  0.00    +0.000 OA
ATOM     14  C   UNL     1       6.674   4.472  15.367  0.00  0.00    +0.000 C 
ATOM     15  C   UNL     1       5.617   3.704  16.159  0.00  0.00    +0.000 C 
ENDBRANCH   7   8
BRANCH   5  16
ATOM     16  N   UNL     1       1.805   8.504  19.581  0.00  0.00    +0.000 N 
ATOM     17  C   UNL     1       1.846   9.269  18.419  0.00  0.00    +0.000 C 
ATOM     18  O   UNL     1       2.073   8.849  17.290  0.00  0.00    +0.000 OA
ATOM     19  H   UNL     1       1.470   8.985  20.409  0.00  0.00    +0.000 HD
BRANCH  17  20
ATOM     20  C   UNL     1       1.520  10.720  18.578  0.00  0.00    +0.000 A 
ATOM     21  C   UNL     1       2.417  11.639  18.028  0.00  0.00    +0.000 A 
ATOM     22  C   UNL     1       2.139  13.004  18.102  0.00  0.00    +0.000 A 
ATOM     23  C   UNL     1       0.947  13.366  18.730  0.00  0.00    +0.000 A 
ATOM     24  N   UNL     1       0.382  14.598  18.941  0.00  0.00    +0.000 NA
ATOM     25  C   UNL     1      -0.745  14.349  19.565  0.00  0.00    +0.000 A 
ATOM     26  N   UNL     1      -0.928  13.011  19.786  0.00  0.00    +0.000 N 
ATOM     27  C   UNL     1       0.142  12.355  19.246  0.00  0.00    +0.000 A 
ATOM     28  N   UNL     1       0.341  11.020  19.216  0.00  0.00    +0.000 NA
ATOM     29  H   UNL     1      -1.712  12.578  20.247  0.00  0.00    +0.000 HD
ENDBRANCH  17  20
ENDBRANCH   5  16
TORSDOF 3
ENDMDL
MODEL 9
REMARK VINA RESULT:      -7.8      1.968      2.434
REMARK  Name = 
REMARK  4 active torsions:
REMARK  status: ('A' for Active; 'I' for Inactive)
REMARK    1  A    between atoms: C_1  and  C_2
REMARK    2  A    between atoms: C_5  and  N_6
REMARK    3  A    between atoms: C_7  and  C_9
REMARK    4  A    between atoms: C_19  and  C_20
REMARK                            x       y       z     vdW  Elec       q    Type
REMARK                         _______ _______ _______ _____ _____    ______ ____
ROOT
ATOM      1  C   UNL     1       3.312   2.736  19.989  0.00  0.00    +0.000 C 
ATOM      2  C   UNL     1       2.875   4.161  19.776  0.00  0.00    +0.000 A 
ATOM      3  C   UNL     1       2.229   4.772  20.860  0.00  0.00    +0.000 A 
ATOM      4  C   UNL     1       1.834   6.102  20.802  0.00  0.00    +0.000 A 
ATOM      5  C   UNL     1       2.108   6.880  19.681  0.00  0.00    +0.000 A 
ATOM      6  C   UNL     1       2.717   6.273  18.575  0.00  0.00    +0.000 A 
ATOM      7  C   UNL     1       3.060   4.901  18.580  0.00  0.00    +0.000 A 
ENDROOT
BRANCH   7   8
ATOM      8  C   UNL     1       3.727   4.279  17.382  0.00  0.00    +0.000 C 
ATOM      9  O   UNL     1       3.040   3.556  16.660  0.00  0.00    +0.000 OA
ATOM     10  N   UNL     1       5.077   4.499  17.072  0.00  0.00    +0.000 N 
ATOM     11  C   UNL     1       6.060   5.294  17.818  0.00  0.00    +0.000 C 
ATOM     12  C   UNL     1       7.074   5.995  16.903  0.00  0.00    +0.000 C 
ATOM     13  O   UNL     1       7.649   5.102  15.943  0.00  0.00    +0.000 OA
ATOM     14  C   UNL     1       6.619   4.515  15.135  0.00  0.00    +0.000 C 
ATOM     15  C   UNL     1       5.674   3.684  16.003  0.00  0.00    +0.000 C 
ENDBRANCH   7   8
BRANCH   5  16
ATOM     16  N   UNL     1       1.810   8.262  19.640  0.00  0.00    +0.000 N 
ATOM     17  C   UNL     1       0.926   8.908  20.498  0.00  0.00    +0.000 C 
ATOM     18  O   UNL     1       0.292   8.381  21.406  0.00  0.00    +0.000 OA
ATOM     19  H   UNL     1       2.353   8.868  19.034  0.00  0.00    +0.000 HD
BRANCH  17  20
ATOM     20  C   UNL     1       0.801  10.387  20.319  0.00  0.00    +0.000 A 
ATOM     21  C   UNL     1       0.224  11.110  21.365  0.00  0.00    +0.000 A 
ATOM     22  C   UNL     1       0.127  12.499  21.274  0.00  0.00    +0.000 A 
ATOM     23  C   UNL     1       0.635  13.087  20.115  0.00  0.00    +0.000 A 
ATOM     24  N   UNL     1       0.713  14.403  19.736  0.00  0.00    +0.000 NA
ATOM     25  C   UNL     1       1.294  14.379  18.560  0.00  0.00    +0.000 A 
ATOM     26  N   UNL     1       1.580  13.106  18.150  0.00  0.00    +0.000 N 
ATOM     27  C   UNL     1       1.178  12.255  19.140  0.00  0.00    +0.000 A 
ATOM     28  N   UNL     1       1.306  10.911  19.153  0.00  0.00    +0.000 NA
ATOM     29  H   UNL     1       2.022  12.836  17.285  0.00  0.00    +0.000 HD
ENDBRANCH  17  20
ENDBRANCH   5  16
TORSDOF 3
ENDMDL
