MODEL 1
REMARK VINA RESULT:      -8.7      0.000      0.000
REMARK  Name = 
REMARK  7 active torsions:
REMARK  status: ('A' for Active; 'I' for Inactive)
REMARK    1  A    between atoms: C_2  and  C_3
REMARK    2  A    between atoms: C_3  and  C_4
REMARK    3  A    between atoms: C_8  and  C_9
REMARK    4  A    between atoms: N_15  and  C_16
REMARK    5  A    between atoms: C_20  and  C_21
REMARK    6  A    between atoms: N_26  and  C_27
REMARK    7  A    between atoms: C_27  and  C_28
REMARK                            x       y       z     vdW  Elec       q    Type
REMARK                         _______ _______ _______ _____ _____    ______ ____
ROOT
ATOM      1  C   UNL     1      -1.376  11.927  22.124  0.00  0.00    +0.000 A 
ATOM      2  C   UNL     1      -0.403  10.966  22.432  0.00  0.00    +0.000 A 
ATOM      3  C   UNL     1       0.146  10.239  21.390  0.00  0.00    +0.000 A 
ATOM      4  C   UNL     1      -0.239  10.423  20.063  0.00  0.00    +0.000 A 
ATOM      5  C   UNL     1      -1.227  11.337  19.730  0.00  0.00    +0.000 A 
ATOM      6  C   UNL     1      -1.796  12.087  20.782  0.00  0.00    +0.000 A 
ATOM      7  C   UNL     1       0.549   9.500  19.192  0.00  0.00    +0.000 C 
ATOM      8  N   UNL     1       1.363   8.743  20.130  0.00  0.00    +0.000 N 
ATOM      9  C   UNL     1       1.153   9.167  21.446  0.00  0.00    +0.000 C 
ATOM     10  O   UNL     1       1.634   8.780  22.496  0.00  0.00    +0.000 OA
ENDROOT
BRANCH   8  11
ATOM     11  C   UNL     1       2.016   7.554  19.716  0.00  0.00    +0.000 A 
ATOM     12  C   UNL     1       1.756   6.325  20.327  0.00  0.00    +0.000 A 
ATOM     13  C   UNL     1       2.205   5.133  19.750  0.00  0.00    +0.000 A 
ATOM     14  C   UNL     1       2.977   5.156  18.588  0.00  0.00    +0.000 A 
ATOM     15  C   UNL     1       3.347   6.377  18.032  0.00  0.00    +0.000 A 
ATOM     16  C   UNL     1       2.866   7.567  18.597  0.00  0.00    +0.000 A 
BRANCH  15  17
ATOM     17  C   UNL     1       4.283   6.441  16.909  0.00  0.00    +0.000 C 
ATOM     18  C   UNL     1       5.484   5.848  16.836  0.00  0.00    +0.000 C 
ATOM     19  C   UNL     1       6.231   5.717  15.515  0.00  0.00    +0.000 C 
ATOM     20  N   UNL     1       7.263   4.654  15.745  0.00  0.00    +0.000 NA
ATOM     21  C   UNL     1       7.191   4.458  17.029  0.00  0.00    +0.000 C 
ATOM     22  N   UNL     1       6.235   5.129  17.745  0.00  0.00    +0.000 N 
BRANCH  22  23
ATOM     23  C   UNL     1       6.471   5.502  19.133  0.00  0.00    +0.000 C 
ATOM     24  C   UNL     1       7.925   5.852  19.375  0.00  0.00    +0.000 C 
ENDBRANCH  22  23
ENDBRANCH  15  17
ENDBRANCH   8  11
BRANCH   5  25
ATOM     25  C   UNL     1      -1.699  11.541  18.312  0.00  0.00    +0.000 C 
ATOM     26  F   UNL     1      -1.007  12.503  17.640  0.00  0.00    +0.000 F 
ATOM     27  F   UNL     1      -1.587  10.413  17.559  0.00  0.00    +0.000 F 
ATOM     28  F   UNL     1      -3.006  11.913  18.247  0.00  0.00    +0.000 F 
ENDBRANCH   5  25
BRANCH   1  29
ATOM     29  C   UNL     1      -1.956  12.801  23.215  0.00  0.00    +0.000 C 
BRANCH  29  31
ATOM     30  C   UNL     1      -4.127  13.130  24.430  0.00  0.00    +0.000 C 
ATOM     31  C   UNL     1      -3.323  12.377  23.666  0.00  0.00    +0.000 C 
ENDBRANCH  29  31
ENDBRANCH   1  29
TORSDOF 6
ENDMDL
MODEL 2
REMARK VINA RESULT:      -8.4      2.771      3.539
REMARK  Name = 
REMARK  7 active torsions:
REMARK  status: ('A' for Active; 'I' for Inactive)
REMARK    1  A    between atoms: C_2  and  C_3
REMARK    2  A    between atoms: C_3  and  C_4
REMARK    3  A    between atoms: C_8  and  C_9
REMARK    4  A    between atoms: N_15  and  C_16
REMARK    5  A    between atoms: C_20  and  C_21
REMARK    6  A    between atoms: N_26  and  C_27
REMARK    7  A    between atoms: C_27  and  C_28
REMARK                            x       y       z     vdW  Elec       q    Type
REMARK                         _______ _______ _______ _____ _____    ______ ____
ROOT
ATOM      1  C   UNL     1       0.373  12.027  19.782  0.00  0.00    +0.000 A 
ATOM      2  C   UNL     1       0.993  11.139  18.891  0.00  0.00    +0.000 A 
ATOM      3  C   UNL     1       1.174   9.829  19.299  0.00  0.00    +0.000 A 
ATOM      4  C   UNL     1       0.774   9.373  20.554  0.00  0.00    +0.000 A 
ATOM      5  C   UNL     1       0.194  10.235  21.473  0.00  0.00    +0.000 A 
ATOM      6  C   UNL     1       0.002  11.573  21.071  0.00  0.00    +0.000 A 
ATOM      7  C   UNL     1       1.098   7.919  20.672  0.00  0.00    +0.000 C 
ATOM      8  N   UNL     1       1.762   7.605  19.416  0.00  0.00    +0.000 N 
ATOM      9  C   UNL     1       1.814   8.720  18.574  0.00  0.00    +0.000 C 
ATOM     10  O   UNL     1       2.288   8.857  17.460  0.00  0.00    +0.000 OA
ENDROOT
BRANCH   8  11
ATOM     11  C   UNL     1       2.497   6.400  19.276  0.00  0.00    +0.000 A 
ATOM     12  C   UNL     1       2.645   5.505  20.338  0.00  0.00    +0.000 A 
ATOM     13  C   UNL     1       3.145   4.218  20.120  0.00  0.00    +0.000 A 
ATOM     14  C   UNL     1       3.566   3.827  18.849  0.00  0.00    +0.000 A 
ATOM     15  C   UNL     1       3.539   4.745  17.803  0.00  0.00    +0.000 A 
ATOM     16  C   UNL     1       3.005   6.023  18.021  0.00  0.00    +0.000 A 
BRANCH  15  17
ATOM     17  C   UNL     1       4.118   4.420  16.500  0.00  0.00    +0.000 C 
ATOM     18  C   UNL     1       5.333   4.775  16.054  0.00  0.00    +0.000 C 
ATOM     19  C   UNL     1       5.954   4.124  14.825  0.00  0.00    +0.000 C 
ATOM     20  N   UNL     1       7.418   4.438  14.907  0.00  0.00    +0.000 NA
ATOM     21  C   UNL     1       7.474   5.294  15.885  0.00  0.00    +0.000 C 
ATOM     22  N   UNL     1       6.324   5.584  16.572  0.00  0.00    +0.000 N 
BRANCH  22  23
ATOM     23  C   UNL     1       6.123   6.900  17.162  0.00  0.00    +0.000 C 
ATOM     24  C   UNL     1       7.441   7.552  17.528  0.00  0.00    +0.000 C 
ENDBRANCH  22  23
ENDBRANCH  15  17
ENDBRANCH   8  11
BRANCH   5  25
ATOM     25  C   UNL     1      -0.219   9.790  22.853  0.00  0.00    +0.000 C 
ATOM     26  F   UNL     1       0.831   9.489  23.666  0.00  0.00    +0.000 F 
ATOM     27  F   UNL     1      -0.937  10.739  23.513  0.00  0.00    +0.000 F 
ATOM     28  F   UNL     1      -0.998   8.674  22.828  0.00  0.00    +0.000 F 
ENDBRANCH   5  25
BRANCH   1  29
ATOM     29  C   UNL     1       0.083  13.451  19.360  0.00  0.00    +0.000 C 
BRANCH  29  31
ATOM     30  C   UNL     1       2.370  14.322  19.915  0.00  0.00    +0.000 C 
ATOM     31  C   UNL     1       1.037  14.457  19.934  0.00  0.00    +0.000 C 
ENDBRANCH  29  31
ENDBRANCH   1  29
TORSDOF 6
ENDMDL
MODEL 3
REMARK VINA RESULT:      -8.3      3.516      9.312
REMARK  Name = 
REMARK  7 active torsions:
REMARK  status: ('A' for Active; 'I' for Inactive)
REMARK    1  A    between atoms: C_2  and  C_3
REMARK    2  A    between atoms: C_3  and  C_4
REMARK    3  A    between atoms: C_8  and  C_9
REMARK    4  A    between atoms: N_15  and  C_16
REMARK    5  A    between atoms: C_20  and  C_21
REMARK    6  A    between atoms: N_26  and  C_27
REMARK    7  A    between atoms: C_27  and  C_28
REMARK                            x       y       z     vdW  Elec       q    Type
REMARK                         _______ _______ _______ _____ _____    ______ ____
ROOT
ATOM      1  C   UNL     1       4.545   4.778  17.731  0.00  0.00    +0.000 A 
ATOM      2  C   UNL     1       4.202   6.088  17.366  0.00  0.00    +0.000 A 
ATOM      3  C   UNL     1       3.279   6.760  18.148  0.00  0.00    +0.000 A 
ATOM      4  C   UNL     1       2.680   6.182  19.266  0.00  0.00    +0.000 A 
ATOM      5  C   UNL     1       2.968   4.875  19.629  0.00  0.00    +0.000 A 
ATOM      6  C   UNL     1       3.908   4.177  18.842  0.00  0.00    +0.000 A 
ATOM      7  C   UNL     1       1.751   7.170  19.890  0.00  0.00    +0.000 C 
ATOM      8  N   UNL     1       1.826   8.327  19.010  0.00  0.00    +0.000 N 
ATOM      9  C   UNL     1       2.735   8.117  17.969  0.00  0.00    +0.000 C 
ATOM     10  O   UNL     1       3.065   8.833  17.040  0.00  0.00    +0.000 OA
ENDROOT
BRANCH   8  11
ATOM     11  C   UNL     1       0.853   9.355  19.093  0.00  0.00    +0.000 A 
ATOM     12  C   UNL     1       0.101   9.742  17.981  0.00  0.00    +0.000 A 
ATOM     13  C   UNL     1      -1.019  10.565  18.131  0.00  0.00    +0.000 A 
ATOM     14  C   UNL     1      -1.366  11.068  19.385  0.00  0.00    +0.000 A 
ATOM     15  C   UNL     1      -0.559  10.792  20.485  0.00  0.00    +0.000 A 
ATOM     16  C   UNL     1       0.544   9.938  20.334  0.00  0.00    +0.000 A 
BRANCH  15  17
ATOM     17  C   UNL     1      -0.803  11.430  21.778  0.00  0.00    +0.000 C 
ATOM     18  C   UNL     1      -0.521  12.699  22.109  0.00  0.00    +0.000 C 
ATOM     19  C   UNL     1      -1.099  13.344  23.362  0.00  0.00    +0.000 C 
ATOM     20  N   UNL     1      -0.936  14.821  23.159  0.00  0.00    +0.000 NA
ATOM     21  C   UNL     1      -0.193  14.883  22.093  0.00  0.00    +0.000 C 
ATOM     22  N   UNL     1       0.133  13.719  21.449  0.00  0.00    +0.000 N 
BRANCH  22  23
ATOM     23  C   UNL     1       1.396  13.594  20.733  0.00  0.00    +0.000 C 
ATOM     24  C   UNL     1       1.215  13.821  19.246  0.00  0.00    +0.000 C 
ENDBRANCH  22  23
ENDBRANCH  15  17
ENDBRANCH   8  11
BRANCH   5  25
ATOM     25  C   UNL     1       2.315   4.199  20.809  0.00  0.00    +0.000 C 
ATOM     26  F   UNL     1       0.962   4.086  20.693  0.00  0.00    +0.000 F 
ATOM     27  F   UNL     1       2.776   2.935  21.006  0.00  0.00    +0.000 F 
ATOM     28  F   UNL     1       2.530   4.867  21.975  0.00  0.00    +0.000 F 
ENDBRANCH   5  25
BRANCH   1  29
ATOM     29  C   UNL     1       5.603   4.024  16.955  0.00  0.00    +0.000 C 
BRANCH  29  31
ATOM     30  C   UNL     1       7.454   5.203  18.172  0.00  0.00    +0.000 C 
ATOM     31  C   UNL     1       6.974   4.625  17.063  0.00  0.00    +0.000 C 
ENDBRANCH  29  31
ENDBRANCH   1  29
TORSDOF 6
ENDMDL
MODEL 4
REMARK VINA RESULT:      -8.2      3.719      8.828
REMARK  Name = 
REMARK  7 active torsions:
REMARK  status: ('A' for Active; 'I' for Inactive)
REMARK    1  A    between atoms: C_2  and  C_3
REMARK    2  A    between atoms: C_3  and  C_4
REMARK    3  A    between atoms: C_8  and  C_9
REMARK    4  A    between atoms: N_15  and  C_16
REMARK    5  A    between atoms: C_20  and  C_21
REMARK    6  A    between atoms: N_26  and  C_27
REMARK    7  A    between atoms: C_27  and  C_28
REMARK                            x       y       z     vdW  Elec       q    Type
REMARK                         _______ _______ _______ _____ _____    ______ ____
ROOT
ATOM      1  C   UNL     1       3.311   4.824  19.607  0.00  0.00    +0.000 A 
ATOM      2  C   UNL     1       2.406   5.778  20.097  0.00  0.00    +0.000 A 
ATOM      3  C   UNL     1       2.279   6.969  19.404  0.00  0.00    +0.000 A 
ATOM      4  C   UNL     1       3.019   7.253  18.258  0.00  0.00    +0.000 A 
ATOM      5  C   UNL     1       3.951   6.348  17.771  0.00  0.00    +0.000 A 
ATOM      6  C   UNL     1       4.091   5.128  18.465  0.00  0.00    +0.000 A 
ATOM      7  C   UNL     1       2.637   8.605  17.750  0.00  0.00    +0.000 C 
ATOM      8  N   UNL     1       1.671   9.086  18.727  0.00  0.00    +0.000 N 
ATOM      9  C   UNL     1       1.431   8.131  19.719  0.00  0.00    +0.000 C 
ATOM     10  O   UNL     1       0.705   8.161  20.698  0.00  0.00    +0.000 OA
ENDROOT
BRANCH   8  11
ATOM     11  C   UNL     1       1.312  10.457  18.765  0.00  0.00    +0.000 A 
ATOM     12  C   UNL     1       2.217  11.461  18.413  0.00  0.00    +0.000 A 
ATOM     13  C   UNL     1       1.781  12.774  18.208  0.00  0.00    +0.000 A 
ATOM     14  C   UNL     1       0.445  13.116  18.416  0.00  0.00    +0.000 A 
ATOM     15  C   UNL     1      -0.447  12.156  18.883  0.00  0.00    +0.000 A 
ATOM     16  C   UNL     1      -0.011  10.834  19.055  0.00  0.00    +0.000 A 
BRANCH  15  17
ATOM     17  C   UNL     1      -1.813  12.517  19.262  0.00  0.00    +0.000 C 
ATOM     18  C   UNL     1      -2.944  12.028  18.733  0.00  0.00    +0.000 C 
ATOM     19  C   UNL     1      -4.295  12.231  19.408  0.00  0.00    +0.000 C 
ATOM     20  N   UNL     1      -5.203  11.208  18.796  0.00  0.00    +0.000 NA
ATOM     21  C   UNL     1      -4.485  10.735  17.819  0.00  0.00    +0.000 C 
ATOM     22  N   UNL     1      -3.197  11.177  17.676  0.00  0.00    +0.000 N 
BRANCH  22  23
ATOM     23  C   UNL     1      -2.579  11.254  16.359  0.00  0.00    +0.000 C 
ATOM     24  C   UNL     1      -2.736   9.955  15.595  0.00  0.00    +0.000 C 
ENDBRANCH  22  23
ENDBRANCH  15  17
ENDBRANCH   8  11
BRANCH   5  25
ATOM     25  C   UNL     1       4.797   6.631  16.555  0.00  0.00    +0.000 C 
ATOM     26  F   UNL     1       4.158   7.371  15.606  0.00  0.00    +0.000 F 
ATOM     27  F   UNL     1       5.930   7.320  16.858  0.00  0.00    +0.000 F 
ATOM     28  F   UNL     1       5.201   5.494  15.927  0.00  0.00    +0.000 F 
ENDBRANCH   5  25
BRANCH   1  29
ATOM     29  C   UNL     1       3.435   3.476  20.281  0.00  0.00    +0.000 C 
BRANCH  29  31
ATOM     30  C   UNL     1       1.597   2.544  21.713  0.00  0.00    +0.000 C 
ATOM     31  C   UNL     1       2.120   2.788  20.504  0.00  0.00    +0.000 C 
ENDBRANCH  29  31
ENDBRANCH   1  29
TORSDOF 6
ENDMDL
MODEL 5
REMARK VINA RESULT:      -8.2      4.000      8.800
REMARK  Name = 
REMARK  7 active torsions:
REMARK  status: ('A' for Active; 'I' for Inactive)
REMARK    1  A    between atoms: C_2  and  C_3
REMARK    2  A    between atoms: C_3  and  C_4
REMARK    3  A    between atoms: C_8  and  C_9
REMARK    4  A    between atoms: N_15  and  C_16
REMARK    5  A    between atoms: C_20  and  C_21
REMARK    6  A    between atoms: N_26  and  C_27
REMARK    7  A    between atoms: C_27  and  C_28
REMARK                            x       y       z     vdW  Elec       q    Type
REMARK                         _______ _______ _______ _____ _____    ______ ____
ROOT
ATOM      1  C   UNL     1       3.921   4.601  17.458  0.00  0.00    +0.000 A 
ATOM      2  C   UNL     1       3.738   5.966  17.196  0.00  0.00    +0.000 A 
ATOM      3  C   UNL     1       3.013   6.713  18.109  0.00  0.00    +0.000 A 
ATOM      4  C   UNL     1       2.458   6.156  19.259  0.00  0.00    +0.000 A 
ATOM      5  C   UNL     1       2.587   4.802  19.527  0.00  0.00    +0.000 A 
ATOM      6  C   UNL     1       3.324   4.028  18.607  0.00  0.00    +0.000 A 
ATOM      7  C   UNL     1       1.757   7.226  20.031  0.00  0.00    +0.000 C 
ATOM      8  N   UNL     1       1.908   8.412  19.202  0.00  0.00    +0.000 N 
ATOM      9  C   UNL     1       2.659   8.141  18.055  0.00  0.00    +0.000 C 
ATOM     10  O   UNL     1       2.991   8.860  17.129  0.00  0.00    +0.000 OA
ENDROOT
BRANCH   8  11
ATOM     11  C   UNL     1       1.112   9.561  19.443  0.00  0.00    +0.000 A 
ATOM     12  C   UNL     1       0.052   9.539  20.352  0.00  0.00    +0.000 A 
ATOM     13  C   UNL     1      -0.556  10.728  20.767  0.00  0.00    +0.000 A 
ATOM     14  C   UNL     1      -0.156  11.952  20.230  0.00  0.00    +0.000 A 
ATOM     15  C   UNL     1       0.816  11.982  19.234  0.00  0.00    +0.000 A 
ATOM     16  C   UNL     1       1.443  10.789  18.847  0.00  0.00    +0.000 A 
BRANCH  15  17
ATOM     17  C   UNL     1       1.144  13.227  18.539  0.00  0.00    +0.000 C 
ATOM     18  C   UNL     1       2.205  14.015  18.770  0.00  0.00    +0.000 C 
ATOM     19  C   UNL     1       2.619  15.104  17.789  0.00  0.00    +0.000 C 
ATOM     20  N   UNL     1       4.034  15.445  18.148  0.00  0.00    +0.000 NA
ATOM     21  C   UNL     1       4.210  14.800  19.264  0.00  0.00    +0.000 C 
ATOM     22  N   UNL     1       3.203  13.992  19.723  0.00  0.00    +0.000 N 
BRANCH  22  23
ATOM     23  C   UNL     1       3.008  13.785  21.152  0.00  0.00    +0.000 C 
ATOM     24  C   UNL     1       2.079  14.827  21.741  0.00  0.00    +0.000 C 
ENDBRANCH  22  23
ENDBRANCH  15  17
ENDBRANCH   8  11
BRANCH   5  25
ATOM     25  C   UNL     1       1.971   4.154  20.742  0.00  0.00    +0.000 C 
ATOM     26  F   UNL     1       2.166   2.807  20.799  0.00  0.00    +0.000 F 
ATOM     27  F   UNL     1       2.471   4.649  21.906  0.00  0.00    +0.000 F 
ATOM     28  F   UNL     1       0.624   4.335  20.801  0.00  0.00    +0.000 F 
ENDBRANCH   5  25
BRANCH   1  29
ATOM     29  C   UNL     1       4.767   3.754  16.533  0.00  0.00    +0.000 C 
BRANCH  29  31
ATOM     30  C   UNL     1       6.066   4.063  14.407  0.00  0.00    +0.000 C 
ATOM     31  C   UNL     1       5.579   4.554  15.555  0.00  0.00    +0.000 C 
ENDBRANCH  29  31
ENDBRANCH   1  29
TORSDOF 6
ENDMDL
MODEL 6
REMARK VINA RESULT:      -8.2      3.571      9.420
REMARK  Name = 
REMARK  7 active torsions:
REMARK  status: ('A' for Active; 'I' for Inactive)
REMARK    1  A    between atoms: C_2  and  C_3
REMARK    2  A    between atoms: C_3  and  C_4
REMARK    3  A    between atoms: C_8  and  C_9
REMARK    4  A    between atoms: N_15  and  C_16
REMARK    5  A    between atoms: C_20  and  C_21
REMARK    6  A    between atoms: N_26  and  C_27
REMARK    7  A    between atoms: C_27  and  C_28
REMARK                            x       y       z     vdW  Elec       q    Type
REMARK                         _______ _______ _______ _____ _____    ______ ____
ROOT
ATOM      1  C   UNL     1       4.306   4.900  17.617  0.00  0.00    +0.000 A 
ATOM      2  C   UNL     1       3.983   6.222  17.278  0.00  0.00    +0.000 A 
ATOM      3  C   UNL     1       3.094   6.903  18.092  0.00  0.00    +0.000 A 
ATOM      4  C   UNL     1       2.509   6.321  19.215  0.00  0.00    +0.000 A 
ATOM      5  C   UNL     1       2.776   5.003  19.554  0.00  0.00    +0.000 A 
ATOM      6  C   UNL     1       3.682   4.296  18.735  0.00  0.00    +0.000 A 
ATOM      7  C   UNL     1       1.617   7.321  19.876  0.00  0.00    +0.000 C 
ATOM      8  N   UNL     1       1.697   8.488  19.010  0.00  0.00    +0.000 N 
ATOM      9  C   UNL     1       2.576   8.273  17.944  0.00  0.00    +0.000 C 
ATOM     10  O   UNL     1       2.900   8.996  17.019  0.00  0.00    +0.000 OA
ENDROOT
BRANCH   8  11
ATOM     11  C   UNL     1       0.749   9.536  19.130  0.00  0.00    +0.000 A 
ATOM     12  C   UNL     1      -0.070   9.907  18.062  0.00  0.00    +0.000 A 
ATOM     13  C   UNL     1      -1.164  10.755  18.264  0.00  0.00    +0.000 A 
ATOM     14  C   UNL     1      -1.416  11.297  19.525  0.00  0.00    +0.000 A 
ATOM     15  C   UNL     1      -0.541  11.034  20.574  0.00  0.00    +0.000 A 
ATOM     16  C   UNL     1       0.534  10.157  20.373  0.00  0.00    +0.000 A 
BRANCH  15  17
ATOM     17  C   UNL     1      -0.686  11.710  21.863  0.00  0.00    +0.000 C 
ATOM     18  C   UNL     1      -0.566  13.026  22.094  0.00  0.00    +0.000 C 
ATOM     19  C   UNL     1      -1.044  13.656  23.396  0.00  0.00    +0.000 C 
ATOM     20  N   UNL     1      -1.153  15.123  23.111  0.00  0.00    +0.000 NA
ATOM     21  C   UNL     1      -0.600  15.229  21.937  0.00  0.00    +0.000 C 
ATOM     22  N   UNL     1      -0.192  14.089  21.297  0.00  0.00    +0.000 N 
BRANCH  22  23
ATOM     23  C   UNL     1       0.951  14.112  20.394  0.00  0.00    +0.000 C 
ATOM     24  C   UNL     1       2.261  14.108  21.157  0.00  0.00    +0.000 C 
ENDBRANCH  22  23
ENDBRANCH  15  17
ENDBRANCH   8  11
BRANCH   5  25
ATOM     25  C   UNL     1       2.137   4.325  20.739  0.00  0.00    +0.000 C 
ATOM     26  F   UNL     1       2.472   4.886  21.935  0.00  0.00    +0.000 F 
ATOM     27  F   UNL     1       0.777   4.356  20.686  0.00  0.00    +0.000 F 
ATOM     28  F   UNL     1       2.483   3.013  20.837  0.00  0.00    +0.000 F 
ENDBRANCH   5  25
BRANCH   1  29
ATOM     29  C   UNL     1       5.328   4.135  16.806  0.00  0.00    +0.000 C 
BRANCH  29  31
ATOM     30  C   UNL     1       6.635   4.908  14.808  0.00  0.00    +0.000 C 
ATOM     31  C   UNL     1       5.464   4.620  15.392  0.00  0.00    +0.000 C 
ENDBRANCH  29  31
ENDBRANCH   1  29
TORSDOF 6
ENDMDL
MODEL 7
REMARK VINA RESULT:      -8.2      3.816      9.160
REMARK  Name = 
REMARK  7 active torsions:
REMARK  status: ('A' for Active; 'I' for Inactive)
REMARK    1  A    between atoms: C_2  and  C_3
REMARK    2  A    between atoms: C_3  and  C_4
REMARK    3  A    between atoms: C_8  and  C_9
REMARK    4  A    between atoms: N_15  and  C_16
REMARK    5  A    between atoms: C_20  and  C_21
REMARK    6  A    between atoms: N_26  and  C_27
REMARK    7  A    between atoms: C_27  and  C_28
REMARK                            x       y       z     vdW  Elec       q    Type
REMARK                         _______ _______ _______ _____ _____    ______ ____
ROOT
ATOM      1  C   UNL     1       3.724   4.926  17.595  0.00  0.00    +0.000 A 
ATOM      2  C   UNL     1       3.411   6.293  17.622  0.00  0.00    +0.000 A 
ATOM      3  C   UNL     1       2.699   6.775  18.707  0.00  0.00    +0.000 A 
ATOM      4  C   UNL     1       2.281   5.956  19.753  0.00  0.00    +0.000 A 
ATOM      5  C   UNL     1       2.540   4.593  19.737  0.00  0.00    +0.000 A 
ATOM      6  C   UNL     1       3.266   4.087  18.638  0.00  0.00    +0.000 A 
ATOM      7  C   UNL     1       1.555   6.783  20.764  0.00  0.00    +0.000 C 
ATOM      8  N   UNL     1       1.545   8.117  20.182  0.00  0.00    +0.000 N 
ATOM      9  C   UNL     1       2.226   8.146  18.961  0.00  0.00    +0.000 C 
ATOM     10  O   UNL     1       2.426   9.059  18.180  0.00  0.00    +0.000 OA
ENDROOT
BRANCH   8  11
ATOM     11  C   UNL     1       0.678   9.116  20.694  0.00  0.00    +0.000 A 
ATOM     12  C   UNL     1       0.177   9.052  21.996  0.00  0.00    +0.000 A 
ATOM     13  C   UNL     1      -0.460  10.158  22.569  0.00  0.00    +0.000 A 
ATOM     14  C   UNL     1      -0.664  11.320  21.825  0.00  0.00    +0.000 A 
ATOM     15  C   UNL     1      -0.281  11.359  20.488  0.00  0.00    +0.000 A 
ATOM     16  C   UNL     1       0.388  10.259  19.931  0.00  0.00    +0.000 A 
BRANCH  15  17
ATOM     17  C   UNL     1      -0.622  12.500  19.639  0.00  0.00    +0.000 C 
ATOM     18  C   UNL     1      -0.021  13.699  19.633  0.00  0.00    +0.000 C 
ATOM     19  C   UNL     1      -0.242  14.697  18.504  0.00  0.00    +0.000 C 
ATOM     20  N   UNL     1       0.889  15.676  18.611  0.00  0.00    +0.000 NA
ATOM     21  C   UNL     1       1.442  15.351  19.743  0.00  0.00    +0.000 C 
ATOM     22  N   UNL     1       0.962  14.262  20.422  0.00  0.00    +0.000 N 
BRANCH  22  23
ATOM     23  C   UNL     1       1.016  14.210  21.876  0.00  0.00    +0.000 C 
ATOM     24  C   UNL     1      -0.045  15.092  22.503  0.00  0.00    +0.000 C 
ENDBRANCH  22  23
ENDBRANCH  15  17
ENDBRANCH   8  11
BRANCH   5  25
ATOM     25  C   UNL     1       2.074   3.666  20.831  0.00  0.00    +0.000 C 
ATOM     26  F   UNL     1       2.478   4.045  22.076  0.00  0.00    +0.000 F 
ATOM     27  F   UNL     1       0.717   3.576  20.895  0.00  0.00    +0.000 F 
ATOM     28  F   UNL     1       2.530   2.395  20.666  0.00  0.00    +0.000 F 
ENDBRANCH   5  25
BRANCH   1  29
ATOM     29  C   UNL     1       4.564   4.360  16.471  0.00  0.00    +0.000 C 
BRANCH  29  31
ATOM     30  C   UNL     1       6.963   4.698  15.817  0.00  0.00    +0.000 C 
ATOM     31  C   UNL     1       6.039   4.397  16.740  0.00  0.00    +0.000 C 
ENDBRANCH  29  31
ENDBRANCH   1  29
TORSDOF 6
ENDMDL
MODEL 8
REMARK VINA RESULT:      -8.1      3.466      9.497
REMARK  Name = 
REMARK  7 active torsions:
REMARK  status: ('A' for Active; 'I' for Inactive)
REMARK    1  A    between atoms: C_2  and  C_3
REMARK    2  A    between atoms: C_3  and  C_4
REMARK    3  A    between atoms: C_8  and  C_9
REMARK    4  A    between atoms: N_15  and  C_16
REMARK    5  A    between atoms: C_20  and  C_21
REMARK    6  A    between atoms: N_26  and  C_27
REMARK    7  A    between atoms: C_27  and  C_28
REMARK                            x       y       z     vdW  Elec       q    Type
REMARK                         _______ _______ _______ _____ _____    ______ ____
ROOT
ATOM      1  C   UNL     1       4.218   5.889  17.513  0.00  0.00    +0.000 A 
ATOM      2  C   UNL     1       3.802   7.213  17.313  0.00  0.00    +0.000 A 
ATOM      3  C   UNL     1       2.859   7.737  18.181  0.00  0.00    +0.000 A 
ATOM      4  C   UNL     1       2.310   6.997  19.226  0.00  0.00    +0.000 A 
ATOM      5  C   UNL     1       2.670   5.673  19.426  0.00  0.00    +0.000 A 
ATOM      6  C   UNL     1       3.631   5.125  18.550  0.00  0.00    +0.000 A 
ATOM      7  C   UNL     1       1.343   7.853  19.976  0.00  0.00    +0.000 C 
ATOM      8  N   UNL     1       1.344   9.110  19.242  0.00  0.00    +0.000 N 
ATOM      9  C   UNL     1       2.244   9.074  18.173  0.00  0.00    +0.000 C 
ATOM     10  O   UNL     1       2.521   9.914  17.334  0.00  0.00    +0.000 OA
ENDROOT
BRANCH   8  11
ATOM     11  C   UNL     1       0.321  10.068  19.459  0.00  0.00    +0.000 A 
ATOM     12  C   UNL     1      -0.680  10.296  18.513  0.00  0.00    +0.000 A 
ATOM     13  C   UNL     1      -1.814  11.046  18.842  0.00  0.00    +0.000 A 
ATOM     14  C   UNL     1      -1.932  11.635  20.101  0.00  0.00    +0.000 A 
ATOM     15  C   UNL     1      -0.889  11.520  21.016  0.00  0.00    +0.000 A 
ATOM     16  C   UNL     1       0.230  10.738  20.691  0.00  0.00    +0.000 A 
BRANCH  15  17
ATOM     17  C   UNL     1      -0.911  12.253  22.281  0.00  0.00    +0.000 C 
ATOM     18  C   UNL     1      -0.806  13.581  22.436  0.00  0.00    +0.000 C 
ATOM     19  C   UNL     1      -1.156  14.261  23.753  0.00  0.00    +0.000 C 
ATOM     20  N   UNL     1      -1.342  15.710  23.416  0.00  0.00    +0.000 NA
ATOM     21  C   UNL     1      -0.927  15.773  22.184  0.00  0.00    +0.000 C 
ATOM     22  N   UNL     1      -0.557  14.614  21.555  0.00  0.00    +0.000 N 
BRANCH  22  23
ATOM     23  C   UNL     1       0.478  14.623  20.529  0.00  0.00    +0.000 C 
ATOM     24  C   UNL     1      -0.119  14.708  19.139  0.00  0.00    +0.000 C 
ENDBRANCH  22  23
ENDBRANCH  15  17
ENDBRANCH   8  11
BRANCH   5  25
ATOM     25  C   UNL     1       2.073   4.827  20.523  0.00  0.00    +0.000 C 
ATOM     26  F   UNL     1       2.459   3.522  20.476  0.00  0.00    +0.000 F 
ATOM     27  F   UNL     1       2.413   5.268  21.764  0.00  0.00    +0.000 F 
ATOM     28  F   UNL     1       0.713   4.812  20.486  0.00  0.00    +0.000 F 
ENDBRANCH   5  25
BRANCH   1  29
ATOM     29  C   UNL     1       5.299   5.290  16.640  0.00  0.00    +0.000 C 
BRANCH  29  31
ATOM     30  C   UNL     1       7.561   4.561  17.444  0.00  0.00    +0.000 C 
ATOM     31  C   UNL     1       6.690   5.535  17.148  0.00  0.00    +0.000 C 
ENDBRANCH  29  31
ENDBRANCH   1  29
TORSDOF 6
ENDMDL
MODEL 9
REMARK VINA RESULT:      -8.1      1.076      1.357
REMARK  Name = 
REMARK  7 active torsions:
REMARK  status: ('A' for Active; 'I' for Inactive)
REMARK    1  A    between atoms: C_2  and  C_3
REMARK    2  A    between atoms: C_3  and  C_4
REMARK    3  A    between atoms: C_8  and  C_9
REMARK    4  A    between atoms: N_15  and  C_16
REMARK    5  A    between atoms: C_20  and  C_21
REMARK    6  A    between atoms: N_26  and  C_27
REMARK    7  A    between atoms: C_27  and  C_28
REMARK                            x       y       z     vdW  Elec       q    Type
REMARK                         _______ _______ _______ _____ _____    ______ ____
ROOT
ATOM      1  C   UNL     1      -2.189  12.569  20.774  0.00  0.00    +0.000 A 
ATOM      2  C   UNL     1      -1.030  11.926  21.230  0.00  0.00    +0.000 A 
ATOM      3  C   UNL     1      -0.434  10.993  20.398  0.00  0.00    +0.000 A 
ATOM      4  C   UNL     1      -0.949  10.670  19.144  0.00  0.00    +0.000 A 
ATOM      5  C   UNL     1      -2.116  11.259  18.681  0.00  0.00    +0.000 A 
ATOM      6  C   UNL     1      -2.734  12.212  19.517  0.00  0.00    +0.000 A 
ATOM      7  C   UNL     1      -0.069   9.648  18.502  0.00  0.00    +0.000 C 
ATOM      8  N   UNL     1       0.946   9.376  19.509  0.00  0.00    +0.000 N 
ATOM      9  C   UNL     1       0.760  10.169  20.646  0.00  0.00    +0.000 C 
ATOM     10  O   UNL     1       1.386  10.227  21.690  0.00  0.00    +0.000 OA
ENDROOT
BRANCH   8  11
ATOM     11  C   UNL     1       1.779   8.234  19.398  0.00  0.00    +0.000 A 
ATOM     12  C   UNL     1       1.733   7.200  20.335  0.00  0.00    +0.000 A 
ATOM     13  C   UNL     1       2.364   5.979  20.080  0.00  0.00    +0.000 A 
ATOM     14  C   UNL     1       3.106   5.795  18.913  0.00  0.00    +0.000 A 
ATOM     15  C   UNL     1       3.264   6.854  18.024  0.00  0.00    +0.000 A 
ATOM     16  C   UNL     1       2.601   8.066  18.270  0.00  0.00    +0.000 A 
BRANCH  15  17
ATOM     17  C   UNL     1       4.162   6.747  16.875  0.00  0.00    +0.000 C 
ATOM     18  C   UNL     1       5.276   6.004  16.798  0.00  0.00    +0.000 C 
ATOM     19  C   UNL     1       5.955   5.718  15.465  0.00  0.00    +0.000 C 
ATOM     20  N   UNL     1       6.853   4.545  15.720  0.00  0.00    +0.000 NA
ATOM     21  C   UNL     1       6.801   4.420  17.014  0.00  0.00    +0.000 C 
ATOM     22  N   UNL     1       5.961   5.239  17.721  0.00  0.00    +0.000 N 
BRANCH  22  23
ATOM     23  C   UNL     1       6.289   5.644  19.082  0.00  0.00    +0.000 C 
ATOM     24  C   UNL     1       7.781   5.832  19.261  0.00  0.00    +0.000 C 
ENDBRANCH  22  23
ENDBRANCH  15  17
ENDBRANCH   8  11
BRANCH   5  25
ATOM     25  C   UNL     1      -2.725  10.911  17.346  0.00  0.00    +0.000 C 
ATOM     26  F   UNL     1      -3.964  11.445  17.156  0.00  0.00    +0.000 F 
ATOM     27  F   UNL     1      -1.971  11.345  16.300  0.00  0.00    +0.000 F 
ATOM     28  F   UNL     1      -2.873   9.569  17.176  0.00  0.00    +0.000 F 
ENDBRANCH   5  25
BRANCH   1  29
ATOM     29  C   UNL     1      -2.839  13.650  21.610  0.00  0.00    +0.000 C 
BRANCH  29  31
ATOM     30  C   UNL     1      -5.138  12.974  22.356  0.00  0.00    +0.000 C 
ATOM     31  C   UNL     1      -3.830  13.127  22.608  0.00  0.00    +0.000 C 
ENDBRANCH  29  31
ENDBRANCH   1  29
TORSDOF 6
ENDMDL
