MODEL 1
REMARK VINA RESULT:      -8.3      0.000      0.000
REMARK  Name = 
REMARK  6 active torsions:
REMARK  status: ('A' for Active; 'I' for Inactive)
REMARK    1  A    between atoms: C_2  and  C_19
REMARK    2  A    between atoms: N_3  and  C_4
REMARK    3  A    between atoms: C_8  and  O_9
REMARK    4  A    between atoms: O_9  and  C_10
REMARK    5  A    between atoms: C_10  and  C_11
REMARK    6  A    between atoms: C_21  and  C_22
REMARK                            x       y       z     vdW  Elec       q    Type
REMARK                         _______ _______ _______ _____ _____    ______ ____
ROOT
ATOM      1  C   UNL     1       3.267   6.880  18.096  0.00  0.00    +0.000 A 
ATOM      2  C   UNL     1       2.986   6.278  19.326  0.00  0.00    +0.000 A 
ATOM      3  C   UNL     1       2.104   6.875  20.229  0.00  0.00    +0.000 A 
ATOM      4  C   UNL     1       1.524   8.101  19.925  0.00  0.00    +0.000 A 
ATOM      5  C   UNL     1       1.853   8.746  18.733  0.00  0.00    +0.000 A 
ATOM      6  C   UNL     1       2.705   8.121  17.810  0.00  0.00    +0.000 A 
ENDROOT
BRANCH   1   9
ATOM      7  O   UNL     1       6.145   7.105  17.852  0.00  0.00    +0.000 OA
ATOM      8  C   UNL     1       5.467   6.465  17.059  0.00  0.00    +0.000 C 
ATOM      9  N   UNL     1       4.101   6.292  17.124  0.00  0.00    +0.000 N 
ATOM     10  H   UNL     1       3.707   5.604  16.490  0.00  0.00    +0.000 HD
BRANCH   8  11
ATOM     11  C   UNL     1       6.134   5.776  15.950  0.00  0.00    +0.000 A 
ATOM     12  C   UNL     1       5.497   4.857  15.085  0.00  0.00    +0.000 A 
ATOM     13  C   UNL     1       6.495   4.391  14.276  0.00  0.00    +0.000 A 
ATOM     14  O   UNL     1       7.655   5.036  14.584  0.00  0.00    +0.000 OA
ATOM     15  N   UNL     1       7.434   5.919  15.640  0.00  0.00    +0.000 NA
BRANCH  13  16
ATOM     16  C   UNL     1       6.310   3.312  13.231  0.00  0.00    +0.000 C 
ATOM     17  C   UNL     1       6.690   3.634  11.803  0.00  0.00    +0.000 C 
ATOM     18  C   UNL     1       5.252   3.506  12.173  0.00  0.00    +0.000 C 
ENDBRANCH  13  16
ENDBRANCH   8  11
ENDBRANCH   1   9
BRANCH   5  19
ATOM     19  O   UNL     1       1.302   9.988  18.544  0.00  0.00    +0.000 OA
BRANCH  19  20
ATOM     20  C   UNL     1       0.193  10.261  19.408  0.00  0.00    +0.000 C 
BRANCH  20  21
ATOM     21  C   UNL     1      -1.088  10.486  18.646  0.00  0.00    +0.000 A 
ATOM     22  C   UNL     1      -2.029  11.439  19.062  0.00  0.00    +0.000 A 
ATOM     23  C   UNL     1      -3.149  11.709  18.278  0.00  0.00    +0.000 A 
ATOM     24  C   UNL     1      -3.323  11.036  17.075  0.00  0.00    +0.000 A 
ATOM     25  F   UNL     1      -4.388  11.313  16.312  0.00  0.00    +0.000 F 
ATOM     26  C   UNL     1      -2.401  10.092  16.641  0.00  0.00    +0.000 A 
ATOM     27  C   UNL     1      -1.282   9.818  17.425  0.00  0.00    +0.000 A 
ENDBRANCH  20  21
ENDBRANCH  19  20
ENDBRANCH   5  19
TORSDOF 6
ENDMDL
MODEL 2
REMARK VINA RESULT:      -8.3      2.416      2.962
REMARK  Name = 
REMARK  6 active torsions:
REMARK  status: ('A' for Active; 'I' for Inactive)
REMARK    1  A    between atoms: C_2  and  C_19
REMARK    2  A    between atoms: N_3  and  C_4
REMARK    3  A    between atoms: C_8  and  O_9
REMARK    4  A    between atoms: O_9  and  C_10
REMARK    5  A    between atoms: C_10  and  C_11
REMARK    6  A    between atoms: C_21  and  C_22
REMARK                            x       y       z     vdW  Elec       q    Type
REMARK                         _______ _______ _______ _____ _____    ______ ____
ROOT
ATOM      1  C   UNL     1       3.505   5.421  18.206  0.00  0.00    +0.000 A 
ATOM      2  C   UNL     1       3.188   4.337  19.030  0.00  0.00    +0.000 A 
ATOM      3  C   UNL     1       2.361   4.503  20.142  0.00  0.00    +0.000 A 
ATOM      4  C   UNL     1       1.873   5.764  20.463  0.00  0.00    +0.000 A 
ATOM      5  C   UNL     1       2.241   6.866  19.691  0.00  0.00    +0.000 A 
ATOM      6  C   UNL     1       3.036   6.687  18.549  0.00  0.00    +0.000 A 
ENDROOT
BRANCH   1   9
ATOM      7  O   UNL     1       6.346   4.888  18.013  0.00  0.00    +0.000 OA
ATOM      8  C   UNL     1       5.643   5.066  17.027  0.00  0.00    +0.000 C 
ATOM      9  N   UNL     1       4.284   5.299  17.039  0.00  0.00    +0.000 N 
ATOM     10  H   UNL     1       3.817   5.265  16.138  0.00  0.00    +0.000 HD
BRANCH   8  11
ATOM     11  C   UNL     1       6.256   4.996  15.697  0.00  0.00    +0.000 A 
ATOM     12  C   UNL     1       5.673   4.349  14.585  0.00  0.00    +0.000 A 
ATOM     13  C   UNL     1       6.612   4.441  13.596  0.00  0.00    +0.000 A 
ATOM     14  O   UNL     1       7.674   5.160  14.057  0.00  0.00    +0.000 OA
ATOM     15  N   UNL     1       7.454   5.519  15.386  0.00  0.00    +0.000 NA
BRANCH  13  16
ATOM     16  C   UNL     1       6.471   3.812  12.226  0.00  0.00    +0.000 C 
ATOM     17  C   UNL     1       5.082   3.445  11.753  0.00  0.00    +0.000 C 
ATOM     18  C   UNL     1       6.039   2.369  12.136  0.00  0.00    +0.000 C 
ENDBRANCH  13  16
ENDBRANCH   8  11
ENDBRANCH   1   9
BRANCH   5  19
ATOM     19  O   UNL     1       1.785   8.087  20.120  0.00  0.00    +0.000 OA
BRANCH  19  20
ATOM     20  C   UNL     1       1.180   8.048  21.417  0.00  0.00    +0.000 C 
BRANCH  20  21
ATOM     21  C   UNL     1       0.255   9.215  21.656  0.00  0.00    +0.000 A 
ATOM     22  C   UNL     1      -0.283   9.474  22.924  0.00  0.00    +0.000 A 
ATOM     23  C   UNL     1      -1.041  10.624  23.143  0.00  0.00    +0.000 A 
ATOM     24  C   UNL     1      -1.251  11.517  22.100  0.00  0.00    +0.000 A 
ATOM     25  F   UNL     1      -1.961  12.631  22.319  0.00  0.00    +0.000 F 
ATOM     26  C   UNL     1      -0.723  11.282  20.837  0.00  0.00    +0.000 A 
ATOM     27  C   UNL     1       0.033  10.133  20.614  0.00  0.00    +0.000 A 
ENDBRANCH  20  21
ENDBRANCH  19  20
ENDBRANCH   5  19
TORSDOF 6
ENDMDL
MODEL 3
REMARK VINA RESULT:      -8.3      2.691      3.075
REMARK  Name = 
REMARK  6 active torsions:
REMARK  status: ('A' for Active; 'I' for Inactive)
REMARK    1  A    between atoms: C_2  and  C_19
REMARK    2  A    between atoms: N_3  and  C_4
REMARK    3  A    between atoms: C_8  and  O_9
REMARK    4  A    between atoms: O_9  and  C_10
REMARK    5  A    between atoms: C_10  and  C_11
REMARK    6  A    between atoms: C_21  and  C_22
REMARK                            x       y       z     vdW  Elec       q    Type
REMARK                         _______ _______ _______ _____ _____    ______ ____
ROOT
ATOM      1  C   UNL     1       3.268   5.483  18.650  0.00  0.00    +0.000 A 
ATOM      2  C   UNL     1       2.864   4.461  19.514  0.00  0.00    +0.000 A 
ATOM      3  C   UNL     1       2.002   4.725  20.579  0.00  0.00    +0.000 A 
ATOM      4  C   UNL     1       1.566   6.025  20.813  0.00  0.00    +0.000 A 
ATOM      5  C   UNL     1       2.020   7.064  20.002  0.00  0.00    +0.000 A 
ATOM      6  C   UNL     1       2.851   6.786  18.907  0.00  0.00    +0.000 A 
ENDROOT
BRANCH   1   9
ATOM      7  O   UNL     1       6.135   5.845  18.438  0.00  0.00    +0.000 OA
ATOM      8  C   UNL     1       5.448   5.479  17.494  0.00  0.00    +0.000 C 
ATOM      9  N   UNL     1       4.087   5.261  17.525  0.00  0.00    +0.000 N 
ATOM     10  H   UNL     1       3.689   4.805  16.709  0.00  0.00    +0.000 HD
BRANCH   8  11
ATOM     11  C   UNL     1       6.098   5.201  16.209  0.00  0.00    +0.000 A 
ATOM     12  C   UNL     1       5.620   4.271  15.259  0.00  0.00    +0.000 A 
ATOM     13  C   UNL     1       6.567   4.260  14.275  0.00  0.00    +0.000 A 
ATOM     14  O   UNL     1       7.531   5.176  14.573  0.00  0.00    +0.000 OA
ATOM     15  N   UNL     1       7.239   5.780  15.796  0.00  0.00    +0.000 NA
BRANCH  13  16
ATOM     16  C   UNL     1       6.532   3.345  13.069  0.00  0.00    +0.000 C 
ATOM     17  C   UNL     1       6.770   3.956  11.706  0.00  0.00    +0.000 C 
ATOM     18  C   UNL     1       5.403   3.497  12.080  0.00  0.00    +0.000 C 
ENDBRANCH  13  16
ENDBRANCH   8  11
ENDBRANCH   1   9
BRANCH   5  19
ATOM     19  O   UNL     1       1.609   8.327  20.349  0.00  0.00    +0.000 OA
BRANCH  19  20
ATOM     20  C   UNL     1       0.976   8.392  21.630  0.00  0.00    +0.000 C 
BRANCH  20  21
ATOM     21  C   UNL     1       0.362   9.742  21.902  0.00  0.00    +0.000 A 
ATOM     22  C   UNL     1       0.619  10.843  21.073  0.00  0.00    +0.000 A 
ATOM     23  C   UNL     1      -0.051  12.048  21.279  0.00  0.00    +0.000 A 
ATOM     24  C   UNL     1      -0.983  12.149  22.304  0.00  0.00    +0.000 A 
ATOM     25  F   UNL     1      -1.641  13.301  22.485  0.00  0.00    +0.000 F 
ATOM     26  C   UNL     1      -1.257  11.070  23.133  0.00  0.00    +0.000 A 
ATOM     27  C   UNL     1      -0.587   9.864  22.932  0.00  0.00    +0.000 A 
ENDBRANCH  20  21
ENDBRANCH  19  20
ENDBRANCH   5  19
TORSDOF 6
ENDMDL
MODEL 4
REMARK VINA RESULT:      -8.3      2.652      3.449
REMARK  Name = 
REMARK  6 active torsions:
REMARK  status: ('A' for Active; 'I' for Inactive)
REMARK    1  A    between atoms: C_2  and  C_19
REMARK    2  A    between atoms: N_3  and  C_4
REMARK    3  A    between atoms: C_8  and  O_9
REMARK    4  A    between atoms: O_9  and  C_10
REMARK    5  A    between atoms: C_10  and  C_11
REMARK    6  A    between atoms: C_21  and  C_22
REMARK                            x       y       z     vdW  Elec       q    Type
REMARK                         _______ _______ _______ _____ _____    ______ ____
ROOT
ATOM      1  C   UNL     1       3.179   4.122  18.796  0.00  0.00    +0.000 A 
ATOM      2  C   UNL     1       2.835   2.893  19.365  0.00  0.00    +0.000 A 
ATOM      3  C   UNL     1       1.951   2.826  20.442  0.00  0.00    +0.000 A 
ATOM      4  C   UNL     1       1.430   3.995  20.986  0.00  0.00    +0.000 A 
ATOM      5  C   UNL     1       1.822   5.232  20.474  0.00  0.00    +0.000 A 
ATOM      6  C   UNL     1       2.677   5.291  19.364  0.00  0.00    +0.000 A 
ENDROOT
BRANCH   1   9
ATOM      7  O   UNL     1       6.072   4.274  18.743  0.00  0.00    +0.000 OA
ATOM      8  C   UNL     1       5.393   4.333  17.726  0.00  0.00    +0.000 C 
ATOM      9  N   UNL     1       4.018   4.242  17.670  0.00  0.00    +0.000 N 
ATOM     10  H   UNL     1       3.614   4.145  16.744  0.00  0.00    +0.000 HD
BRANCH   8  11
ATOM     11  C   UNL     1       6.065   4.472  16.431  0.00  0.00    +0.000 A 
ATOM     12  C   UNL     1       5.408   4.410  15.182  0.00  0.00    +0.000 A 
ATOM     13  C   UNL     1       6.410   4.489  14.257  0.00  0.00    +0.000 A 
ATOM     14  O   UNL     1       7.599   4.657  14.901  0.00  0.00    +0.000 OA
ATOM     15  N   UNL     1       7.389   4.652  16.279  0.00  0.00    +0.000 NA
BRANCH  13  16
ATOM     16  C   UNL     1       6.200   4.380  12.761  0.00  0.00    +0.000 C 
ATOM     17  C   UNL     1       5.932   3.009  12.181  0.00  0.00    +0.000 C 
ATOM     18  C   UNL     1       7.244   3.670  11.936  0.00  0.00    +0.000 C 
ENDBRANCH  13  16
ENDBRANCH   8  11
ENDBRANCH   1   9
BRANCH   5  19
ATOM     19  O   UNL     1       1.329   6.338  21.118  0.00  0.00    +0.000 OA
BRANCH  19  20
ATOM     20  C   UNL     1       1.708   7.575  20.505  0.00  0.00    +0.000 C 
BRANCH  20  21
ATOM     21  C   UNL     1       0.843   8.727  20.948  0.00  0.00    +0.000 A 
ATOM     22  C   UNL     1       0.518   8.921  22.298  0.00  0.00    +0.000 A 
ATOM     23  C   UNL     1      -0.186  10.058  22.694  0.00  0.00    +0.000 A 
ATOM     24  C   UNL     1      -0.554  11.003  21.745  0.00  0.00    +0.000 A 
ATOM     25  F   UNL     1      -1.211  12.104  22.131  0.00  0.00    +0.000 F 
ATOM     26  C   UNL     1      -0.238  10.833  20.403  0.00  0.00    +0.000 A 
ATOM     27  C   UNL     1       0.463   9.697  20.004  0.00  0.00    +0.000 A 
ENDBRANCH  20  21
ENDBRANCH  19  20
ENDBRANCH   5  19
TORSDOF 6
ENDMDL
MODEL 5
REMARK VINA RESULT:      -8.2      0.452      1.051
REMARK  Name = 
REMARK  6 active torsions:
REMARK  status: ('A' for Active; 'I' for Inactive)
REMARK    1  A    between atoms: C_2  and  C_19
REMARK    2  A    between atoms: N_3  and  C_4
REMARK    3  A    between atoms: C_8  and  O_9
REMARK    4  A    between atoms: O_9  and  C_10
REMARK    5  A    between atoms: C_10  and  C_11
REMARK    6  A    between atoms: C_21  and  C_22
REMARK                            x       y       z     vdW  Elec       q    Type
REMARK                         _______ _______ _______ _____ _____    ______ ____
ROOT
ATOM      1  C   UNL     1       3.143   7.242  18.107  0.00  0.00    +0.000 A 
ATOM      2  C   UNL     1       2.895   6.629  19.338  0.00  0.00    +0.000 A 
ATOM      3  C   UNL     1       1.998   7.191  20.247  0.00  0.00    +0.000 A 
ATOM      4  C   UNL     1       1.367   8.394  19.948  0.00  0.00    +0.000 A 
ATOM      5  C   UNL     1       1.662   9.052  18.755  0.00  0.00    +0.000 A 
ATOM      6  C   UNL     1       2.531   8.461  17.826  0.00  0.00    +0.000 A 
ENDROOT
BRANCH   1   9
ATOM      7  O   UNL     1       5.698   5.933  18.503  0.00  0.00    +0.000 OA
ATOM      8  C   UNL     1       5.211   6.099  17.393  0.00  0.00    +0.000 C 
ATOM      9  N   UNL     1       3.993   6.688  17.128  0.00  0.00    +0.000 N 
ATOM     10  H   UNL     1       3.654   6.606  16.174  0.00  0.00    +0.000 HD
BRANCH   8  11
ATOM     11  C   UNL     1       5.937   5.607  16.219  0.00  0.00    +0.000 A 
ATOM     12  C   UNL     1       5.419   4.672  15.295  0.00  0.00    +0.000 A 
ATOM     13  C   UNL     1       6.449   4.428  14.431  0.00  0.00    +0.000 A 
ATOM     14  O   UNL     1       7.509   5.217  14.767  0.00  0.00    +0.000 OA
ATOM     15  N   UNL     1       7.191   5.970  15.896  0.00  0.00    +0.000 NA
BRANCH  13  16
ATOM     16  C   UNL     1       6.395   3.417  13.305  0.00  0.00    +0.000 C 
ATOM     17  C   UNL     1       6.752   3.887  11.912  0.00  0.00    +0.000 C 
ATOM     18  C   UNL     1       5.333   3.574  12.245  0.00  0.00    +0.000 C 
ENDBRANCH  13  16
ENDBRANCH   8  11
ENDBRANCH   1   9
BRANCH   5  19
ATOM     19  O   UNL     1       1.063  10.272  18.571  0.00  0.00    +0.000 OA
BRANCH  19  20
ATOM     20  C   UNL     1      -0.140  10.439  19.329  0.00  0.00    +0.000 C 
BRANCH  20  21
ATOM     21  C   UNL     1      -1.350  10.641  18.452  0.00  0.00    +0.000 A 
ATOM     22  C   UNL     1      -1.566   9.857  17.310  0.00  0.00    +0.000 A 
ATOM     23  C   UNL     1      -2.748   9.986  16.584  0.00  0.00    +0.000 A 
ATOM     24  C   UNL     1      -3.717  10.889  17.003  0.00  0.00    +0.000 A 
ATOM     25  F   UNL     1      -4.862  10.994  16.316  0.00  0.00    +0.000 F 
ATOM     26  C   UNL     1      -3.527  11.671  18.134  0.00  0.00    +0.000 A 
ATOM     27  C   UNL     1      -2.344  11.547  18.861  0.00  0.00    +0.000 A 
ENDBRANCH  20  21
ENDBRANCH  19  20
ENDBRANCH   5  19
TORSDOF 6
ENDMDL
MODEL 6
REMARK VINA RESULT:      -8.2      2.612      3.473
REMARK  Name = 
REMARK  6 active torsions:
REMARK  status: ('A' for Active; 'I' for Inactive)
REMARK    1  A    between atoms: C_2  and  C_19
REMARK    2  A    between atoms: N_3  and  C_4
REMARK    3  A    between atoms: C_8  and  O_9
REMARK    4  A    between atoms: O_9  and  C_10
REMARK    5  A    between atoms: C_10  and  C_11
REMARK    6  A    between atoms: C_21  and  C_22
REMARK                            x       y       z     vdW  Elec       q    Type
REMARK                         _______ _______ _______ _____ _____    ______ ____
ROOT
ATOM      1  C   UNL     1       3.462   4.258  19.014  0.00  0.00    +0.000 A 
ATOM      2  C   UNL     1       3.441   3.128  19.836  0.00  0.00    +0.000 A 
ATOM      3  C   UNL     1       2.628   3.083  20.969  0.00  0.00    +0.000 A 
ATOM      4  C   UNL     1       1.854   4.187  21.312  0.00  0.00    +0.000 A 
ATOM      5  C   UNL     1       1.922   5.347  20.541  0.00  0.00    +0.000 A 
ATOM      6  C   UNL     1       2.708   5.370  19.379  0.00  0.00    +0.000 A 
ENDROOT
BRANCH   1   9
ATOM      7  O   UNL     1       6.342   4.431  18.748  0.00  0.00    +0.000 OA
ATOM      8  C   UNL     1       5.592   4.437  17.780  0.00  0.00    +0.000 C 
ATOM      9  N   UNL     1       4.218   4.333  17.827  0.00  0.00    +0.000 N 
ATOM     10  H   UNL     1       3.750   4.190  16.937  0.00  0.00    +0.000 HD
BRANCH   8  11
ATOM     11  C   UNL     1       6.169   4.523  16.435  0.00  0.00    +0.000 A 
ATOM     12  C   UNL     1       5.430   4.371  15.241  0.00  0.00    +0.000 A 
ATOM     13  C   UNL     1       6.363   4.426  14.244  0.00  0.00    +0.000 A 
ATOM     14  O   UNL     1       7.587   4.666  14.794  0.00  0.00    +0.000 OA
ATOM     15  N   UNL     1       7.472   4.733  16.181  0.00  0.00    +0.000 NA
BRANCH  13  16
ATOM     16  C   UNL     1       6.055   4.226  12.776  0.00  0.00    +0.000 C 
ATOM     17  C   UNL     1       6.124   2.820  12.222  0.00  0.00    +0.000 C 
ATOM     18  C   UNL     1       7.174   3.811  11.853  0.00  0.00    +0.000 C 
ENDBRANCH  13  16
ENDBRANCH   8  11
ENDBRANCH   1   9
BRANCH   5  19
ATOM     19  O   UNL     1       1.193   6.418  20.992  0.00  0.00    +0.000 OA
BRANCH  19  20
ATOM     20  C   UNL     1       1.842   7.678  20.793  0.00  0.00    +0.000 C 
BRANCH  20  21
ATOM     21  C   UNL     1       0.957   8.845  21.151  0.00  0.00    +0.000 A 
ATOM     22  C   UNL     1       0.314   9.605  20.165  0.00  0.00    +0.000 A 
ATOM     23  C   UNL     1      -0.589  10.604  20.526  0.00  0.00    +0.000 A 
ATOM     24  C   UNL     1      -0.856  10.835  21.870  0.00  0.00    +0.000 A 
ATOM     25  F   UNL     1      -1.740  11.780  22.213  0.00  0.00    +0.000 F 
ATOM     26  C   UNL     1      -0.234  10.090  22.863  0.00  0.00    +0.000 A 
ATOM     27  C   UNL     1       0.672   9.093  22.505  0.00  0.00    +0.000 A 
ENDBRANCH  20  21
ENDBRANCH  19  20
ENDBRANCH   5  19
TORSDOF 6
ENDMDL
MODEL 7
REMARK VINA RESULT:      -8.2      2.156      3.196
REMARK  Name = 
REMARK  6 active torsions:
REMARK  status: ('A' for Active; 'I' for Inactive)
REMARK    1  A    between atoms: C_2  and  C_19
REMARK    2  A    between atoms: N_3  and  C_4
REMARK    3  A    between atoms: C_8  and  O_9
REMARK    4  A    between atoms: O_9  and  C_10
REMARK    5  A    between atoms: C_10  and  C_11
REMARK    6  A    between atoms: C_21  and  C_22
REMARK                            x       y       z     vdW  Elec       q    Type
REMARK                         _______ _______ _______ _____ _____    ______ ____
ROOT
ATOM      1  C   UNL     1       2.942   3.940  18.349  0.00  0.00    +0.000 A 
ATOM      2  C   UNL     1       2.400   2.713  18.743  0.00  0.00    +0.000 A 
ATOM      3  C   UNL     1       1.456   2.645  19.768  0.00  0.00    +0.000 A 
ATOM      4  C   UNL     1       1.072   3.803  20.437  0.00  0.00    +0.000 A 
ATOM      5  C   UNL     1       1.659   5.022  20.102  0.00  0.00    +0.000 A 
ATOM      6  C   UNL     1       2.575   5.091  19.042  0.00  0.00    +0.000 A 
ENDROOT
BRANCH   1   9
ATOM      7  O   UNL     1       5.826   4.181  18.491  0.00  0.00    +0.000 OA
ATOM      8  C   UNL     1       5.216   4.206  17.430  0.00  0.00    +0.000 C 
ATOM      9  N   UNL     1       3.852   4.072  17.282  0.00  0.00    +0.000 N 
ATOM     10  H   UNL     1       3.515   3.952  16.331  0.00  0.00    +0.000 HD
BRANCH   8  11
ATOM     11  C   UNL     1       5.971   4.351  16.181  0.00  0.00    +0.000 A 
ATOM     12  C   UNL     1       5.440   4.099  14.896  0.00  0.00    +0.000 A 
ATOM     13  C   UNL     1       6.497   4.262  14.045  0.00  0.00    +0.000 A 
ATOM     14  O   UNL     1       7.588   4.655  14.760  0.00  0.00    +0.000 OA
ATOM     15  N   UNL     1       7.262   4.719  16.114  0.00  0.00    +0.000 NA
BRANCH  13  16
ATOM     16  C   UNL     1       6.435   4.012  12.553  0.00  0.00    +0.000 C 
ATOM     17  C   UNL     1       5.159   3.434  11.982  0.00  0.00    +0.000 C 
ATOM     18  C   UNL     1       6.382   2.587  12.061  0.00  0.00    +0.000 C 
ENDBRANCH  13  16
ENDBRANCH   8  11
ENDBRANCH   1   9
BRANCH   5  19
ATOM     19  O   UNL     1       1.288   6.102  20.862  0.00  0.00    +0.000 OA
BRANCH  19  20
ATOM     20  C   UNL     1       2.137   7.242  20.691  0.00  0.00    +0.000 C 
BRANCH  20  21
ATOM     21  C   UNL     1       1.421   8.402  20.045  0.00  0.00    +0.000 A 
ATOM     22  C   UNL     1       1.679   8.774  18.719  0.00  0.00    +0.000 A 
ATOM     23  C   UNL     1       0.922   9.773  18.110  0.00  0.00    +0.000 A 
ATOM     24  C   UNL     1      -0.098  10.392  18.822  0.00  0.00    +0.000 A 
ATOM     25  F   UNL     1      -0.838  11.337  18.228  0.00  0.00    +0.000 F 
ATOM     26  C   UNL     1      -0.374  10.036  20.136  0.00  0.00    +0.000 A 
ATOM     27  C   UNL     1       0.383   9.039  20.748  0.00  0.00    +0.000 A 
ENDBRANCH  20  21
ENDBRANCH  19  20
ENDBRANCH   5  19
TORSDOF 6
ENDMDL
MODEL 8
REMARK VINA RESULT:      -8.1      1.075      1.379
REMARK  Name = 
REMARK  6 active torsions:
REMARK  status: ('A' for Active; 'I' for Inactive)
REMARK    1  A    between atoms: C_2  and  C_19
REMARK    2  A    between atoms: N_3  and  C_4
REMARK    3  A    between atoms: C_8  and  O_9
REMARK    4  A    between atoms: O_9  and  C_10
REMARK    5  A    between atoms: C_10  and  C_11
REMARK    6  A    between atoms: C_21  and  C_22
REMARK                            x       y       z     vdW  Elec       q    Type
REMARK                         _______ _______ _______ _____ _____    ______ ____
ROOT
ATOM      1  C   UNL     1       3.243   5.876  18.591  0.00  0.00    +0.000 A 
ATOM      2  C   UNL     1       2.888   4.964  19.589  0.00  0.00    +0.000 A 
ATOM      3  C   UNL     1       2.027   5.335  20.623  0.00  0.00    +0.000 A 
ATOM      4  C   UNL     1       1.543   6.637  20.690  0.00  0.00    +0.000 A 
ATOM      5  C   UNL     1       1.949   7.576  19.742  0.00  0.00    +0.000 A 
ATOM      6  C   UNL     1       2.778   7.186  18.680  0.00  0.00    +0.000 A 
ENDROOT
BRANCH   1   9
ATOM      7  O   UNL     1       6.104   6.250  18.318  0.00  0.00    +0.000 OA
ATOM      8  C   UNL     1       5.417   5.769  17.427  0.00  0.00    +0.000 C 
ATOM      9  N   UNL     1       4.059   5.537  17.493  0.00  0.00    +0.000 N 
ATOM     10  H   UNL     1       3.662   4.986  16.738  0.00  0.00    +0.000 HD
BRANCH   8  11
ATOM     11  C   UNL     1       6.063   5.354  16.179  0.00  0.00    +0.000 A 
ATOM     12  C   UNL     1       5.504   4.439  15.258  0.00  0.00    +0.000 A 
ATOM     13  C   UNL     1       6.469   4.269  14.306  0.00  0.00    +0.000 A 
ATOM     14  O   UNL     1       7.525   5.083  14.591  0.00  0.00    +0.000 OA
ATOM     15  N   UNL     1       7.273   5.777  15.774  0.00  0.00    +0.000 NA
BRANCH  13  16
ATOM     16  C   UNL     1       6.360   3.304  13.144  0.00  0.00    +0.000 C 
ATOM     17  C   UNL     1       6.730   3.807  11.767  0.00  0.00    +0.000 C 
ATOM     18  C   UNL     1       5.300   3.551  12.099  0.00  0.00    +0.000 C 
ENDBRANCH  13  16
ENDBRANCH   8  11
ENDBRANCH   1   9
BRANCH   5  19
ATOM     19  O   UNL     1       1.493   8.857  19.924  0.00  0.00    +0.000 OA
BRANCH  19  20
ATOM     20  C   UNL     1       1.029   9.477  18.720  0.00  0.00    +0.000 C 
BRANCH  20  21
ATOM     21  C   UNL     1      -0.260  10.233  18.921  0.00  0.00    +0.000 A 
ATOM     22  C   UNL     1      -0.462  11.049  20.042  0.00  0.00    +0.000 A 
ATOM     23  C   UNL     1      -1.615  11.827  20.145  0.00  0.00    +0.000 A 
ATOM     24  C   UNL     1      -2.557  11.797  19.125  0.00  0.00    +0.000 A 
ATOM     25  F   UNL     1      -3.653  12.561  19.216  0.00  0.00    +0.000 F 
ATOM     26  C   UNL     1      -2.374  10.999  18.003  0.00  0.00    +0.000 A 
ATOM     27  C   UNL     1      -1.225  10.219  17.898  0.00  0.00    +0.000 A 
ENDBRANCH  20  21
ENDBRANCH  19  20
ENDBRANCH   5  19
TORSDOF 6
ENDMDL
MODEL 9
REMARK VINA RESULT:      -8.0      3.723      5.639
REMARK  Name = 
REMARK  6 active torsions:
REMARK  status: ('A' for Active; 'I' for Inactive)
REMARK    1  A    between atoms: C_2  and  C_19
REMARK    2  A    between atoms: N_3  and  C_4
REMARK    3  A    between atoms: C_8  and  O_9
REMARK    4  A    between atoms: O_9  and  C_10
REMARK    5  A    between atoms: C_10  and  C_11
REMARK    6  A    between atoms: C_21  and  C_22
REMARK                            x       y       z     vdW  Elec       q    Type
REMARK                         _______ _______ _______ _____ _____    ______ ____
ROOT
ATOM      1  C   UNL     1       3.286   7.047  17.881  0.00  0.00    +0.000 A 
ATOM      2  C   UNL     1       2.764   8.342  17.820  0.00  0.00    +0.000 A 
ATOM      3  C   UNL     1       1.949   8.832  18.841  0.00  0.00    +0.000 A 
ATOM      4  C   UNL     1       1.618   8.017  19.918  0.00  0.00    +0.000 A 
ATOM      5  C   UNL     1       2.073   6.699  19.954  0.00  0.00    +0.000 A 
ATOM      6  C   UNL     1       2.927   6.226  18.947  0.00  0.00    +0.000 A 
ENDROOT
BRANCH   1   9
ATOM      7  O   UNL     1       5.997   6.094  18.256  0.00  0.00    +0.000 OA
ATOM      8  C   UNL     1       5.452   6.109  17.160  0.00  0.00    +0.000 C 
ATOM      9  N   UNL     1       4.161   6.523  16.909  0.00  0.00    +0.000 N 
ATOM     10  H   UNL     1       3.801   6.324  15.980  0.00  0.00    +0.000 HD
BRANCH   8  11
ATOM     11  C   UNL     1       6.191   5.616  15.993  0.00  0.00    +0.000 A 
ATOM     12  C   UNL     1       5.672   4.700  15.051  0.00  0.00    +0.000 A 
ATOM     13  C   UNL     1       6.713   4.446  14.203  0.00  0.00    +0.000 A 
ATOM     14  O   UNL     1       7.780   5.212  14.565  0.00  0.00    +0.000 OA
ATOM     15  N   UNL     1       7.456   5.960  15.696  0.00  0.00    +0.000 NA
BRANCH  13  16
ATOM     16  C   UNL     1       6.661   3.448  13.066  0.00  0.00    +0.000 C 
ATOM     17  C   UNL     1       6.852   3.965  11.658  0.00  0.00    +0.000 C 
ATOM     18  C   UNL     1       5.503   3.513  12.100  0.00  0.00    +0.000 C 
ENDBRANCH  13  16
ENDBRANCH   8  11
ENDBRANCH   1   9
BRANCH   5  19
ATOM     19  O   UNL     1       1.636   5.936  21.007  0.00  0.00    +0.000 OA
BRANCH  19  20
ATOM     20  C   UNL     1       0.916   4.765  20.605  0.00  0.00    +0.000 C 
BRANCH  20  21
ATOM     21  C   UNL     1       1.802   3.746  19.934  0.00  0.00    +0.000 A 
ATOM     22  C   UNL     1       2.934   3.225  20.577  0.00  0.00    +0.000 A 
ATOM     23  C   UNL     1       3.669   2.200  19.982  0.00  0.00    +0.000 A 
ATOM     24  C   UNL     1       3.267   1.691  18.753  0.00  0.00    +0.000 A 
ATOM     25  F   UNL     1       3.962   0.692  18.195  0.00  0.00    +0.000 F 
ATOM     26  C   UNL     1       2.146   2.189  18.102  0.00  0.00    +0.000 A 
ATOM     27  C   UNL     1       1.411   3.215  18.693  0.00  0.00    +0.000 A 
ENDBRANCH  20  21
ENDBRANCH  19  20
ENDBRANCH   5  19
TORSDOF 6
ENDMDL
