MODEL 1
REMARK VINA RESULT:      -8.7      0.000      0.000
REMARK  Name = 
REMARK  5 active torsions:
REMARK  status: ('A' for Active; 'I' for Inactive)
REMARK    1  A    between atoms: C_2  and  C_16
REMARK    2  A    between atoms: N_3  and  C_4
REMARK    3  A    between atoms: C_9  and  C_10
REMARK    4  A    between atoms: N_12  and  C_13
REMARK    5  A    between atoms: C_20  and  N_21
REMARK                            x       y       z     vdW  Elec       q    Type
REMARK                         _______ _______ _______ _____ _____    ______ ____
ROOT
ATOM      1  O   UNL     1       3.575   6.322  19.572  0.00  0.00    +0.000 OA
ATOM      2  C   UNL     1       3.062   6.897  18.620  0.00  0.00    +0.000 C 
ATOM      3  N   UNL     1       3.376   6.693  17.286  0.00  0.00    +0.000 N 
ATOM      4  H   UNL     1       3.160   7.443  16.635  0.00  0.00    +0.000 HD
ENDROOT
BRANCH   3   5
ATOM      5  C   UNL     1       4.348   5.752  16.871  0.00  0.00    +0.000 A 
ATOM      6  C   UNL     1       5.547   6.198  16.296  0.00  0.00    +0.000 A 
ATOM      7  C   UNL     1       6.544   5.289  15.924  0.00  0.00    +0.000 A 
ATOM      8  C   UNL     1       6.350   3.925  16.121  0.00  0.00    +0.000 A 
ATOM      9  C   UNL     1       5.160   3.469  16.691  0.00  0.00    +0.000 A 
ATOM     10  C   UNL     1       4.154   4.372  17.069  0.00  0.00    +0.000 A 
BRANCH  10  11
ATOM     11  C   UNL     1       2.891   3.778  17.593  0.00  0.00    +0.000 C 
ATOM     12  O   UNL     1       1.892   3.738  16.884  0.00  0.00    +0.000 OA
ATOM     13  N   UNL     1       2.915   3.339  18.912  0.00  0.00    +0.000 N 
ATOM     14  H   UNL     1       3.699   3.636  19.482  0.00  0.00    +0.000 HD
BRANCH  13  15
ATOM     15  C   UNL     1       1.716   2.945  19.590  0.00  0.00    +0.000 C 
ATOM     16  C   UNL     1       0.911   3.955  20.364  0.00  0.00    +0.000 C 
ATOM     17  C   UNL     1       1.649   2.868  21.091  0.00  0.00    +0.000 C 
ENDBRANCH  13  15
ENDBRANCH  10  11
ENDBRANCH   3   5
BRANCH   2  18
ATOM     18  C   UNL     1       2.141   8.030  18.877  0.00  0.00    +0.000 A 
ATOM     19  C   UNL     1       1.645   8.740  17.779  0.00  0.00    +0.000 A 
ATOM     20  C   UNL     1       0.746   9.786  17.975  0.00  0.00    +0.000 A 
ATOM     21  C   UNL     1       0.335  10.125  19.267  0.00  0.00    +0.000 A 
ATOM     22  C   UNL     1       0.835   9.419  20.372  0.00  0.00    +0.000 A 
ATOM     23  C   UNL     1       1.755   8.376  20.176  0.00  0.00    +0.000 A 
BRANCH  22  24
ATOM     24  N   UNL     1       0.403   9.728  21.684  0.00  0.00    +0.000 N 
ATOM     25  C   UNL     1      -0.688  10.449  22.098  0.00  0.00    +0.000 A 
ATOM     26  N   UNL     1      -0.736  10.451  23.409  0.00  0.00    +0.000 NA
ATOM     27  N   UNL     1       0.348   9.722  23.821  0.00  0.00    +0.000 NA
ATOM     28  N   UNL     1       1.045   9.278  22.785  0.00  0.00    +0.000 NA
ENDBRANCH  22  24
ENDBRANCH   2  18
TORSDOF 5
ENDMDL
MODEL 2
REMARK VINA RESULT:      -8.4      1.667      3.810
REMARK  Name = 
REMARK  5 active torsions:
REMARK  status: ('A' for Active; 'I' for Inactive)
REMARK    1  A    between atoms: C_2  and  C_16
REMARK    2  A    between atoms: N_3  and  C_4
REMARK    3  A    between atoms: C_9  and  C_10
REMARK    4  A    between atoms: N_12  and  C_13
REMARK    5  A    between atoms: C_20  and  N_21
REMARK                            x       y       z     vdW  Elec       q    Type
REMARK                         _______ _______ _______ _____ _____    ______ ____
ROOT
ATOM      1  O   UNL     1       2.073   5.980  18.036  0.00  0.00    +0.000 OA
ATOM      2  C   UNL     1       2.303   6.625  19.052  0.00  0.00    +0.000 C 
ATOM      3  N   UNL     1       2.735   6.104  20.261  0.00  0.00    +0.000 N 
ATOM      4  H   UNL     1       2.555   6.653  21.097  0.00  0.00    +0.000 HD
ENDROOT
BRANCH   3   5
ATOM      5  C   UNL     1       2.978   4.722  20.448  0.00  0.00    +0.000 A 
ATOM      6  C   UNL     1       2.112   3.966  21.252  0.00  0.00    +0.000 A 
ATOM      7  C   UNL     1       2.303   2.589  21.410  0.00  0.00    +0.000 A 
ATOM      8  C   UNL     1       3.364   1.956  20.770  0.00  0.00    +0.000 A 
ATOM      9  C   UNL     1       4.234   2.698  19.970  0.00  0.00    +0.000 A 
ATOM     10  C   UNL     1       4.051   4.080  19.802  0.00  0.00    +0.000 A 
BRANCH  10  11
ATOM     11  C   UNL     1       5.081   4.793  18.994  0.00  0.00    +0.000 C 
ATOM     12  O   UNL     1       5.945   5.459  19.551  0.00  0.00    +0.000 OA
ATOM     13  N   UNL     1       4.960   4.694  17.612  0.00  0.00    +0.000 N 
ATOM     14  H   UNL     1       4.085   4.332  17.251  0.00  0.00    +0.000 HD
BRANCH  13  15
ATOM     15  C   UNL     1       5.756   5.497  16.732  0.00  0.00    +0.000 C 
ATOM     16  C   UNL     1       5.121   6.591  15.916  0.00  0.00    +0.000 C 
ATOM     17  C   UNL     1       5.657   5.363  15.238  0.00  0.00    +0.000 C 
ENDBRANCH  13  15
ENDBRANCH  10  11
ENDBRANCH   3   5
BRANCH   2  18
ATOM     18  C   UNL     1       1.948   8.064  19.085  0.00  0.00    +0.000 A 
ATOM     19  C   UNL     1       2.182   8.829  17.936  0.00  0.00    +0.000 A 
ATOM     20  C   UNL     1       1.826  10.175  17.913  0.00  0.00    +0.000 A 
ATOM     21  C   UNL     1       1.233  10.763  19.033  0.00  0.00    +0.000 A 
ATOM     22  C   UNL     1       1.002  10.002  20.188  0.00  0.00    +0.000 A 
ATOM     23  C   UNL     1       1.376   8.648  20.219  0.00  0.00    +0.000 A 
BRANCH  22  24
ATOM     24  N   UNL     1       0.371  10.575  21.318  0.00  0.00    +0.000 N 
ATOM     25  C   UNL     1      -0.236   9.963  22.385  0.00  0.00    +0.000 A 
ATOM     26  N   UNL     1      -0.649  10.876  23.233  0.00  0.00    +0.000 NA
ATOM     27  N   UNL     1      -0.299  12.080  22.682  0.00  0.00    +0.000 NA
ATOM     28  N   UNL     1       0.321  11.911  21.522  0.00  0.00    +0.000 NA
ENDBRANCH  22  24
ENDBRANCH   2  18
TORSDOF 5
ENDMDL
MODEL 3
REMARK VINA RESULT:      -8.2      2.583      7.752
REMARK  Name = 
REMARK  5 active torsions:
REMARK  status: ('A' for Active; 'I' for Inactive)
REMARK    1  A    between atoms: C_2  and  C_16
REMARK    2  A    between atoms: N_3  and  C_4
REMARK    3  A    between atoms: C_9  and  C_10
REMARK    4  A    between atoms: N_12  and  C_13
REMARK    5  A    between atoms: C_20  and  N_21
REMARK                            x       y       z     vdW  Elec       q    Type
REMARK                         _______ _______ _______ _____ _____    ______ ____
ROOT
ATOM      1  O   UNL     1       1.449   5.938  20.986  0.00  0.00    +0.000 OA
ATOM      2  C   UNL     1       1.957   6.547  20.053  0.00  0.00    +0.000 C 
ATOM      3  N   UNL     1       1.829   7.905  19.807  0.00  0.00    +0.000 N 
ATOM      4  H   UNL     1       1.983   8.224  18.855  0.00  0.00    +0.000 HD
ENDROOT
BRANCH   3   5
ATOM      5  C   UNL     1       1.080   8.761  20.650  0.00  0.00    +0.000 A 
ATOM      6  C   UNL     1       1.254   8.695  22.041  0.00  0.00    +0.000 A 
ATOM      7  C   UNL     1       0.563   9.567  22.889  0.00  0.00    +0.000 A 
ATOM      8  C   UNL     1      -0.311  10.510  22.357  0.00  0.00    +0.000 A 
ATOM      9  C   UNL     1      -0.493  10.584  20.975  0.00  0.00    +0.000 A 
ATOM     10  C   UNL     1       0.197   9.716  20.114  0.00  0.00    +0.000 A 
BRANCH  10  11
ATOM     11  C   UNL     1      -0.130   9.823  18.663  0.00  0.00    +0.000 C 
ATOM     12  O   UNL     1       0.730   9.588  17.822  0.00  0.00    +0.000 OA
ATOM     13  N   UNL     1      -1.417  10.246  18.348  0.00  0.00    +0.000 N 
ATOM     14  H   UNL     1      -1.967  10.646  19.099  0.00  0.00    +0.000 HD
BRANCH  13  15
ATOM     15  C   UNL     1      -1.784  10.586  17.005  0.00  0.00    +0.000 C 
ATOM     16  C   UNL     1      -3.157  11.127  16.706  0.00  0.00    +0.000 C 
ATOM     17  C   UNL     1      -2.769   9.759  16.226  0.00  0.00    +0.000 C 
ENDBRANCH  13  15
ENDBRANCH  10  11
ENDBRANCH   3   5
BRANCH   2  18
ATOM     18  C   UNL     1       2.640   5.782  18.983  0.00  0.00    +0.000 A 
ATOM     19  C   UNL     1       1.986   4.668  18.446  0.00  0.00    +0.000 A 
ATOM     20  C   UNL     1       2.577   3.946  17.412  0.00  0.00    +0.000 A 
ATOM     21  C   UNL     1       3.820   4.334  16.906  0.00  0.00    +0.000 A 
ATOM     22  C   UNL     1       4.482   5.447  17.445  0.00  0.00    +0.000 A 
ATOM     23  C   UNL     1       3.896   6.166  18.500  0.00  0.00    +0.000 A 
BRANCH  22  24
ATOM     24  N   UNL     1       5.726   5.872  16.921  0.00  0.00    +0.000 N 
ATOM     25  C   UNL     1       6.546   6.892  17.333  0.00  0.00    +0.000 A 
ATOM     26  N   UNL     1       7.629   6.906  16.591  0.00  0.00    +0.000 NA
ATOM     27  N   UNL     1       7.479   5.880  15.696  0.00  0.00    +0.000 NA
ATOM     28  N   UNL     1       6.331   5.245  15.887  0.00  0.00    +0.000 NA
ENDBRANCH  22  24
ENDBRANCH   2  18
TORSDOF 5
ENDMDL
MODEL 4
REMARK VINA RESULT:      -8.2      1.749      3.477
REMARK  Name = 
REMARK  5 active torsions:
REMARK  status: ('A' for Active; 'I' for Inactive)
REMARK    1  A    between atoms: C_2  and  C_16
REMARK    2  A    between atoms: N_3  and  C_4
REMARK    3  A    between atoms: C_9  and  C_10
REMARK    4  A    between atoms: N_12  and  C_13
REMARK    5  A    between atoms: C_20  and  N_21
REMARK                            x       y       z     vdW  Elec       q    Type
REMARK                         _______ _______ _______ _____ _____    ______ ____
ROOT
ATOM      1  O   UNL     1       2.317   6.065  20.533  0.00  0.00    +0.000 OA
ATOM      2  C   UNL     1       2.066   6.528  19.427  0.00  0.00    +0.000 C 
ATOM      3  N   UNL     1       2.137   5.841  18.226  0.00  0.00    +0.000 N 
ATOM      4  H   UNL     1       2.254   6.391  17.380  0.00  0.00    +0.000 HD
ENDROOT
BRANCH   3   5
ATOM      5  C   UNL     1       2.508   4.477  18.153  0.00  0.00    +0.000 A 
ATOM      6  C   UNL     1       1.584   3.484  18.510  0.00  0.00    +0.000 A 
ATOM      7  C   UNL     1       1.911   2.129  18.397  0.00  0.00    +0.000 A 
ATOM      8  C   UNL     1       3.167   1.752  17.930  0.00  0.00    +0.000 A 
ATOM      9  C   UNL     1       4.096   2.731  17.573  0.00  0.00    +0.000 A 
ATOM     10  C   UNL     1       3.777   4.095  17.681  0.00  0.00    +0.000 A 
BRANCH  10  11
ATOM     11  C   UNL     1       4.866   5.059  17.352  0.00  0.00    +0.000 C 
ATOM     12  O   UNL     1       4.704   5.887  16.463  0.00  0.00    +0.000 OA
ATOM     13  N   UNL     1       6.053   4.917  18.063  0.00  0.00    +0.000 N 
ATOM     14  H   UNL     1       6.173   4.062  18.593  0.00  0.00    +0.000 HD
BRANCH  13  15
ATOM     15  C   UNL     1       7.234   5.641  17.697  0.00  0.00    +0.000 C 
ATOM     16  C   UNL     1       8.007   6.410  18.735  0.00  0.00    +0.000 C 
ATOM     17  C   UNL     1       7.257   7.144  17.662  0.00  0.00    +0.000 C 
ENDBRANCH  13  15
ENDBRANCH  10  11
ENDBRANCH   3   5
BRANCH   2  18
ATOM     18  C   UNL     1       1.818   7.984  19.298  0.00  0.00    +0.000 A 
ATOM     19  C   UNL     1       2.113   8.599  18.076  0.00  0.00    +0.000 A 
ATOM     20  C   UNL     1       1.857   9.957  17.902  0.00  0.00    +0.000 A 
ATOM     21  C   UNL     1       1.304  10.706  18.943  0.00  0.00    +0.000 A 
ATOM     22  C   UNL     1       1.012  10.095  20.171  0.00  0.00    +0.000 A 
ATOM     23  C   UNL     1       1.285   8.730  20.355  0.00  0.00    +0.000 A 
BRANCH  22  24
ATOM     24  N   UNL     1       0.420  10.833  21.224  0.00  0.00    +0.000 N 
ATOM     25  C   UNL     1       0.085  12.162  21.280  0.00  0.00    +0.000 A 
ATOM     26  N   UNL     1      -0.486  12.419  22.433  0.00  0.00    +0.000 NA
ATOM     27  N   UNL     1      -0.504  11.230  23.111  0.00  0.00    +0.000 NA
ATOM     28  N   UNL     1       0.041  10.261  22.389  0.00  0.00    +0.000 NA
ENDBRANCH  22  24
ENDBRANCH   2  18
TORSDOF 5
ENDMDL
MODEL 5
REMARK VINA RESULT:      -8.0      2.007      3.798
REMARK  Name = 
REMARK  5 active torsions:
REMARK  status: ('A' for Active; 'I' for Inactive)
REMARK    1  A    between atoms: C_2  and  C_16
REMARK    2  A    between atoms: N_3  and  C_4
REMARK    3  A    between atoms: C_9  and  C_10
REMARK    4  A    between atoms: N_12  and  C_13
REMARK    5  A    between atoms: C_20  and  N_21
REMARK                            x       y       z     vdW  Elec       q    Type
REMARK                         _______ _______ _______ _____ _____    ______ ____
ROOT
ATOM      1  O   UNL     1       1.902   5.875  18.004  0.00  0.00    +0.000 OA
ATOM      2  C   UNL     1       2.329   6.542  18.938  0.00  0.00    +0.000 C 
ATOM      3  N   UNL     1       3.006   6.050  20.041  0.00  0.00    +0.000 N 
ATOM      4  H   UNL     1       2.996   6.615  20.886  0.00  0.00    +0.000 HD
ENDROOT
BRANCH   3   5
ATOM      5  C   UNL     1       3.298   4.674  20.201  0.00  0.00    +0.000 A 
ATOM      6  C   UNL     1       2.529   3.897  21.080  0.00  0.00    +0.000 A 
ATOM      7  C   UNL     1       2.766   2.525  21.215  0.00  0.00    +0.000 A 
ATOM      8  C   UNL     1       3.778   1.917  20.477  0.00  0.00    +0.000 A 
ATOM      9  C   UNL     1       4.551   2.681  19.601  0.00  0.00    +0.000 A 
ATOM     10  C   UNL     1       4.320   4.058  19.456  0.00  0.00    +0.000 A 
BRANCH  10  11
ATOM     11  C   UNL     1       5.253   4.796  18.556  0.00  0.00    +0.000 C 
ATOM     12  O   UNL     1       4.972   4.950  17.373  0.00  0.00    +0.000 OA
ATOM     13  N   UNL     1       6.444   5.233  19.125  0.00  0.00    +0.000 N 
ATOM     14  H   UNL     1       6.690   4.850  20.031  0.00  0.00    +0.000 HD
BRANCH  13  15
ATOM     15  C   UNL     1       7.505   5.767  18.323  0.00  0.00    +0.000 C 
ATOM     16  C   UNL     1       8.216   7.025  18.741  0.00  0.00    +0.000 C 
ATOM     17  C   UNL     1       7.331   7.032  17.529  0.00  0.00    +0.000 C 
ENDBRANCH  13  15
ENDBRANCH  10  11
ENDBRANCH   3   5
BRANCH   2  18
ATOM     18  C   UNL     1       1.972   7.979  19.016  0.00  0.00    +0.000 A 
ATOM     19  C   UNL     1       2.156   8.769  17.875  0.00  0.00    +0.000 A 
ATOM     20  C   UNL     1       1.796  10.114  17.895  0.00  0.00    +0.000 A 
ATOM     21  C   UNL     1       1.248  10.677  19.050  0.00  0.00    +0.000 A 
ATOM     22  C   UNL     1       1.067   9.890  20.198  0.00  0.00    +0.000 A 
ATOM     23  C   UNL     1       1.446   8.538  20.185  0.00  0.00    +0.000 A 
BRANCH  22  24
ATOM     24  N   UNL     1       0.483  10.437  21.365  0.00  0.00    +0.000 N 
ATOM     25  C   UNL     1      -0.180  11.626  21.537  0.00  0.00    +0.000 A 
ATOM     26  N   UNL     1      -0.600  11.715  22.777  0.00  0.00    +0.000 NA
ATOM     27  N   UNL     1      -0.188  10.563  23.392  0.00  0.00    +0.000 NA
ATOM     28  N   UNL     1       0.468   9.780  22.547  0.00  0.00    +0.000 NA
ENDBRANCH  22  24
ENDBRANCH   2  18
TORSDOF 5
ENDMDL
MODEL 6
REMARK VINA RESULT:      -8.0      1.871      2.388
REMARK  Name = 
REMARK  5 active torsions:
REMARK  status: ('A' for Active; 'I' for Inactive)
REMARK    1  A    between atoms: C_2  and  C_16
REMARK    2  A    between atoms: N_3  and  C_4
REMARK    3  A    between atoms: C_9  and  C_10
REMARK    4  A    between atoms: N_12  and  C_13
REMARK    5  A    between atoms: C_20  and  N_21
REMARK                            x       y       z     vdW  Elec       q    Type
REMARK                         _______ _______ _______ _____ _____    ______ ____
ROOT
ATOM      1  O   UNL     1       2.573   8.456  17.077  0.00  0.00    +0.000 OA
ATOM      2  C   UNL     1       2.600   7.907  18.172  0.00  0.00    +0.000 C 
ATOM      3  N   UNL     1       3.276   6.736  18.473  0.00  0.00    +0.000 N 
ATOM      4  H   UNL     1       2.951   6.202  19.275  0.00  0.00    +0.000 HD
ENDROOT
BRANCH   3   5
ATOM      5  C   UNL     1       4.046   6.036  17.514  0.00  0.00    +0.000 A 
ATOM      6  C   UNL     1       5.066   6.703  16.818  0.00  0.00    +0.000 A 
ATOM      7  C   UNL     1       5.873   6.018  15.903  0.00  0.00    +0.000 A 
ATOM      8  C   UNL     1       5.667   4.662  15.672  0.00  0.00    +0.000 A 
ATOM      9  C   UNL     1       4.655   3.987  16.357  0.00  0.00    +0.000 A 
ATOM     10  C   UNL     1       3.840   4.664  17.279  0.00  0.00    +0.000 A 
BRANCH  10  11
ATOM     11  C   UNL     1       2.737   3.872  17.896  0.00  0.00    +0.000 C 
ATOM     12  O   UNL     1       1.670   3.744  17.308  0.00  0.00    +0.000 OA
ATOM     13  N   UNL     1       2.981   3.356  19.164  0.00  0.00    +0.000 N 
ATOM     14  H   UNL     1       3.787   3.718  19.661  0.00  0.00    +0.000 HD
BRANCH  13  15
ATOM     15  C   UNL     1       1.936   2.760  19.943  0.00  0.00    +0.000 C 
ATOM     16  C   UNL     1       1.058   3.614  20.817  0.00  0.00    +0.000 C 
ATOM     17  C   UNL     1       2.032   2.658  21.440  0.00  0.00    +0.000 C 
ENDBRANCH  13  15
ENDBRANCH  10  11
ENDBRANCH   3   5
BRANCH   2  18
ATOM     18  C   UNL     1       1.719   8.413  19.251  0.00  0.00    +0.000 A 
ATOM     19  C   UNL     1       1.802   7.808  20.510  0.00  0.00    +0.000 A 
ATOM     20  C   UNL     1       1.019   8.281  21.561  0.00  0.00    +0.000 A 
ATOM     21  C   UNL     1       0.154   9.359  21.362  0.00  0.00    +0.000 A 
ATOM     22  C   UNL     1       0.063   9.965  20.100  0.00  0.00    +0.000 A 
ATOM     23  C   UNL     1       0.839   9.479  19.034  0.00  0.00    +0.000 A 
BRANCH  22  24
ATOM     24  N   UNL     1      -0.783  11.080  19.891  0.00  0.00    +0.000 N 
ATOM     25  C   UNL     1      -0.884  12.247  20.605  0.00  0.00    +0.000 A 
ATOM     26  N   UNL     1      -1.769  13.031  20.034  0.00  0.00    +0.000 NA
ATOM     27  N   UNL     1      -2.232  12.338  18.947  0.00  0.00    +0.000 NA
ATOM     28  N   UNL     1      -1.642  11.155  18.849  0.00  0.00    +0.000 NA
ENDBRANCH  22  24
ENDBRANCH   2  18
TORSDOF 5
ENDMDL
MODEL 7
REMARK VINA RESULT:      -7.9      1.550      3.735
REMARK  Name = 
REMARK  5 active torsions:
REMARK  status: ('A' for Active; 'I' for Inactive)
REMARK    1  A    between atoms: C_2  and  C_16
REMARK    2  A    between atoms: N_3  and  C_4
REMARK    3  A    between atoms: C_9  and  C_10
REMARK    4  A    between atoms: N_12  and  C_13
REMARK    5  A    between atoms: C_20  and  N_21
REMARK                            x       y       z     vdW  Elec       q    Type
REMARK                         _______ _______ _______ _____ _____    ______ ____
ROOT
ATOM      1  O   UNL     1       2.569   6.057  20.724  0.00  0.00    +0.000 OA
ATOM      2  C   UNL     1       2.141   6.393  19.627  0.00  0.00    +0.000 C 
ATOM      3  N   UNL     1       2.015   5.568  18.520  0.00  0.00    +0.000 N 
ATOM      4  H   UNL     1       1.992   6.013  17.607  0.00  0.00    +0.000 HD
ENDROOT
BRANCH   3   5
ATOM      5  C   UNL     1       2.366   4.198  18.551  0.00  0.00    +0.000 A 
ATOM      6  C   UNL     1       1.567   3.289  19.261  0.00  0.00    +0.000 A 
ATOM      7  C   UNL     1       1.866   1.923  19.263  0.00  0.00    +0.000 A 
ATOM      8  C   UNL     1       2.970   1.451  18.559  0.00  0.00    +0.000 A 
ATOM      9  C   UNL     1       3.774   2.345  17.850  0.00  0.00    +0.000 A 
ATOM     10  C   UNL     1       3.481   3.718  17.839  0.00  0.00    +0.000 A 
BRANCH  10  11
ATOM     11  C   UNL     1       4.447   4.597  17.119  0.00  0.00    +0.000 C 
ATOM     12  O   UNL     1       4.762   5.682  17.595  0.00  0.00    +0.000 OA
ATOM     13  N   UNL     1       4.904   4.136  15.889  0.00  0.00    +0.000 N 
ATOM     14  H   UNL     1       4.405   3.357  15.475  0.00  0.00    +0.000 HD
BRANCH  13  15
ATOM     15  C   UNL     1       5.666   4.975  15.012  0.00  0.00    +0.000 C 
ATOM     16  C   UNL     1       6.462   4.374  13.885  0.00  0.00    +0.000 C 
ATOM     17  C   UNL     1       7.169   4.997  15.053  0.00  0.00    +0.000 C 
ENDBRANCH  13  15
ENDBRANCH  10  11
ENDBRANCH   3   5
BRANCH   2  18
ATOM     18  C   UNL     1       1.878   7.829  19.367  0.00  0.00    +0.000 A 
ATOM     19  C   UNL     1       2.255   8.356  18.127  0.00  0.00    +0.000 A 
ATOM     20  C   UNL     1       1.990   9.690  17.829  0.00  0.00    +0.000 A 
ATOM     21  C   UNL     1       1.345  10.503  18.765  0.00  0.00    +0.000 A 
ATOM     22  C   UNL     1       0.971   9.980  20.012  0.00  0.00    +0.000 A 
ATOM     23  C   UNL     1       1.253   8.639  20.320  0.00  0.00    +0.000 A 
BRANCH  22  24
ATOM     24  N   UNL     1       0.287  10.782  20.956  0.00  0.00    +0.000 N 
ATOM     25  C   UNL     1      -0.572  11.832  20.754  0.00  0.00    +0.000 A 
ATOM     26  N   UNL     1      -1.017  12.260  21.912  0.00  0.00    +0.000 NA
ATOM     27  N   UNL     1      -0.420  11.466  22.855  0.00  0.00    +0.000 NA
ATOM     28  N   UNL     1       0.371  10.566  22.289  0.00  0.00    +0.000 NA
ENDBRANCH  22  24
ENDBRANCH   2  18
TORSDOF 5
ENDMDL
MODEL 8
REMARK VINA RESULT:      -7.9      1.813      2.542
REMARK  Name = 
REMARK  5 active torsions:
REMARK  status: ('A' for Active; 'I' for Inactive)
REMARK    1  A    between atoms: C_2  and  C_16
REMARK    2  A    between atoms: N_3  and  C_4
REMARK    3  A    between atoms: C_9  and  C_10
REMARK    4  A    between atoms: N_12  and  C_13
REMARK    5  A    between atoms: C_20  and  N_21
REMARK                            x       y       z     vdW  Elec       q    Type
REMARK                         _______ _______ _______ _____ _____    ______ ____
ROOT
ATOM      1  O   UNL     1       3.478   6.033  20.055  0.00  0.00    +0.000 OA
ATOM      2  C   UNL     1       2.810   6.710  19.282  0.00  0.00    +0.000 C 
ATOM      3  N   UNL     1       2.943   6.732  17.903  0.00  0.00    +0.000 N 
ATOM      4  H   UNL     1       2.603   7.555  17.415  0.00  0.00    +0.000 HD
ENDROOT
BRANCH   3   5
ATOM      5  C   UNL     1       3.891   5.934  17.220  0.00  0.00    +0.000 A 
ATOM      6  C   UNL     1       4.968   6.545  16.559  0.00  0.00    +0.000 A 
ATOM      7  C   UNL     1       5.945   5.774  15.921  0.00  0.00    +0.000 A 
ATOM      8  C   UNL     1       5.853   4.385  15.932  0.00  0.00    +0.000 A 
ATOM      9  C   UNL     1       4.786   3.766  16.584  0.00  0.00    +0.000 A 
ATOM     10  C   UNL     1       3.801   4.530  17.230  0.00  0.00    +0.000 A 
BRANCH  10  11
ATOM     11  C   UNL     1       2.661   3.776  17.826  0.00  0.00    +0.000 C 
ATOM     12  O   UNL     1       1.584   3.728  17.243  0.00  0.00    +0.000 OA
ATOM     13  N   UNL     1       2.885   3.198  19.072  0.00  0.00    +0.000 N 
ATOM     14  H   UNL     1       3.713   3.497  19.575  0.00  0.00    +0.000 HD
BRANCH  13  15
ATOM     15  C   UNL     1       1.815   2.630  19.836  0.00  0.00    +0.000 C 
ATOM     16  C   UNL     1       0.934   3.510  20.682  0.00  0.00    +0.000 C 
ATOM     17  C   UNL     1       1.878   2.544  21.336  0.00  0.00    +0.000 C 
ENDBRANCH  13  15
ENDBRANCH  10  11
ENDBRANCH   3   5
BRANCH   2  18
ATOM     18  C   UNL     1       1.881   7.724  19.835  0.00  0.00    +0.000 A 
ATOM     19  C   UNL     1       1.197   7.419  21.018  0.00  0.00    +0.000 A 
ATOM     20  C   UNL     1       0.345   8.360  21.590  0.00  0.00    +0.000 A 
ATOM     21  C   UNL     1       0.174   9.610  20.989  0.00  0.00    +0.000 A 
ATOM     22  C   UNL     1       0.852   9.917  19.800  0.00  0.00    +0.000 A 
ATOM     23  C   UNL     1       1.698   8.962  19.211  0.00  0.00    +0.000 A 
BRANCH  22  24
ATOM     24  N   UNL     1       0.715  11.190  19.197  0.00  0.00    +0.000 N 
ATOM     25  C   UNL     1       1.680  12.093  18.831  0.00  0.00    +0.000 A 
ATOM     26  N   UNL     1       1.112  13.130  18.260  0.00  0.00    +0.000 NA
ATOM     27  N   UNL     1      -0.233  12.871  18.275  0.00  0.00    +0.000 NA
ATOM     28  N   UNL     1      -0.486  11.698  18.839  0.00  0.00    +0.000 NA
ENDBRANCH  22  24
ENDBRANCH   2  18
TORSDOF 5
ENDMDL
MODEL 9
REMARK VINA RESULT:      -7.8      2.110      2.794
REMARK  Name = 
REMARK  5 active torsions:
REMARK  status: ('A' for Active; 'I' for Inactive)
REMARK    1  A    between atoms: C_2  and  C_16
REMARK    2  A    between atoms: N_3  and  C_4
REMARK    3  A    between atoms: C_9  and  C_10
REMARK    4  A    between atoms: N_12  and  C_13
REMARK    5  A    between atoms: C_20  and  N_21
REMARK                            x       y       z     vdW  Elec       q    Type
REMARK                         _______ _______ _______ _____ _____    ______ ____
ROOT
ATOM      1  O   UNL     1       1.973   5.739  17.682  0.00  0.00    +0.000 OA
ATOM      2  C   UNL     1       2.626   6.719  18.018  0.00  0.00    +0.000 C 
ATOM      3  N   UNL     1       3.969   6.929  17.747  0.00  0.00    +0.000 N 
ATOM      4  H   UNL     1       4.472   7.571  18.353  0.00  0.00    +0.000 HD
ENDROOT
BRANCH   3   5
ATOM      5  C   UNL     1       4.749   6.003  17.015  0.00  0.00    +0.000 A 
ATOM      6  C   UNL     1       5.101   6.286  15.686  0.00  0.00    +0.000 A 
ATOM      7  C   UNL     1       5.914   5.410  14.960  0.00  0.00    +0.000 A 
ATOM      8  C   UNL     1       6.381   4.240  15.552  0.00  0.00    +0.000 A 
ATOM      9  C   UNL     1       6.036   3.947  16.873  0.00  0.00    +0.000 A 
ATOM     10  C   UNL     1       5.222   4.820  17.612  0.00  0.00    +0.000 A 
BRANCH  10  11
ATOM     11  C   UNL     1       4.847   4.375  18.985  0.00  0.00    +0.000 C 
ATOM     12  O   UNL     1       5.630   4.529  19.915  0.00  0.00    +0.000 OA
ATOM     13  N   UNL     1       3.613   3.748  19.116  0.00  0.00    +0.000 N 
ATOM     14  H   UNL     1       3.154   3.452  18.263  0.00  0.00    +0.000 HD
BRANCH  13  15
ATOM     15  C   UNL     1       3.232   3.095  20.333  0.00  0.00    +0.000 C 
ATOM     16  C   UNL     1       1.843   2.537  20.495  0.00  0.00    +0.000 C 
ATOM     17  C   UNL     1       2.270   3.730  21.299  0.00  0.00    +0.000 C 
ENDBRANCH  13  15
ENDBRANCH  10  11
ENDBRANCH   3   5
BRANCH   2  18
ATOM     18  C   UNL     1       2.011   7.713  18.930  0.00  0.00    +0.000 A 
ATOM     19  C   UNL     1       1.819   7.351  20.268  0.00  0.00    +0.000 A 
ATOM     20  C   UNL     1       1.281   8.269  21.166  0.00  0.00    +0.000 A 
ATOM     21  C   UNL     1       0.935   9.553  20.735  0.00  0.00    +0.000 A 
ATOM     22  C   UNL     1       1.121   9.917  19.393  0.00  0.00    +0.000 A 
ATOM     23  C   UNL     1       1.647   8.986  18.482  0.00  0.00    +0.000 A 
BRANCH  22  24
ATOM     24  N   UNL     1       0.808  11.224  18.949  0.00  0.00    +0.000 N 
ATOM     25  C   UNL     1      -0.416  11.814  18.760  0.00  0.00    +0.000 A 
ATOM     26  N   UNL     1      -0.246  13.059  18.382  0.00  0.00    +0.000 NA
ATOM     27  N   UNL     1       1.110  13.249  18.329  0.00  0.00    +0.000 NA
ATOM     28  N   UNL     1       1.759  12.145  18.672  0.00  0.00    +0.000 NA
ENDBRANCH  22  24
ENDBRANCH   2  18
TORSDOF 5
ENDMDL
