MODEL 1
REMARK VINA RESULT:      -8.1      0.000      0.000
REMARK  Name = 
REMARK  5 active torsions:
REMARK  status: ('A' for Active; 'I' for Inactive)
REMARK    1  A    between atoms: C_1  and  C_2
REMARK    2  A    between atoms: N_4  and  C_5
REMARK    3  A    between atoms: C_8  and  N_9
REMARK    4  A    between atoms: C_16  and  C_17
REMARK    5  A    between atoms: C_28  and  C_29
REMARK                            x       y       z     vdW  Elec       q    Type
REMARK                         _______ _______ _______ _____ _____    ______ ____
ROOT
ATOM      1  N   UNL     1       2.002   8.264  18.010  0.00  0.00    +0.000 N 
ATOM      2  C   UNL     1       2.380   7.367  18.990  0.00  0.00    +0.000 C 
ATOM      3  O   UNL     1       2.244   7.561  20.196  0.00  0.00    +0.000 OA
ATOM      4  N   UNL     1       2.902   6.164  18.534  0.00  0.00    +0.000 N 
ATOM      5  C   UNL     1       3.142   5.113  19.526  0.00  0.00    +0.000 C 
ATOM      6  C   UNL     1       4.637   4.916  19.749  0.00  0.00    +0.000 C 
ATOM      7  C   UNL     1       5.336   4.603  18.426  0.00  0.00    +0.000 C 
ATOM      8  C   UNL     1       5.043   5.691  17.377  0.00  0.00    +0.000 C 
ATOM      9  C   UNL     1       3.527   5.921  17.228  0.00  0.00    +0.000 C 
ATOM     10  H   UNL     1       1.839   7.880  17.092  0.00  0.00    +0.000 HD
ENDROOT
BRANCH   8  11
ATOM     11  C   UNL     1       5.651   5.328  16.068  0.00  0.00    +0.000 A 
ATOM     12  N   UNL     1       6.759   5.791  15.512  0.00  0.00    +0.000 NA
ATOM     13  C   UNL     1       6.820   5.122  14.317  0.00  0.00    +0.000 A 
ATOM     14  C   UNL     1       7.759   5.178  13.277  0.00  0.00    +0.000 A 
ATOM     15  C   UNL     1       7.551   4.359  12.156  0.00  0.00    +0.000 A 
ATOM     16  C   UNL     1       6.441   3.509  12.073  0.00  0.00    +0.000 A 
ATOM     17  C   UNL     1       5.495   3.443  13.105  0.00  0.00    +0.000 A 
ATOM     18  C   UNL     1       5.737   4.270  14.196  0.00  0.00    +0.000 A 
ATOM     19  O   UNL     1       4.978   4.397  15.323  0.00  0.00    +0.000 OA
ENDBRANCH   8  11
BRANCH   1  23
ATOM     20  C   UNL     1       0.452  12.180  18.667  0.00  0.00    +0.000 A 
ATOM     21  C   UNL     1      -0.364  11.055  18.752  0.00  0.00    +0.000 A 
ATOM     22  C   UNL     1       0.141   9.768  18.573  0.00  0.00    +0.000 A 
ATOM     23  C   UNL     1       1.473   9.558  18.247  0.00  0.00    +0.000 A 
ATOM     24  C   UNL     1       2.307  10.675  18.159  0.00  0.00    +0.000 A 
ATOM     25  C   UNL     1       1.820  11.991  18.372  0.00  0.00    +0.000 A 
ATOM     26  C   UNL     1       2.795  13.136  18.302  0.00  0.00    +0.000 C 
BRANCH  20  30
ATOM     27  C   UNL     1      -0.999  15.417  19.982  0.00  0.00    +0.000 C 
ATOM     28  C   UNL     1      -0.331  14.073  20.092  0.00  0.00    +0.000 C 
ATOM     29  O   UNL     1      -0.034  13.633  21.199  0.00  0.00    +0.000 OA
ATOM     30  N   UNL     1      -0.084  13.480  18.859  0.00  0.00    +0.000 N 
ATOM     31  H   UNL     1      -0.210  14.051  18.039  0.00  0.00    +0.000 HD
ENDBRANCH  20  30
ENDBRANCH   1  23
TORSDOF 3
ENDMDL
MODEL 2
REMARK VINA RESULT:      -8.1      0.333      1.320
REMARK  Name = 
REMARK  5 active torsions:
REMARK  status: ('A' for Active; 'I' for Inactive)
REMARK    1  A    between atoms: C_1  and  C_2
REMARK    2  A    between atoms: N_4  and  C_5
REMARK    3  A    between atoms: C_8  and  N_9
REMARK    4  A    between atoms: C_16  and  C_17
REMARK    5  A    between atoms: C_28  and  C_29
REMARK                            x       y       z     vdW  Elec       q    Type
REMARK                         _______ _______ _______ _____ _____    ______ ____
ROOT
ATOM      1  N   UNL     1       1.991   8.280  17.939  0.00  0.00    +0.000 N 
ATOM      2  C   UNL     1       2.388   7.407  18.933  0.00  0.00    +0.000 C 
ATOM      3  O   UNL     1       2.261   7.626  20.137  0.00  0.00    +0.000 OA
ATOM      4  N   UNL     1       2.919   6.200  18.498  0.00  0.00    +0.000 N 
ATOM      5  C   UNL     1       3.179   5.174  19.510  0.00  0.00    +0.000 C 
ATOM      6  C   UNL     1       4.679   4.998  19.722  0.00  0.00    +0.000 C 
ATOM      7  C   UNL     1       5.368   4.664  18.400  0.00  0.00    +0.000 C 
ATOM      8  C   UNL     1       5.054   5.726  17.331  0.00  0.00    +0.000 C 
ATOM      9  C   UNL     1       3.534   5.937  17.192  0.00  0.00    +0.000 C 
ATOM     10  H   UNL     1       1.824   7.874  17.031  0.00  0.00    +0.000 HD
ENDROOT
BRANCH   8  11
ATOM     11  C   UNL     1       5.654   5.341  16.024  0.00  0.00    +0.000 A 
ATOM     12  N   UNL     1       6.761   5.792  15.456  0.00  0.00    +0.000 NA
ATOM     13  C   UNL     1       6.813   5.105  14.271  0.00  0.00    +0.000 A 
ATOM     14  C   UNL     1       7.747   5.143  13.225  0.00  0.00    +0.000 A 
ATOM     15  C   UNL     1       7.529   4.309  12.116  0.00  0.00    +0.000 A 
ATOM     16  C   UNL     1       6.414   3.463  12.052  0.00  0.00    +0.000 A 
ATOM     17  C   UNL     1       5.474   3.416  13.089  0.00  0.00    +0.000 A 
ATOM     18  C   UNL     1       5.725   4.257  14.167  0.00  0.00    +0.000 A 
ATOM     19  O   UNL     1       4.972   4.403  15.296  0.00  0.00    +0.000 OA
ENDBRANCH   8  11
BRANCH   1  23
ATOM     20  C   UNL     1       0.314  12.137  18.630  0.00  0.00    +0.000 A 
ATOM     21  C   UNL     1       1.690  11.958  18.507  0.00  0.00    +0.000 A 
ATOM     22  C   UNL     1       2.245  10.705  18.246  0.00  0.00    +0.000 A 
ATOM     23  C   UNL     1       1.450   9.572  18.153  0.00  0.00    +0.000 A 
ATOM     24  C   UNL     1       0.068   9.734  18.273  0.00  0.00    +0.000 A 
ATOM     25  C   UNL     1      -0.520  11.004  18.504  0.00  0.00    +0.000 A 
ATOM     26  C   UNL     1      -2.021  11.098  18.577  0.00  0.00    +0.000 C 
BRANCH  20  30
ATOM     27  C   UNL     1      -1.025  15.346  20.122  0.00  0.00    +0.000 C 
ATOM     28  C   UNL     1      -0.304  14.024  20.140  0.00  0.00    +0.000 C 
ATOM     29  O   UNL     1       0.170  13.609  21.193  0.00  0.00    +0.000 OA
ATOM     30  N   UNL     1      -0.228  13.423  18.890  0.00  0.00    +0.000 N 
ATOM     31  H   UNL     1      -0.495  13.978  18.093  0.00  0.00    +0.000 HD
ENDBRANCH  20  30
ENDBRANCH   1  23
TORSDOF 3
ENDMDL
MODEL 3
REMARK VINA RESULT:      -7.9      1.282      1.701
REMARK  Name = 
REMARK  5 active torsions:
REMARK  status: ('A' for Active; 'I' for Inactive)
REMARK    1  A    between atoms: C_1  and  C_2
REMARK    2  A    between atoms: N_4  and  C_5
REMARK    3  A    between atoms: C_8  and  N_9
REMARK    4  A    between atoms: C_16  and  C_17
REMARK    5  A    between atoms: C_28  and  C_29
REMARK                            x       y       z     vdW  Elec       q    Type
REMARK                         _______ _______ _______ _____ _____    ______ ____
ROOT
ATOM      1  N   UNL     1       2.161   7.595  18.474  0.00  0.00    +0.000 N 
ATOM      2  C   UNL     1       2.488   6.520  19.277  0.00  0.00    +0.000 C 
ATOM      3  O   UNL     1       2.337   6.497  20.497  0.00  0.00    +0.000 OA
ATOM      4  N   UNL     1       2.976   5.401  18.616  0.00  0.00    +0.000 N 
ATOM      5  C   UNL     1       3.160   4.180  19.402  0.00  0.00    +0.000 C 
ATOM      6  C   UNL     1       4.643   3.889  19.603  0.00  0.00    +0.000 C 
ATOM      7  C   UNL     1       5.355   3.795  18.254  0.00  0.00    +0.000 C 
ATOM      8  C   UNL     1       5.120   5.066  17.418  0.00  0.00    +0.000 C 
ATOM      9  C   UNL     1       3.616   5.377  17.295  0.00  0.00    +0.000 C 
ATOM     10  H   UNL     1       2.001   7.390  17.499  0.00  0.00    +0.000 HD
ENDROOT
BRANCH   8  11
ATOM     11  C   UNL     1       5.739   4.923  16.071  0.00  0.00    +0.000 A 
ATOM     12  N   UNL     1       6.789   5.554  15.572  0.00  0.00    +0.000 NA
ATOM     13  C   UNL     1       6.895   5.044  14.304  0.00  0.00    +0.000 A 
ATOM     14  C   UNL     1       7.808   5.315  13.274  0.00  0.00    +0.000 A 
ATOM     15  C   UNL     1       7.660   4.623  12.062  0.00  0.00    +0.000 A 
ATOM     16  C   UNL     1       6.633   3.687  11.881  0.00  0.00    +0.000 A 
ATOM     17  C   UNL     1       5.715   3.406  12.901  0.00  0.00    +0.000 A 
ATOM     18  C   UNL     1       5.894   4.114  14.084  0.00  0.00    +0.000 A 
ATOM     19  O   UNL     1       5.144   4.030  15.221  0.00  0.00    +0.000 OA
ENDBRANCH   8  11
BRANCH   1  23
ATOM     20  C   UNL     1       0.718  11.331  19.933  0.00  0.00    +0.000 A 
ATOM     21  C   UNL     1       1.339  11.231  18.690  0.00  0.00    +0.000 A 
ATOM     22  C   UNL     1       1.783  10.007  18.190  0.00  0.00    +0.000 A 
ATOM     23  C   UNL     1       1.673   8.843  18.936  0.00  0.00    +0.000 A 
ATOM     24  C   UNL     1       1.052   8.925  20.185  0.00  0.00    +0.000 A 
ATOM     25  C   UNL     1       0.562  10.154  20.698  0.00  0.00    +0.000 A 
ATOM     26  C   UNL     1      -0.134  10.148  22.032  0.00  0.00    +0.000 C 
BRANCH  20  30
ATOM     27  C   UNL     1       0.273  14.702  21.593  0.00  0.00    +0.000 C 
ATOM     28  C   UNL     1       1.049  13.504  21.112  0.00  0.00    +0.000 C 
ATOM     29  O   UNL     1       2.256  13.442  21.323  0.00  0.00    +0.000 OA
ATOM     30  N   UNL     1       0.269  12.586  20.419  0.00  0.00    +0.000 N 
ATOM     31  H   UNL     1      -0.663  12.872  20.162  0.00  0.00    +0.000 HD
ENDBRANCH  20  30
ENDBRANCH   1  23
TORSDOF 3
ENDMDL
MODEL 4
REMARK VINA RESULT:      -7.8      1.856      2.115
REMARK  Name = 
REMARK  5 active torsions:
REMARK  status: ('A' for Active; 'I' for Inactive)
REMARK    1  A    between atoms: C_1  and  C_2
REMARK    2  A    between atoms: N_4  and  C_5
REMARK    3  A    between atoms: C_8  and  N_9
REMARK    4  A    between atoms: C_16  and  C_17
REMARK    5  A    between atoms: C_28  and  C_29
REMARK                            x       y       z     vdW  Elec       q    Type
REMARK                         _______ _______ _______ _____ _____    ______ ____
ROOT
ATOM      1  N   UNL     1       2.012   7.081  19.122  0.00  0.00    +0.000 N 
ATOM      2  C   UNL     1       2.218   5.856  19.724  0.00  0.00    +0.000 C 
ATOM      3  O   UNL     1       1.986   5.619  20.909  0.00  0.00    +0.000 OA
ATOM      4  N   UNL     1       2.677   4.845  18.890  0.00  0.00    +0.000 N 
ATOM      5  C   UNL     1       2.731   3.489  19.440  0.00  0.00    +0.000 C 
ATOM      6  C   UNL     1       4.177   3.056  19.661  0.00  0.00    +0.000 C 
ATOM      7  C   UNL     1       4.968   3.161  18.357  0.00  0.00    +0.000 C 
ATOM      8  C   UNL     1       4.869   4.578  17.765  0.00  0.00    +0.000 C 
ATOM      9  C   UNL     1       3.399   5.017  17.624  0.00  0.00    +0.000 C 
ATOM     10  H   UNL     1       1.904   7.073  18.120  0.00  0.00    +0.000 HD
ENDROOT
BRANCH   8  11
ATOM     11  C   UNL     1       5.565   4.642  16.450  0.00  0.00    +0.000 A 
ATOM     12  N   UNL     1       6.609   5.375  16.100  0.00  0.00    +0.000 NA
ATOM     13  C   UNL     1       6.806   5.043  14.785  0.00  0.00    +0.000 A 
ATOM     14  C   UNL     1       7.759   5.485  13.855  0.00  0.00    +0.000 A 
ATOM     15  C   UNL     1       7.709   4.955  12.557  0.00  0.00    +0.000 A 
ATOM     16  C   UNL     1       6.738   4.012  12.194  0.00  0.00    +0.000 A 
ATOM     17  C   UNL     1       5.781   3.561  13.113  0.00  0.00    +0.000 A 
ATOM     18  C   UNL     1       5.864   4.111  14.386  0.00  0.00    +0.000 A 
ATOM     19  O   UNL     1       5.059   3.847  15.457  0.00  0.00    +0.000 OA
ENDBRANCH   8  11
BRANCH   1  23
ATOM     20  C   UNL     1       0.647  10.622  21.064  0.00  0.00    +0.000 A 
ATOM     21  C   UNL     1       1.000   9.488  21.791  0.00  0.00    +0.000 A 
ATOM     22  C   UNL     1       1.481   8.337  21.167  0.00  0.00    +0.000 A 
ATOM     23  C   UNL     1       1.575   8.255  19.786  0.00  0.00    +0.000 A 
ATOM     24  C   UNL     1       1.226   9.384  19.040  0.00  0.00    +0.000 A 
ATOM     25  C   UNL     1       0.768  10.576  19.657  0.00  0.00    +0.000 A 
ATOM     26  C   UNL     1       0.454  11.762  18.784  0.00  0.00    +0.000 C 
BRANCH  20  30
ATOM     27  C   UNL     1      -1.228  13.202  23.099  0.00  0.00    +0.000 C 
ATOM     28  C   UNL     1      -0.869  11.811  22.648  0.00  0.00    +0.000 C 
ATOM     29  O   UNL     1      -1.459  10.848  23.130  0.00  0.00    +0.000 OA
ATOM     30  N   UNL     1       0.166  11.784  21.722  0.00  0.00    +0.000 N 
ATOM     31  H   UNL     1       0.675  12.641  21.573  0.00  0.00    +0.000 HD
ENDBRANCH  20  30
ENDBRANCH   1  23
TORSDOF 3
ENDMDL
MODEL 5
REMARK VINA RESULT:      -7.7      3.771      9.856
REMARK  Name = 
REMARK  5 active torsions:
REMARK  status: ('A' for Active; 'I' for Inactive)
REMARK    1  A    between atoms: C_1  and  C_2
REMARK    2  A    between atoms: N_4  and  C_5
REMARK    3  A    between atoms: C_8  and  N_9
REMARK    4  A    between atoms: C_16  and  C_17
REMARK    5  A    between atoms: C_28  and  C_29
REMARK                            x       y       z     vdW  Elec       q    Type
REMARK                         _______ _______ _______ _____ _____    ______ ____
ROOT
ATOM      1  N   UNL     1       1.607   8.745  20.498  0.00  0.00    +0.000 N 
ATOM      2  C   UNL     1       0.516   9.087  21.274  0.00  0.00    +0.000 C 
ATOM      3  O   UNL     1      -0.316   8.284  21.691  0.00  0.00    +0.000 OA
ATOM      4  N   UNL     1       0.417  10.430  21.614  0.00  0.00    +0.000 N 
ATOM      5  C   UNL     1      -0.614  10.806  22.584  0.00  0.00    +0.000 C 
ATOM      6  C   UNL     1      -1.737  11.579  21.901  0.00  0.00    +0.000 C 
ATOM      7  C   UNL     1      -1.177  12.804  21.180  0.00  0.00    +0.000 C 
ATOM      8  C   UNL     1      -0.065  12.404  20.194  0.00  0.00    +0.000 C 
ATOM      9  C   UNL     1       1.017  11.560  20.896  0.00  0.00    +0.000 C 
ATOM     10  H   UNL     1       2.380   9.393  20.507  0.00  0.00    +0.000 HD
ENDROOT
BRANCH   8  11
ATOM     11  C   UNL     1       0.535  13.614  19.568  0.00  0.00    +0.000 A 
ATOM     12  N   UNL     1       0.020  14.826  19.448  0.00  0.00    +0.000 NA
ATOM     13  C   UNL     1       0.995  15.523  18.783  0.00  0.00    +0.000 A 
ATOM     14  C   UNL     1       1.046  16.859  18.358  0.00  0.00    +0.000 A 
ATOM     15  C   UNL     1       2.200  17.294  17.688  0.00  0.00    +0.000 A 
ATOM     16  C   UNL     1       3.272  16.424  17.447  0.00  0.00    +0.000 A 
ATOM     17  C   UNL     1       3.234  15.088  17.866  0.00  0.00    +0.000 A 
ATOM     18  C   UNL     1       2.075  14.697  18.525  0.00  0.00    +0.000 A 
ATOM     19  O   UNL     1       1.785  13.462  19.029  0.00  0.00    +0.000 OA
ENDBRANCH   8  11
BRANCH   1  23
ATOM     20  C   UNL     1       2.400   4.805  19.081  0.00  0.00    +0.000 A 
ATOM     21  C   UNL     1       2.525   5.912  18.247  0.00  0.00    +0.000 A 
ATOM     22  C   UNL     1       2.302   7.208  18.710  0.00  0.00    +0.000 A 
ATOM     23  C   UNL     1       1.890   7.443  20.014  0.00  0.00    +0.000 A 
ATOM     24  C   UNL     1       1.760   6.344  20.866  0.00  0.00    +0.000 A 
ATOM     25  C   UNL     1       2.016   5.020  20.423  0.00  0.00    +0.000 A 
ATOM     26  C   UNL     1       1.896   3.896  21.416  0.00  0.00    +0.000 C 
BRANCH  20  30
ATOM     27  C   UNL     1       3.816   1.457  18.029  0.00  0.00    +0.000 C 
ATOM     28  C   UNL     1       3.817   2.777  18.753  0.00  0.00    +0.000 C 
ATOM     29  O   UNL     1       4.790   3.095  19.430  0.00  0.00    +0.000 OA
ATOM     30  N   UNL     1       2.639   3.495  18.588  0.00  0.00    +0.000 N 
ATOM     31  H   UNL     1       1.861   3.015  18.163  0.00  0.00    +0.000 HD
ENDBRANCH  20  30
ENDBRANCH   1  23
TORSDOF 3
ENDMDL
MODEL 6
REMARK VINA RESULT:      -7.7      1.591      1.967
REMARK  Name = 
REMARK  5 active torsions:
REMARK  status: ('A' for Active; 'I' for Inactive)
REMARK    1  A    between atoms: C_1  and  C_2
REMARK    2  A    between atoms: N_4  and  C_5
REMARK    3  A    between atoms: C_8  and  N_9
REMARK    4  A    between atoms: C_16  and  C_17
REMARK    5  A    between atoms: C_28  and  C_29
REMARK                            x       y       z     vdW  Elec       q    Type
REMARK                         _______ _______ _______ _____ _____    ______ ____
ROOT
ATOM      1  N   UNL     1       2.060   7.305  18.783  0.00  0.00    +0.000 N 
ATOM      2  C   UNL     1       2.352   6.161  19.499  0.00  0.00    +0.000 C 
ATOM      3  O   UNL     1       2.170   6.035  20.709  0.00  0.00    +0.000 OA
ATOM      4  N   UNL     1       2.843   5.095  18.756  0.00  0.00    +0.000 N 
ATOM      5  C   UNL     1       2.990   3.808  19.439  0.00  0.00    +0.000 C 
ATOM      6  C   UNL     1       4.463   3.478  19.651  0.00  0.00    +0.000 C 
ATOM      7  C   UNL     1       5.208   3.489  18.316  0.00  0.00    +0.000 C 
ATOM      8  C   UNL     1       5.012   4.831  17.587  0.00  0.00    +0.000 C 
ATOM      9  C   UNL     1       3.516   5.174  17.455  0.00  0.00    +0.000 C 
ATOM     10  H   UNL     1       1.923   7.187  17.791  0.00  0.00    +0.000 HD
ENDROOT
BRANCH   8  11
ATOM     11  C   UNL     1       5.664   4.795  16.249  0.00  0.00    +0.000 A 
ATOM     12  N   UNL     1       6.705   5.487  15.816  0.00  0.00    +0.000 NA
ATOM     13  C   UNL     1       6.853   5.064  14.521  0.00  0.00    +0.000 A 
ATOM     14  C   UNL     1       7.780   5.428  13.532  0.00  0.00    +0.000 A 
ATOM     15  C   UNL     1       7.679   4.812  12.275  0.00  0.00    +0.000 A 
ATOM     16  C   UNL     1       6.684   3.862  12.009  0.00  0.00    +0.000 A 
ATOM     17  C   UNL     1       5.753   3.488  12.987  0.00  0.00    +0.000 A 
ATOM     18  C   UNL     1       5.886   4.121  14.217  0.00  0.00    +0.000 A 
ATOM     19  O   UNL     1       5.115   3.942  15.329  0.00  0.00    +0.000 OA
ENDBRANCH   8  11
BRANCH   1  23
ATOM     20  C   UNL     1       0.642  10.931  20.518  0.00  0.00    +0.000 A 
ATOM     21  C   UNL     1       1.063  10.880  19.192  0.00  0.00    +0.000 A 
ATOM     22  C   UNL     1       1.495   9.691  18.605  0.00  0.00    +0.000 A 
ATOM     23  C   UNL     1       1.577   8.516  19.339  0.00  0.00    +0.000 A 
ATOM     24  C   UNL     1       1.159   8.549  20.671  0.00  0.00    +0.000 A 
ATOM     25  C   UNL     1       0.682   9.740  21.277  0.00  0.00    +0.000 A 
ATOM     26  C   UNL     1       0.209   9.680  22.705  0.00  0.00    +0.000 C 
BRANCH  20  30
ATOM     27  C   UNL     1      -1.199  14.070  21.552  0.00  0.00    +0.000 C 
ATOM     28  C   UNL     1      -1.054  12.720  20.903  0.00  0.00    +0.000 C 
ATOM     29  O   UNL     1      -2.011  12.225  20.316  0.00  0.00    +0.000 OA
ATOM     30  N   UNL     1       0.201  12.152  21.091  0.00  0.00    +0.000 N 
ATOM     31  H   UNL     1       0.813  12.595  21.758  0.00  0.00    +0.000 HD
ENDBRANCH  20  30
ENDBRANCH   1  23
TORSDOF 3
ENDMDL
MODEL 7
REMARK VINA RESULT:      -7.6      3.723     10.081
REMARK  Name = 
REMARK  5 active torsions:
REMARK  status: ('A' for Active; 'I' for Inactive)
REMARK    1  A    between atoms: C_1  and  C_2
REMARK    2  A    between atoms: N_4  and  C_5
REMARK    3  A    between atoms: C_8  and  N_9
REMARK    4  A    between atoms: C_16  and  C_17
REMARK    5  A    between atoms: C_28  and  C_29
REMARK                            x       y       z     vdW  Elec       q    Type
REMARK                         _______ _______ _______ _____ _____    ______ ____
ROOT
ATOM      1  N   UNL     1       1.576   8.867  20.472  0.00  0.00    +0.000 N 
ATOM      2  C   UNL     1       0.507   9.192  21.285  0.00  0.00    +0.000 C 
ATOM      3  O   UNL     1      -0.295   8.375  21.734  0.00  0.00    +0.000 OA
ATOM      4  N   UNL     1       0.396  10.534  21.626  0.00  0.00    +0.000 N 
ATOM      5  C   UNL     1      -0.606  10.894  22.631  0.00  0.00    +0.000 C 
ATOM      6  C   UNL     1      -1.766  11.645  21.987  0.00  0.00    +0.000 C 
ATOM      7  C   UNL     1      -1.254  12.878  21.243  0.00  0.00    +0.000 C 
ATOM      8  C   UNL     1      -0.171  12.494  20.219  0.00  0.00    +0.000 C 
ATOM      9  C   UNL     1       0.950  11.672  20.883  0.00  0.00    +0.000 C 
ATOM     10  H   UNL     1       2.337   9.528  20.451  0.00  0.00    +0.000 HD
ENDROOT
BRANCH   8  11
ATOM     11  C   UNL     1       0.384  13.713  19.569  0.00  0.00    +0.000 A 
ATOM     12  N   UNL     1       1.632  13.963  19.207  0.00  0.00    +0.000 NA
ATOM     13  C   UNL     1       1.564  15.226  18.680  0.00  0.00    +0.000 A 
ATOM     14  C   UNL     1       2.557  16.049  18.128  0.00  0.00    +0.000 A 
ATOM     15  C   UNL     1       2.179  17.318  17.661  0.00  0.00    +0.000 A 
ATOM     16  C   UNL     1       0.850  17.754  17.743  0.00  0.00    +0.000 A 
ATOM     17  C   UNL     1      -0.152  16.943  18.292  0.00  0.00    +0.000 A 
ATOM     18  C   UNL     1       0.264  15.696  18.743  0.00  0.00    +0.000 A 
ATOM     19  O   UNL     1      -0.504  14.724  19.315  0.00  0.00    +0.000 OA
ENDBRANCH   8  11
BRANCH   1  23
ATOM     20  C   UNL     1       2.385   4.937  19.033  0.00  0.00    +0.000 A 
ATOM     21  C   UNL     1       2.542   6.054  18.216  0.00  0.00    +0.000 A 
ATOM     22  C   UNL     1       2.313   7.346  18.688  0.00  0.00    +0.000 A 
ATOM     23  C   UNL     1       1.864   7.569  19.981  0.00  0.00    +0.000 A 
ATOM     24  C   UNL     1       1.702   6.460  20.816  0.00  0.00    +0.000 A 
ATOM     25  C   UNL     1       1.963   5.140  20.366  0.00  0.00    +0.000 A 
ATOM     26  C   UNL     1       1.806   4.005  21.342  0.00  0.00    +0.000 C 
BRANCH  20  30
ATOM     27  C   UNL     1       3.814   1.600  17.968  0.00  0.00    +0.000 C 
ATOM     28  C   UNL     1       3.807   2.914  18.702  0.00  0.00    +0.000 C 
ATOM     29  O   UNL     1       4.774   3.228  19.390  0.00  0.00    +0.000 OA
ATOM     30  N   UNL     1       2.629   3.632  18.532  0.00  0.00    +0.000 N 
ATOM     31  H   UNL     1       1.856   3.155  18.096  0.00  0.00    +0.000 HD
ENDBRANCH  20  30
ENDBRANCH   1  23
TORSDOF 3
ENDMDL
MODEL 8
REMARK VINA RESULT:      -7.6      0.631      1.104
REMARK  Name = 
REMARK  5 active torsions:
REMARK  status: ('A' for Active; 'I' for Inactive)
REMARK    1  A    between atoms: C_1  and  C_2
REMARK    2  A    between atoms: N_4  and  C_5
REMARK    3  A    between atoms: C_8  and  N_9
REMARK    4  A    between atoms: C_16  and  C_17
REMARK    5  A    between atoms: C_28  and  C_29
REMARK                            x       y       z     vdW  Elec       q    Type
REMARK                         _______ _______ _______ _____ _____    ______ ____
ROOT
ATOM      1  N   UNL     1       1.885   8.251  18.067  0.00  0.00    +0.000 N 
ATOM      2  C   UNL     1       2.331   7.411  19.068  0.00  0.00    +0.000 C 
ATOM      3  O   UNL     1       2.290   7.680  20.267  0.00  0.00    +0.000 OA
ATOM      4  N   UNL     1       2.809   6.176  18.648  0.00  0.00    +0.000 N 
ATOM      5  C   UNL     1       3.117   5.186  19.682  0.00  0.00    +0.000 C 
ATOM      6  C   UNL     1       4.624   4.986  19.801  0.00  0.00    +0.000 C 
ATOM      7  C   UNL     1       5.216   4.585  18.450  0.00  0.00    +0.000 C 
ATOM      8  C   UNL     1       4.850   5.610  17.362  0.00  0.00    +0.000 C 
ATOM      9  C   UNL     1       3.329   5.848  17.316  0.00  0.00    +0.000 C 
ATOM     10  H   UNL     1       1.648   7.814  17.190  0.00  0.00    +0.000 HD
ENDROOT
BRANCH   8  11
ATOM     11  C   UNL     1       5.353   5.160  16.035  0.00  0.00    +0.000 A 
ATOM     12  N   UNL     1       4.868   4.221  15.240  0.00  0.00    +0.000 NA
ATOM     13  C   UNL     1       5.730   4.228  14.175  0.00  0.00    +0.000 A 
ATOM     14  C   UNL     1       5.753   3.457  13.003  0.00  0.00    +0.000 A 
ATOM     15  C   UNL     1       6.781   3.695  12.077  0.00  0.00    +0.000 A 
ATOM     16  C   UNL     1       7.758   4.672  12.312  0.00  0.00    +0.000 A 
ATOM     17  C   UNL     1       7.747   5.448  13.477  0.00  0.00    +0.000 A 
ATOM     18  C   UNL     1       6.714   5.181  14.368  0.00  0.00    +0.000 A 
ATOM     19  O   UNL     1       6.477   5.788  15.568  0.00  0.00    +0.000 OA
ENDBRANCH   8  11
BRANCH   1  23
ATOM     20  C   UNL     1       0.423  12.219  18.604  0.00  0.00    +0.000 A 
ATOM     21  C   UNL     1      -0.427  11.119  18.678  0.00  0.00    +0.000 A 
ATOM     22  C   UNL     1       0.047   9.815  18.539  0.00  0.00    +0.000 A 
ATOM     23  C   UNL     1       1.384   9.563  18.263  0.00  0.00    +0.000 A 
ATOM     24  C   UNL     1       2.251  10.655  18.185  0.00  0.00    +0.000 A 
ATOM     25  C   UNL     1       1.795  11.987  18.359  0.00  0.00    +0.000 A 
ATOM     26  C   UNL     1       2.802  13.104  18.304  0.00  0.00    +0.000 C 
BRANCH  20  30
ATOM     27  C   UNL     1      -0.861  15.563  19.823  0.00  0.00    +0.000 C 
ATOM     28  C   UNL     1      -0.190  14.222  19.959  0.00  0.00    +0.000 C 
ATOM     29  O   UNL     1       0.224  13.862  21.057  0.00  0.00    +0.000 OA
ATOM     30  N   UNL     1      -0.083  13.537  18.755  0.00  0.00    +0.000 N 
ATOM     31  H   UNL     1      -0.296  14.047  17.913  0.00  0.00    +0.000 HD
ENDBRANCH  20  30
ENDBRANCH   1  23
TORSDOF 3
ENDMDL
MODEL 9
REMARK VINA RESULT:      -7.6      0.700      1.712
REMARK  Name = 
REMARK  5 active torsions:
REMARK  status: ('A' for Active; 'I' for Inactive)
REMARK    1  A    between atoms: C_1  and  C_2
REMARK    2  A    between atoms: N_4  and  C_5
REMARK    3  A    between atoms: C_8  and  N_9
REMARK    4  A    between atoms: C_16  and  C_17
REMARK    5  A    between atoms: C_28  and  C_29
REMARK                            x       y       z     vdW  Elec       q    Type
REMARK                         _______ _______ _______ _____ _____    ______ ____
ROOT
ATOM      1  N   UNL     1       1.921   8.237  18.004  0.00  0.00    +0.000 N 
ATOM      2  C   UNL     1       2.373   7.402  19.007  0.00  0.00    +0.000 C 
ATOM      3  O   UNL     1       2.334   7.676  20.206  0.00  0.00    +0.000 OA
ATOM      4  N   UNL     1       2.854   6.168  18.592  0.00  0.00    +0.000 N 
ATOM      5  C   UNL     1       3.168   5.183  19.629  0.00  0.00    +0.000 C 
ATOM      6  C   UNL     1       4.676   4.988  19.745  0.00  0.00    +0.000 C 
ATOM      7  C   UNL     1       5.266   4.584  18.395  0.00  0.00    +0.000 C 
ATOM      8  C   UNL     1       4.894   5.603  17.303  0.00  0.00    +0.000 C 
ATOM      9  C   UNL     1       3.372   5.835  17.260  0.00  0.00    +0.000 C 
ATOM     10  H   UNL     1       1.684   7.795  17.129  0.00  0.00    +0.000 HD
ENDROOT
BRANCH   8  11
ATOM     11  C   UNL     1       5.396   5.150  15.977  0.00  0.00    +0.000 A 
ATOM     12  N   UNL     1       4.912   4.205  15.187  0.00  0.00    +0.000 NA
ATOM     13  C   UNL     1       5.771   4.210  14.119  0.00  0.00    +0.000 A 
ATOM     14  C   UNL     1       5.794   3.434  12.951  0.00  0.00    +0.000 A 
ATOM     15  C   UNL     1       6.818   3.673  12.021  0.00  0.00    +0.000 A 
ATOM     16  C   UNL     1       7.792   4.654  12.249  0.00  0.00    +0.000 A 
ATOM     17  C   UNL     1       7.781   5.436  13.411  0.00  0.00    +0.000 A 
ATOM     18  C   UNL     1       6.752   5.168  14.306  0.00  0.00    +0.000 A 
ATOM     19  O   UNL     1       6.516   5.780  15.503  0.00  0.00    +0.000 OA
ENDBRANCH   8  11
BRANCH   1  23
ATOM     20  C   UNL     1       0.352  12.150  18.630  0.00  0.00    +0.000 A 
ATOM     21  C   UNL     1       1.722  11.932  18.504  0.00  0.00    +0.000 A 
ATOM     22  C   UNL     1       2.242  10.660  18.265  0.00  0.00    +0.000 A 
ATOM     23  C   UNL     1       1.416   9.547  18.196  0.00  0.00    +0.000 A 
ATOM     24  C   UNL     1       0.039   9.749  18.319  0.00  0.00    +0.000 A 
ATOM     25  C   UNL     1      -0.513  11.039  18.529  0.00  0.00    +0.000 A 
ATOM     26  C   UNL     1      -2.010  11.175  18.606  0.00  0.00    +0.000 C 
BRANCH  20  30
ATOM     27  C   UNL     1      -0.890  15.423  20.066  0.00  0.00    +0.000 C 
ATOM     28  C   UNL     1      -0.205  14.083  20.106  0.00  0.00    +0.000 C 
ATOM     29  O   UNL     1       0.266  13.676  21.164  0.00  0.00    +0.000 OA
ATOM     30  N   UNL     1      -0.154  13.455  18.867  0.00  0.00    +0.000 N 
ATOM     31  H   UNL     1      -0.412  14.002  18.062  0.00  0.00    +0.000 HD
ENDBRANCH  20  30
ENDBRANCH   1  23
TORSDOF 3
ENDMDL
