MODEL 1
REMARK VINA RESULT:      -9.0      0.000      0.000
REMARK  Name = 
REMARK  4 active torsions:
REMARK  status: ('A' for Active; 'I' for Inactive)
REMARK    1  A    between atoms: N_1  and  S_2
REMARK    2  A    between atoms: S_2  and  C_5
REMARK    3  A    between atoms: C_9  and  N_10
REMARK    4  A    between atoms: C_16  and  C_17
REMARK                            x       y       z     vdW  Elec       q    Type
REMARK                         _______ _______ _______ _____ _____    ______ ____
ROOT
ATOM      1  N   UNL     1       2.693   7.182  18.266  0.00  0.00    +0.000 N 
ATOM      2  C   UNL     1       2.122   7.331  19.547  0.00  0.00    +0.000 C 
ATOM      3  O   UNL     1       2.202   6.462  20.414  0.00  0.00    +0.000 OA
ATOM      4  N   UNL     1       1.460   8.531  19.808  0.00  0.00    +0.000 N 
ATOM      5  C   UNL     1       1.206   8.892  21.193  0.00  0.00    +0.000 C 
ATOM      6  C   UNL     1      -0.176   9.463  21.386  0.00  0.00    +0.000 C 
ATOM      7  C   UNL     1      -0.468  10.689  20.477  0.00  0.00    +0.000 C 
ATOM      8  C   UNL     1      -0.191  10.209  19.038  0.00  0.00    +0.000 C 
ATOM      9  C   UNL     1       1.207   9.599  18.830  0.00  0.00    +0.000 C 
ATOM     10  H   UNL     1       2.946   8.061  17.839  0.00  0.00    +0.000 HD
ENDROOT
BRANCH   7  11
ATOM     11  C   UNL     1       0.180  11.965  21.033  0.00  0.00    +0.000 A 
ATOM     12  C   UNL     1       1.476  12.239  20.537  0.00  0.00    +0.000 A 
ATOM     13  C   UNL     1       2.120  13.447  20.771  0.00  0.00    +0.000 A 
ATOM     14  C   UNL     1       1.410  14.470  21.376  0.00  0.00    +0.000 A 
ATOM     15  C   UNL     1       0.156  14.206  21.935  0.00  0.00    +0.000 A 
ATOM     16  C   UNL     1      -0.536  15.240  22.559  0.00  0.00    +0.000 A 
ATOM     17  C   UNL     1      -1.291  14.994  23.684  0.00  0.00    +0.000 A 
ATOM     18  C   UNL     1      -1.694  13.694  23.903  0.00  0.00    +0.000 A 
ATOM     19  C   UNL     1      -1.354  12.693  22.975  0.00  0.00    +0.000 A 
ATOM     20  C   UNL     1      -0.374  12.903  21.965  0.00  0.00    +0.000 A 
ENDBRANCH   7  11
BRANCH   1  25
ATOM     21  C   UNL     1       5.396   4.937  17.183  0.00  0.00    +0.000 A 
ATOM     22  C   UNL     1       4.741   3.708  17.083  0.00  0.00    +0.000 A 
ATOM     23  C   UNL     1       3.377   3.651  17.318  0.00  0.00    +0.000 A 
ATOM     24  C   UNL     1       2.685   4.803  17.687  0.00  0.00    +0.000 A 
ATOM     25  C   UNL     1       3.348   6.028  17.827  0.00  0.00    +0.000 A 
ATOM     26  C   UNL     1       4.701   6.113  17.528  0.00  0.00    +0.000 A 
BRANCH  21  27
ATOM     27  S   UNL     1       7.149   4.964  16.892  0.00  0.00    +0.000 S 
ATOM     28  O   UNL     1       7.406   4.469  15.562  0.00  0.00    +0.000 OA
ATOM     29  O   UNL     1       7.822   4.432  18.054  0.00  0.00    +0.000 OA
BRANCH  27  30
ATOM     30  N   UNL     1       7.467   6.596  16.879  0.00  0.00    +0.000 NA
ATOM     31  H   UNL     1       6.616   7.113  16.658  0.00  0.00    +0.000 HD
ATOM     32  H   UNL     1       8.247   6.809  16.258  0.00  0.00    +0.000 HD
ENDBRANCH  27  30
ENDBRANCH  21  27
ENDBRANCH   1  25
TORSDOF 4
ENDMDL
MODEL 2
REMARK VINA RESULT:      -8.8      1.155      2.513
REMARK  Name = 
REMARK  4 active torsions:
REMARK  status: ('A' for Active; 'I' for Inactive)
REMARK    1  A    between atoms: N_1  and  S_2
REMARK    2  A    between atoms: S_2  and  C_5
REMARK    3  A    between atoms: C_9  and  N_10
REMARK    4  A    between atoms: C_16  and  C_17
REMARK                            x       y       z     vdW  Elec       q    Type
REMARK                         _______ _______ _______ _____ _____    ______ ____
ROOT
ATOM      1  N   UNL     1       2.704   7.409  18.000  0.00  0.00    +0.000 N 
ATOM      2  C   UNL     1       2.138   7.618  19.275  0.00  0.00    +0.000 C 
ATOM      3  O   UNL     1       2.294   6.830  20.206  0.00  0.00    +0.000 OA
ATOM      4  N   UNL     1       1.391   8.782  19.452  0.00  0.00    +0.000 N 
ATOM      5  C   UNL     1       1.128   9.234  20.808  0.00  0.00    +0.000 C 
ATOM      6  C   UNL     1      -0.291   9.715  20.979  0.00  0.00    +0.000 C 
ATOM      7  C   UNL     1      -0.686  10.839  19.981  0.00  0.00    +0.000 C 
ATOM      8  C   UNL     1      -0.390  10.267  18.580  0.00  0.00    +0.000 C 
ATOM      9  C   UNL     1       1.048   9.747  18.397  0.00  0.00    +0.000 C 
ATOM     10  H   UNL     1       2.885   8.267  17.500  0.00  0.00    +0.000 HD
ENDROOT
BRANCH   7  11
ATOM     11  C   UNL     1      -0.128  12.200  20.422  0.00  0.00    +0.000 A 
ATOM     12  C   UNL     1      -0.793  12.786  21.525  0.00  0.00    +0.000 A 
ATOM     13  C   UNL     1      -0.296  13.905  22.181  0.00  0.00    +0.000 A 
ATOM     14  C   UNL     1       0.964  14.366  21.843  0.00  0.00    +0.000 A 
ATOM     15  C   UNL     1       1.612  13.850  20.716  0.00  0.00    +0.000 A 
ATOM     16  C   UNL     1       2.870  14.340  20.378  0.00  0.00    +0.000 A 
ATOM     17  C   UNL     1       3.226  14.493  19.056  0.00  0.00    +0.000 A 
ATOM     18  C   UNL     1       2.520  13.763  18.123  0.00  0.00    +0.000 A 
ATOM     19  C   UNL     1       1.505  12.885  18.547  0.00  0.00    +0.000 A 
ATOM     20  C   UNL     1       0.979  12.922  19.868  0.00  0.00    +0.000 A 
ENDBRANCH   7  11
BRANCH   1  25
ATOM     21  C   UNL     1       5.538   5.304  16.972  0.00  0.00    +0.000 A 
ATOM     22  C   UNL     1       5.001   4.018  17.055  0.00  0.00    +0.000 A 
ATOM     23  C   UNL     1       3.666   3.867  17.396  0.00  0.00    +0.000 A 
ATOM     24  C   UNL     1       2.890   4.987  17.687  0.00  0.00    +0.000 A 
ATOM     25  C   UNL     1       3.438   6.275  17.642  0.00  0.00    +0.000 A 
ATOM     26  C   UNL     1       4.755   6.445  17.236  0.00  0.00    +0.000 A 
BRANCH  21  27
ATOM     27  S   UNL     1       7.257   5.453  16.549  0.00  0.00    +0.000 S 
ATOM     28  O   UNL     1       7.979   4.357  17.147  0.00  0.00    +0.000 OA
ATOM     29  O   UNL     1       7.663   6.829  16.727  0.00  0.00    +0.000 OA
BRANCH  27  30
ATOM     30  N   UNL     1       7.230   5.187  14.908  0.00  0.00    +0.000 NA
ATOM     31  H   UNL     1       8.047   4.641  14.633  0.00  0.00    +0.000 HD
ATOM     32  H   UNL     1       7.135   6.064  14.400  0.00  0.00    +0.000 HD
ENDBRANCH  27  30
ENDBRANCH  21  27
ENDBRANCH   1  25
TORSDOF 4
ENDMDL
MODEL 3
REMARK VINA RESULT:      -8.7      1.977      3.535
REMARK  Name = 
REMARK  4 active torsions:
REMARK  status: ('A' for Active; 'I' for Inactive)
REMARK    1  A    between atoms: N_1  and  S_2
REMARK    2  A    between atoms: S_2  and  C_5
REMARK    3  A    between atoms: C_9  and  N_10
REMARK    4  A    between atoms: C_16  and  C_17
REMARK                            x       y       z     vdW  Elec       q    Type
REMARK                         _______ _______ _______ _____ _____    ______ ____
ROOT
ATOM      1  N   UNL     1       2.465   6.957  18.756  0.00  0.00    +0.000 N 
ATOM      2  C   UNL     1       2.317   8.247  18.205  0.00  0.00    +0.000 C 
ATOM      3  O   UNL     1       2.827   8.573  17.135  0.00  0.00    +0.000 OA
ATOM      4  N   UNL     1       1.542   9.157  18.924  0.00  0.00    +0.000 N 
ATOM      5  C   UNL     1       1.041  10.334  18.235  0.00  0.00    +0.000 C 
ATOM      6  C   UNL     1       1.156  11.577  19.080  0.00  0.00    +0.000 C 
ATOM      7  C   UNL     1       0.448  11.453  20.458  0.00  0.00    +0.000 C 
ATOM      8  C   UNL     1       1.051  10.197  21.118  0.00  0.00    +0.000 C 
ATOM      9  C   UNL     1       0.966   8.924  20.257  0.00  0.00    +0.000 C 
ATOM     10  H   UNL     1       1.690   6.685  19.344  0.00  0.00    +0.000 HD
ENDROOT
BRANCH   7  11
ATOM     11  C   UNL     1      -1.071  11.635  20.325  0.00  0.00    +0.000 A 
ATOM     12  C   UNL     1      -1.685  12.318  21.400  0.00  0.00    +0.000 A 
ATOM     13  C   UNL     1      -3.004  12.749  21.348  0.00  0.00    +0.000 A 
ATOM     14  C   UNL     1      -3.690  12.642  20.151  0.00  0.00    +0.000 A 
ATOM     15  C   UNL     1      -3.132  11.913  19.096  0.00  0.00    +0.000 A 
ATOM     16  C   UNL     1      -3.844  11.797  17.906  0.00  0.00    +0.000 A 
ATOM     17  C   UNL     1      -3.804  10.626  17.181  0.00  0.00    +0.000 A 
ATOM     18  C   UNL     1      -2.741   9.778  17.409  0.00  0.00    +0.000 A 
ATOM     19  C   UNL     1      -1.743  10.143  18.330  0.00  0.00    +0.000 A 
ATOM     20  C   UNL     1      -1.919  11.216  19.247  0.00  0.00    +0.000 A 
ENDBRANCH   7  11
BRANCH   1  25
ATOM     21  C   UNL     1       5.423   5.093  17.618  0.00  0.00    +0.000 A 
ATOM     22  C   UNL     1       4.869   3.884  17.193  0.00  0.00    +0.000 A 
ATOM     23  C   UNL     1       3.492   3.724  17.232  0.00  0.00    +0.000 A 
ATOM     24  C   UNL     1       2.686   4.747  17.725  0.00  0.00    +0.000 A 
ATOM     25  C   UNL     1       3.244   5.945  18.189  0.00  0.00    +0.000 A 
ATOM     26  C   UNL     1       4.615   6.145  18.092  0.00  0.00    +0.000 A 
BRANCH  21  27
ATOM     27  S   UNL     1       7.192   5.250  17.570  0.00  0.00    +0.000 S 
ATOM     28  O   UNL     1       7.704   4.423  16.506  0.00  0.00    +0.000 OA
ATOM     29  O   UNL     1       7.704   5.171  18.920  0.00  0.00    +0.000 OA
BRANCH  27  30
ATOM     30  N   UNL     1       7.381   6.833  17.096  0.00  0.00    +0.000 NA
ATOM     31  H   UNL     1       6.473   7.299  17.076  0.00  0.00    +0.000 HD
ATOM     32  H   UNL     1       7.888   6.890  16.214  0.00  0.00    +0.000 HD
ENDBRANCH  27  30
ENDBRANCH  21  27
ENDBRANCH   1  25
TORSDOF 4
ENDMDL
MODEL 4
REMARK VINA RESULT:      -8.6      1.268      1.419
REMARK  Name = 
REMARK  4 active torsions:
REMARK  status: ('A' for Active; 'I' for Inactive)
REMARK    1  A    between atoms: N_1  and  S_2
REMARK    2  A    between atoms: S_2  and  C_5
REMARK    3  A    between atoms: C_9  and  N_10
REMARK    4  A    between atoms: C_16  and  C_17
REMARK                            x       y       z     vdW  Elec       q    Type
REMARK                         _______ _______ _______ _____ _____    ______ ____
ROOT
ATOM      1  N   UNL     1       2.456   7.622  18.073  0.00  0.00    +0.000 N 
ATOM      2  C   UNL     1       1.954   7.971  19.344  0.00  0.00    +0.000 C 
ATOM      3  O   UNL     1       2.221   7.333  20.360  0.00  0.00    +0.000 OA
ATOM      4  N   UNL     1       1.137   9.099  19.413  0.00  0.00    +0.000 N 
ATOM      5  C   UNL     1       0.922   9.719  20.710  0.00  0.00    +0.000 C 
ATOM      6  C   UNL     1      -0.515  10.129  20.911  0.00  0.00    +0.000 C 
ATOM      7  C   UNL     1      -1.048  11.075  19.800  0.00  0.00    +0.000 C 
ATOM      8  C   UNL     1      -0.795  10.332  18.473  0.00  0.00    +0.000 C 
ATOM      9  C   UNL     1       0.663   9.884  18.263  0.00  0.00    +0.000 C 
ATOM     10  H   UNL     1       2.545   8.412  17.450  0.00  0.00    +0.000 HD
ENDROOT
BRANCH   7  11
ATOM     11  C   UNL     1      -0.564  12.516  20.014  0.00  0.00    +0.000 A 
ATOM     12  C   UNL     1       0.202  13.051  18.953  0.00  0.00    +0.000 A 
ATOM     13  C   UNL     1       0.541  14.396  18.887  0.00  0.00    +0.000 A 
ATOM     14  C   UNL     1      -0.017  15.267  19.806  0.00  0.00    +0.000 A 
ATOM     15  C   UNL     1      -0.722  14.758  20.902  0.00  0.00    +0.000 A 
ATOM     16  C   UNL     1      -1.259  15.646  21.830  0.00  0.00    +0.000 A 
ATOM     17  C   UNL     1      -1.275  15.329  23.170  0.00  0.00    +0.000 A 
ATOM     18  C   UNL     1      -1.168  13.995  23.506  0.00  0.00    +0.000 A 
ATOM     19  C   UNL     1      -1.080  13.026  22.490  0.00  0.00    +0.000 A 
ATOM     20  C   UNL     1      -0.812  13.373  21.137  0.00  0.00    +0.000 A 
ENDBRANCH   7  11
BRANCH   1  25
ATOM     21  C   UNL     1       5.429   5.558  17.426  0.00  0.00    +0.000 A 
ATOM     22  C   UNL     1       4.907   4.263  17.460  0.00  0.00    +0.000 A 
ATOM     23  C   UNL     1       3.543   4.092  17.637  0.00  0.00    +0.000 A 
ATOM     24  C   UNL     1       2.720   5.201  17.816  0.00  0.00    +0.000 A 
ATOM     25  C   UNL     1       3.248   6.498  17.823  0.00  0.00    +0.000 A 
ATOM     26  C   UNL     1       4.601   6.688  17.578  0.00  0.00    +0.000 A 
BRANCH  21  27
ATOM     27  S   UNL     1       7.185   5.733  17.215  0.00  0.00    +0.000 S 
ATOM     28  O   UNL     1       7.656   6.776  18.092  0.00  0.00    +0.000 OA
ATOM     29  O   UNL     1       7.488   5.721  15.802  0.00  0.00    +0.000 OA
BRANCH  27  30
ATOM     30  N   UNL     1       7.747   4.290  17.822  0.00  0.00    +0.000 NA
ATOM     31  H   UNL     1       7.392   3.517  17.259  0.00  0.00    +0.000 HD
ATOM     32  H   UNL     1       7.531   4.206  18.814  0.00  0.00    +0.000 HD
ENDBRANCH  27  30
ENDBRANCH  21  27
ENDBRANCH   1  25
TORSDOF 4
ENDMDL
MODEL 5
REMARK VINA RESULT:      -8.5      1.633      2.742
REMARK  Name = 
REMARK  4 active torsions:
REMARK  status: ('A' for Active; 'I' for Inactive)
REMARK    1  A    between atoms: N_1  and  S_2
REMARK    2  A    between atoms: S_2  and  C_5
REMARK    3  A    between atoms: C_9  and  N_10
REMARK    4  A    between atoms: C_16  and  C_17
REMARK                            x       y       z     vdW  Elec       q    Type
REMARK                         _______ _______ _______ _____ _____    ______ ____
ROOT
ATOM      1  N   UNL     1       2.416   7.644  18.026  0.00  0.00    +0.000 N 
ATOM      2  C   UNL     1       1.925   8.064  19.280  0.00  0.00    +0.000 C 
ATOM      3  O   UNL     1       2.211   7.490  20.329  0.00  0.00    +0.000 OA
ATOM      4  N   UNL     1       1.097   9.186  19.292  0.00  0.00    +0.000 N 
ATOM      5  C   UNL     1       0.891   9.879  20.552  0.00  0.00    +0.000 C 
ATOM      6  C   UNL     1      -0.548  10.285  20.747  0.00  0.00    +0.000 C 
ATOM      7  C   UNL     1      -1.104  11.158  19.588  0.00  0.00    +0.000 C 
ATOM      8  C   UNL     1      -0.859  10.341  18.304  0.00  0.00    +0.000 C 
ATOM      9  C   UNL     1       0.601   9.895  18.103  0.00  0.00    +0.000 C 
ATOM     10  H   UNL     1       2.490   8.397  17.356  0.00  0.00    +0.000 HD
ENDROOT
BRANCH   7  11
ATOM     11  C   UNL     1      -0.634  12.615  19.710  0.00  0.00    +0.000 A 
ATOM     12  C   UNL     1      -1.612  13.518  20.188  0.00  0.00    +0.000 A 
ATOM     13  C   UNL     1      -1.302  14.822  20.553  0.00  0.00    +0.000 A 
ATOM     14  C   UNL     1       0.028  15.200  20.597  0.00  0.00    +0.000 A 
ATOM     15  C   UNL     1       1.007  14.352  20.067  0.00  0.00    +0.000 A 
ATOM     16  C   UNL     1       2.338  14.756  20.099  0.00  0.00    +0.000 A 
ATOM     17  C   UNL     1       3.185  14.448  19.057  0.00  0.00    +0.000 A 
ATOM     18  C   UNL     1       2.825  13.398  18.239  0.00  0.00    +0.000 A 
ATOM     19  C   UNL     1       1.649  12.676  18.509  0.00  0.00    +0.000 A 
ATOM     20  C   UNL     1       0.663  13.151  19.418  0.00  0.00    +0.000 A 
ENDBRANCH   7  11
BRANCH   1  25
ATOM     21  C   UNL     1       5.408   5.574  17.498  0.00  0.00    +0.000 A 
ATOM     22  C   UNL     1       4.894   4.278  17.585  0.00  0.00    +0.000 A 
ATOM     23  C   UNL     1       3.529   4.106  17.758  0.00  0.00    +0.000 A 
ATOM     24  C   UNL     1       2.697   5.216  17.880  0.00  0.00    +0.000 A 
ATOM     25  C   UNL     1       3.217   6.516  17.833  0.00  0.00    +0.000 A 
ATOM     26  C   UNL     1       4.572   6.703  17.592  0.00  0.00    +0.000 A 
BRANCH  21  27
ATOM     27  S   UNL     1       7.164   5.751  17.295  0.00  0.00    +0.000 S 
ATOM     28  O   UNL     1       7.637   6.764  18.205  0.00  0.00    +0.000 OA
ATOM     29  O   UNL     1       7.469   5.783  15.883  0.00  0.00    +0.000 OA
BRANCH  27  30
ATOM     30  N   UNL     1       7.722   4.288  17.856  0.00  0.00    +0.000 NA
ATOM     31  H   UNL     1       6.945   3.632  17.940  0.00  0.00    +0.000 HD
ATOM     32  H   UNL     1       8.250   4.408  18.719  0.00  0.00    +0.000 HD
ENDBRANCH  27  30
ENDBRANCH  21  27
ENDBRANCH   1  25
TORSDOF 4
ENDMDL
MODEL 6
REMARK VINA RESULT:      -8.3      1.655      1.826
REMARK  Name = 
REMARK  4 active torsions:
REMARK  status: ('A' for Active; 'I' for Inactive)
REMARK    1  A    between atoms: N_1  and  S_2
REMARK    2  A    between atoms: S_2  and  C_5
REMARK    3  A    between atoms: C_9  and  N_10
REMARK    4  A    between atoms: C_16  and  C_17
REMARK                            x       y       z     vdW  Elec       q    Type
REMARK                         _______ _______ _______ _____ _____    ______ ____
ROOT
ATOM      1  N   UNL     1       2.560   7.529  18.200  0.00  0.00    +0.000 N 
ATOM      2  C   UNL     1       1.951   7.958  19.397  0.00  0.00    +0.000 C 
ATOM      3  O   UNL     1       2.133   7.391  20.473  0.00  0.00    +0.000 OA
ATOM      4  N   UNL     1       1.128   9.082  19.321  0.00  0.00    +0.000 N 
ATOM      5  C   UNL     1       0.803   9.784  20.551  0.00  0.00    +0.000 C 
ATOM      6  C   UNL     1      -0.647  10.194  20.602  0.00  0.00    +0.000 C 
ATOM      7  C   UNL     1      -1.086  11.060  19.389  0.00  0.00    +0.000 C 
ATOM      8  C   UNL     1      -0.720  10.233  18.140  0.00  0.00    +0.000 C 
ATOM      9  C   UNL     1       0.751   9.783  18.085  0.00  0.00    +0.000 C 
ATOM     10  H   UNL     1       2.700   8.277  17.535  0.00  0.00    +0.000 HD
ENDROOT
BRANCH   7  11
ATOM     11  C   UNL     1      -0.627  12.517  19.546  0.00  0.00    +0.000 A 
ATOM     12  C   UNL     1       0.500  12.873  18.768  0.00  0.00    +0.000 A 
ATOM     13  C   UNL     1       0.919  14.189  18.630  0.00  0.00    +0.000 A 
ATOM     14  C   UNL     1       0.121  15.197  19.142  0.00  0.00    +0.000 A 
ATOM     15  C   UNL     1      -0.958  14.872  19.970  0.00  0.00    +0.000 A 
ATOM     16  C   UNL     1      -1.738  15.898  20.495  0.00  0.00    +0.000 A 
ATOM     17  C   UNL     1      -2.252  15.801  21.770  0.00  0.00    +0.000 A 
ATOM     18  C   UNL     1      -2.352  14.539  22.316  0.00  0.00    +0.000 A 
ATOM     19  C   UNL     1      -1.964  13.419  21.559  0.00  0.00    +0.000 A 
ATOM     20  C   UNL     1      -1.209  13.543  20.360  0.00  0.00    +0.000 A 
ENDBRANCH   7  11
BRANCH   1  25
ATOM     21  C   UNL     1       5.558   5.402  18.278  0.00  0.00    +0.000 A 
ATOM     22  C   UNL     1       5.031   4.133  18.034  0.00  0.00    +0.000 A 
ATOM     23  C   UNL     1       3.674   4.006  17.780  0.00  0.00    +0.000 A 
ATOM     24  C   UNL     1       2.852   5.129  17.809  0.00  0.00    +0.000 A 
ATOM     25  C   UNL     1       3.373   6.397  18.093  0.00  0.00    +0.000 A 
ATOM     26  C   UNL     1       4.740   6.549  18.281  0.00  0.00    +0.000 A 
BRANCH  21  27
ATOM     27  S   UNL     1       7.299   5.520  18.617  0.00  0.00    +0.000 S 
ATOM     28  O   UNL     1       7.518   5.254  20.017  0.00  0.00    +0.000 OA
ATOM     29  O   UNL     1       7.821   6.701  17.967  0.00  0.00    +0.000 OA
BRANCH  27  30
ATOM     30  N   UNL     1       7.900   4.222  17.769  0.00  0.00    +0.000 NA
ATOM     31  H   UNL     1       8.854   4.418  17.466  0.00  0.00    +0.000 HD
ATOM     32  H   UNL     1       7.274   3.965  17.007  0.00  0.00    +0.000 HD
ENDBRANCH  27  30
ENDBRANCH  21  27
ENDBRANCH   1  25
TORSDOF 4
ENDMDL
MODEL 7
REMARK VINA RESULT:      -8.3      1.344      1.422
REMARK  Name = 
REMARK  4 active torsions:
REMARK  status: ('A' for Active; 'I' for Inactive)
REMARK    1  A    between atoms: N_1  and  S_2
REMARK    2  A    between atoms: S_2  and  C_5
REMARK    3  A    between atoms: C_9  and  N_10
REMARK    4  A    between atoms: C_16  and  C_17
REMARK                            x       y       z     vdW  Elec       q    Type
REMARK                         _______ _______ _______ _____ _____    ______ ____
ROOT
ATOM      1  N   UNL     1       2.630   7.273  17.973  0.00  0.00    +0.000 N 
ATOM      2  C   UNL     1       2.100   7.640  19.227  0.00  0.00    +0.000 C 
ATOM      3  O   UNL     1       2.270   6.965  20.241  0.00  0.00    +0.000 OA
ATOM      4  N   UNL     1       1.374   8.829  19.283  0.00  0.00    +0.000 N 
ATOM      5  C   UNL     1       1.151   9.441  20.582  0.00  0.00    +0.000 C 
ATOM      6  C   UNL     1      -0.256   9.962  20.729  0.00  0.00    +0.000 C 
ATOM      7  C   UNL     1      -0.661  10.967  19.615  0.00  0.00    +0.000 C 
ATOM      8  C   UNL     1      -0.409  10.229  18.286  0.00  0.00    +0.000 C 
ATOM      9  C   UNL     1       1.016   9.668  18.130  0.00  0.00    +0.000 C 
ATOM     10  H   UNL     1       2.810   8.063  17.370  0.00  0.00    +0.000 HD
ENDROOT
BRANCH   7  11
ATOM     11  C   UNL     1      -0.074  12.361  19.880  0.00  0.00    +0.000 A 
ATOM     12  C   UNL     1       1.338  12.425  19.866  0.00  0.00    +0.000 A 
ATOM     13  C   UNL     1       2.026  13.631  19.880  0.00  0.00    +0.000 A 
ATOM     14  C   UNL     1       1.308  14.806  19.747  0.00  0.00    +0.000 A 
ATOM     15  C   UNL     1      -0.088  14.777  19.826  0.00  0.00    +0.000 A 
ATOM     16  C   UNL     1      -0.796  15.970  19.712  0.00  0.00    +0.000 A 
ATOM     17  C   UNL     1      -1.934  16.180  20.460  0.00  0.00    +0.000 A 
ATOM     18  C   UNL     1      -2.578  15.066  20.957  0.00  0.00    +0.000 A 
ATOM     19  C   UNL     1      -2.079  13.784  20.664  0.00  0.00    +0.000 A 
ATOM     20  C   UNL     1      -0.781  13.587  20.115  0.00  0.00    +0.000 A 
ENDBRANCH   7  11
BRANCH   1  25
ATOM     21  C   UNL     1       5.444   5.002  17.307  0.00  0.00    +0.000 A 
ATOM     22  C   UNL     1       4.840   3.745  17.392  0.00  0.00    +0.000 A 
ATOM     23  C   UNL     1       3.474   3.669  17.610  0.00  0.00    +0.000 A 
ATOM     24  C   UNL     1       2.729   4.834  17.778  0.00  0.00    +0.000 A 
ATOM     25  C   UNL     1       3.340   6.093  17.734  0.00  0.00    +0.000 A 
ATOM     26  C   UNL     1       4.695   6.187  17.449  0.00  0.00    +0.000 A 
BRANCH  21  27
ATOM     27  S   UNL     1       7.201   5.056  17.046  0.00  0.00    +0.000 S 
ATOM     28  O   UNL     1       7.494   4.507  15.746  0.00  0.00    +0.000 OA
ATOM     29  O   UNL     1       7.864   4.595  18.244  0.00  0.00    +0.000 OA
BRANCH  27  30
ATOM     30  N   UNL     1       7.482   6.693  16.962  0.00  0.00    +0.000 NA
ATOM     31  H   UNL     1       6.815   7.189  17.553  0.00  0.00    +0.000 HD
ATOM     32  H   UNL     1       7.486   7.012  15.994  0.00  0.00    +0.000 HD
ENDBRANCH  27  30
ENDBRANCH  21  27
ENDBRANCH   1  25
TORSDOF 4
ENDMDL
MODEL 8
REMARK VINA RESULT:      -8.2      1.719      2.562
REMARK  Name = 
REMARK  4 active torsions:
REMARK  status: ('A' for Active; 'I' for Inactive)
REMARK    1  A    between atoms: N_1  and  S_2
REMARK    2  A    between atoms: S_2  and  C_5
REMARK    3  A    between atoms: C_9  and  N_10
REMARK    4  A    between atoms: C_16  and  C_17
REMARK                            x       y       z     vdW  Elec       q    Type
REMARK                         _______ _______ _______ _____ _____    ______ ____
ROOT
ATOM      1  N   UNL     1       1.986   7.081  18.853  0.00  0.00    +0.000 N 
ATOM      2  C   UNL     1       2.033   8.400  18.356  0.00  0.00    +0.000 C 
ATOM      3  O   UNL     1       2.563   8.685  17.284  0.00  0.00    +0.000 OA
ATOM      4  N   UNL     1       1.431   9.390  19.132  0.00  0.00    +0.000 N 
ATOM      5  C   UNL     1       1.109  10.660  18.502  0.00  0.00    +0.000 C 
ATOM      6  C   UNL     1       1.441  11.833  19.390  0.00  0.00    +0.000 C 
ATOM      7  C   UNL     1       0.757  11.765  20.783  0.00  0.00    +0.000 C 
ATOM      8  C   UNL     1       1.167  10.403  21.377  0.00  0.00    +0.000 C 
ATOM      9  C   UNL     1       0.858   9.196  20.472  0.00  0.00    +0.000 C 
ATOM     10  H   UNL     1       1.192   6.911  19.454  0.00  0.00    +0.000 HD
ENDROOT
BRANCH   7  11
ATOM     11  C   UNL     1      -0.717  12.192  20.703  0.00  0.00    +0.000 A 
ATOM     12  C   UNL     1      -1.314  12.035  19.431  0.00  0.00    +0.000 A 
ATOM     13  C   UNL     1      -2.681  12.174  19.231  0.00  0.00    +0.000 A 
ATOM     14  C   UNL     1      -3.502  12.317  20.336  0.00  0.00    +0.000 A 
ATOM     15  C   UNL     1      -2.935  12.541  21.594  0.00  0.00    +0.000 A 
ATOM     16  C   UNL     1      -3.775  12.704  22.693  0.00  0.00    +0.000 A 
ATOM     17  C   UNL     1      -3.450  13.596  23.692  0.00  0.00    +0.000 A 
ATOM     18  C   UNL     1      -2.127  13.968  23.801  0.00  0.00    +0.000 A 
ATOM     19  C   UNL     1      -1.172  13.415  22.929  0.00  0.00    +0.000 A 
ATOM     20  C   UNL     1      -1.546  12.703  21.755  0.00  0.00    +0.000 A 
ENDBRANCH   7  11
BRANCH   1  25
ATOM     21  C   UNL     1       4.561   4.921  17.363  0.00  0.00    +0.000 A 
ATOM     22  C   UNL     1       3.851   3.748  17.098  0.00  0.00    +0.000 A 
ATOM     23  C   UNL     1       2.491   3.711  17.364  0.00  0.00    +0.000 A 
ATOM     24  C   UNL     1       1.860   4.820  17.922  0.00  0.00    +0.000 A 
ATOM     25  C   UNL     1       2.579   5.982  18.226  0.00  0.00    +0.000 A 
ATOM     26  C   UNL     1       3.927   6.057  17.902  0.00  0.00    +0.000 A 
BRANCH  21  27
ATOM     27  S   UNL     1       6.306   4.921  17.026  0.00  0.00    +0.000 S 
ATOM     28  O   UNL     1       7.007   4.480  18.206  0.00  0.00    +0.000 OA
ATOM     29  O   UNL     1       6.648   6.147  16.341  0.00  0.00    +0.000 OA
BRANCH  27  30
ATOM     30  N   UNL     1       6.435   3.707  15.896  0.00  0.00    +0.000 NA
ATOM     31  H   UNL     1       5.821   3.905  15.106  0.00  0.00    +0.000 HD
ATOM     32  H   UNL     1       6.272   2.796  16.322  0.00  0.00    +0.000 HD
ENDBRANCH  27  30
ENDBRANCH  21  27
ENDBRANCH   1  25
TORSDOF 4
ENDMDL
MODEL 9
REMARK VINA RESULT:      -8.1      2.874      4.290
REMARK  Name = 
REMARK  4 active torsions:
REMARK  status: ('A' for Active; 'I' for Inactive)
REMARK    1  A    between atoms: N_1  and  S_2
REMARK    2  A    between atoms: S_2  and  C_5
REMARK    3  A    between atoms: C_9  and  N_10
REMARK    4  A    between atoms: C_16  and  C_17
REMARK                            x       y       z     vdW  Elec       q    Type
REMARK                         _______ _______ _______ _____ _____    ______ ____
ROOT
ATOM      1  N   UNL     1       2.345   7.276  19.012  0.00  0.00    +0.000 N 
ATOM      2  C   UNL     1       2.115   8.499  18.349  0.00  0.00    +0.000 C 
ATOM      3  O   UNL     1       2.588   8.752  17.242  0.00  0.00    +0.000 OA
ATOM      4  N   UNL     1       1.302   9.428  18.999  0.00  0.00    +0.000 N 
ATOM      5  C   UNL     1       0.724  10.507  18.217  0.00  0.00    +0.000 C 
ATOM      6  C   UNL     1       0.783  11.828  18.942  0.00  0.00    +0.000 C 
ATOM      7  C   UNL     1       0.108  11.793  20.341  0.00  0.00    +0.000 C 
ATOM      8  C   UNL     1       0.792  10.639  21.099  0.00  0.00    +0.000 C 
ATOM      9  C   UNL     1       0.764   9.288  20.360  0.00  0.00    +0.000 C 
ATOM     10  H   UNL     1       1.597   7.017  19.640  0.00  0.00    +0.000 HD
ENDROOT
BRANCH   7  11
ATOM     11  C   UNL     1      -1.421  11.879  20.226  0.00  0.00    +0.000 A 
ATOM     12  C   UNL     1      -2.060  12.572  21.280  0.00  0.00    +0.000 A 
ATOM     13  C   UNL     1      -3.403  12.921  21.232  0.00  0.00    +0.000 A 
ATOM     14  C   UNL     1      -4.099  12.721  20.053  0.00  0.00    +0.000 A 
ATOM     15  C   UNL     1      -3.513  11.979  19.021  0.00  0.00    +0.000 A 
ATOM     16  C   UNL     1      -4.234  11.768  17.849  0.00  0.00    +0.000 A 
ATOM     17  C   UNL     1      -4.134  10.571  17.176  0.00  0.00    +0.000 A 
ATOM     18  C   UNL     1      -3.019   9.798  17.423  0.00  0.00    +0.000 A 
ATOM     19  C   UNL     1      -2.032  10.262  18.310  0.00  0.00    +0.000 A 
ATOM     20  C   UNL     1      -2.259  11.363  19.182  0.00  0.00    +0.000 A 
ENDBRANCH   7  11
BRANCH   1  25
ATOM     21  C   UNL     1       3.786   3.932  18.505  0.00  0.00    +0.000 A 
ATOM     22  C   UNL     1       4.699   4.153  17.472  0.00  0.00    +0.000 A 
ATOM     23  C   UNL     1       4.872   5.442  16.992  0.00  0.00    +0.000 A 
ATOM     24  C   UNL     1       4.114   6.487  17.514  0.00  0.00    +0.000 A 
ATOM     25  C   UNL     1       3.170   6.260  18.523  0.00  0.00    +0.000 A 
ATOM     26  C   UNL     1       3.034   4.986  19.059  0.00  0.00    +0.000 A 
BRANCH  21  27
ATOM     27  S   UNL     1       3.579   2.263  19.079  0.00  0.00    +0.000 S 
ATOM     28  O   UNL     1       3.668   1.369  17.951  0.00  0.00    +0.000 OA
ATOM     29  O   UNL     1       2.471   2.223  20.006  0.00  0.00    +0.000 OA
BRANCH  27  30
ATOM     30  N   UNL     1       4.953   2.043  19.990  0.00  0.00    +0.000 NA
ATOM     31  H   UNL     1       5.674   2.701  19.693  0.00  0.00    +0.000 HD
ATOM     32  H   UNL     1       5.254   1.070  19.963  0.00  0.00    +0.000 HD
ENDBRANCH  27  30
ENDBRANCH  21  27
ENDBRANCH   1  25
TORSDOF 4
ENDMDL
