MODEL 1
REMARK VINA RESULT:      -9.0      0.000      0.000
REMARK  Name = 
REMARK  7 active torsions:
REMARK  status: ('A' for Active; 'I' for Inactive)
REMARK    1  A    between atoms: C_2  and  C_5
REMARK    2  A    between atoms: C_9  and  C_10
REMARK    3  A    between atoms: C_10  and  C_11
REMARK    4  A    between atoms: C_11  and  N_12
REMARK    5  A    between atoms: N_12  and  C_13
REMARK    6  A    between atoms: C_13  and  C_14
REMARK    7  A    between atoms: C_13  and  C_20
REMARK                            x       y       z     vdW  Elec       q    Type
REMARK                         _______ _______ _______ _____ _____    ______ ____
ROOT
ATOM      1  C   UNL     1       6.375   4.974  16.184  0.00  0.00    +0.000 C 
ATOM      2  C   UNL     1       6.246   6.519  16.408  0.00  0.00    +0.000 C 
ATOM      3  C   UNL     1       6.404   6.970  17.856  0.00  0.00    +0.000 C 
ATOM      4  O   UNL     1       7.612   6.476  18.412  0.00  0.00    +0.000 OA
ATOM      5  C   UNL     1       7.631   5.053  18.438  0.00  0.00    +0.000 C 
ATOM      6  C   UNL     1       7.606   4.501  17.019  0.00  0.00    +0.000 C 
ENDROOT
BRANCH   1  11
ATOM      7  C   UNL     1       5.792   3.820  12.513  0.00  0.00    +0.000 A 
ATOM      8  C   UNL     1       6.907   4.371  11.876  0.00  0.00    +0.000 A 
ATOM      9  C   UNL     1       7.881   5.028  12.621  0.00  0.00    +0.000 A 
ATOM     10  C   UNL     1       7.732   5.174  14.002  0.00  0.00    +0.000 A 
ATOM     11  C   UNL     1       6.604   4.676  14.675  0.00  0.00    +0.000 A 
ATOM     12  C   UNL     1       5.671   3.949  13.910  0.00  0.00    +0.000 A 
BRANCH   7  14
ATOM     13  F   UNL     1       5.053   1.893  11.279  0.00  0.00    +0.000 F 
ATOM     14  C   UNL     1       4.703   3.129  11.731  0.00  0.00    +0.000 C 
ATOM     15  F   UNL     1       4.331   3.835  10.626  0.00  0.00    +0.000 F 
ATOM     16  F   UNL     1       3.565   2.953  12.459  0.00  0.00    +0.000 F 
ENDBRANCH   7  14
ENDBRANCH   1  11
BRANCH   1  17
ATOM     17  C   UNL     1       5.045   4.287  16.662  0.00  0.00    +0.000 C 
BRANCH  17  18
ATOM     18  N   UNL     1       3.908   5.197  16.907  0.00  0.00    +0.000 NA
ATOM     19  H   UNL     1       3.134   4.928  16.301  0.00  0.00    +0.000 HD
BRANCH  18  20
ATOM     20  C   UNL     1       3.399   5.117  18.296  0.00  0.00    +0.000 C 
BRANCH  20  21
ATOM     21  C   UNL     1       2.711   6.419  18.711  0.00  0.00    +0.000 A 
ATOM     22  C   UNL     1       2.212   6.601  20.015  0.00  0.00    +0.000 A 
ATOM     23  C   UNL     1       1.630   7.813  20.398  0.00  0.00    +0.000 A 
ATOM     24  C   UNL     1       1.542   8.865  19.491  0.00  0.00    +0.000 A 
ATOM     25  C   UNL     1       2.032   8.708  18.195  0.00  0.00    +0.000 A 
ATOM     26  C   UNL     1       2.609   7.496  17.808  0.00  0.00    +0.000 A 
ENDBRANCH  20  21
BRANCH  20  27
ATOM     27  C   UNL     1       2.473   3.948  18.497  0.00  0.00    +0.000 A 
ATOM     28  N   UNL     1       1.337   3.690  17.874  0.00  0.00    +0.000 NA
ATOM     29  N   UNL     1       0.872   2.477  18.322  0.00  0.00    +0.000 NA
ATOM     30  C   UNL     1       1.714   2.035  19.225  0.00  0.00    +0.000 A 
ATOM     31  N   UNL     1       2.723   2.933  19.383  0.00  0.00    +0.000 N 
ATOM     32  H   UNL     1       3.505   2.863  20.018  0.00  0.00    +0.000 HD
ENDBRANCH  20  27
ENDBRANCH  18  20
ENDBRANCH  17  18
ENDBRANCH   1  17
TORSDOF 7
ENDMDL
MODEL 2
REMARK VINA RESULT:      -8.8      4.333      7.363
REMARK  Name = 
REMARK  7 active torsions:
REMARK  status: ('A' for Active; 'I' for Inactive)
REMARK    1  A    between atoms: C_2  and  C_5
REMARK    2  A    between atoms: C_9  and  C_10
REMARK    3  A    between atoms: C_10  and  C_11
REMARK    4  A    between atoms: C_11  and  N_12
REMARK    5  A    between atoms: N_12  and  C_13
REMARK    6  A    between atoms: C_13  and  C_14
REMARK    7  A    between atoms: C_13  and  C_20
REMARK                            x       y       z     vdW  Elec       q    Type
REMARK                         _______ _______ _______ _____ _____    ______ ____
ROOT
ATOM      1  C   UNL     1       2.904   4.694  18.622  0.00  0.00    +0.000 C 
ATOM      2  C   UNL     1       1.697   3.786  19.040  0.00  0.00    +0.000 C 
ATOM      3  C   UNL     1       2.067   2.348  19.383  0.00  0.00    +0.000 C 
ATOM      4  O   UNL     1       3.095   2.308  20.361  0.00  0.00    +0.000 OA
ATOM      5  C   UNL     1       4.289   2.922  19.888  0.00  0.00    +0.000 C 
ATOM      6  C   UNL     1       4.054   4.405  19.636  0.00  0.00    +0.000 C 
ENDROOT
BRANCH   1  11
ATOM      7  C   UNL     1       1.553   8.098  19.938  0.00  0.00    +0.000 A 
ATOM      8  C   UNL     1       1.974   8.966  18.928  0.00  0.00    +0.000 A 
ATOM      9  C   UNL     1       2.605   8.462  17.795  0.00  0.00    +0.000 A 
ATOM     10  C   UNL     1       2.854   7.092  17.679  0.00  0.00    +0.000 A 
ATOM     11  C   UNL     1       2.489   6.191  18.693  0.00  0.00    +0.000 A 
ATOM     12  C   UNL     1       1.784   6.716  19.793  0.00  0.00    +0.000 A 
BRANCH   7  14
ATOM     13  F   UNL     1      -0.159   7.858  21.612  0.00  0.00    +0.000 F 
ATOM     14  C   UNL     1       0.893   8.615  21.192  0.00  0.00    +0.000 C 
ATOM     15  F   UNL     1       0.401   9.878  21.036  0.00  0.00    +0.000 F 
ATOM     16  F   UNL     1       1.752   8.681  22.248  0.00  0.00    +0.000 F 
ENDBRANCH   7  14
ENDBRANCH   1  11
BRANCH   1  17
ATOM     17  C   UNL     1       3.316   4.330  17.150  0.00  0.00    +0.000 C 
BRANCH  17  18
ATOM     18  N   UNL     1       4.762   4.135  16.921  0.00  0.00    +0.000 NA
ATOM     19  H   UNL     1       4.894   3.321  16.321  0.00  0.00    +0.000 HD
BRANCH  18  20
ATOM     20  C   UNL     1       5.390   5.278  16.217  0.00  0.00    +0.000 C 
BRANCH  20  21
ATOM     21  C   UNL     1       6.445   5.957  17.093  0.00  0.00    +0.000 A 
ATOM     22  C   UNL     1       6.774   7.315  16.923  0.00  0.00    +0.000 A 
ATOM     23  C   UNL     1       7.703   7.939  17.761  0.00  0.00    +0.000 A 
ATOM     24  C   UNL     1       8.312   7.222  18.786  0.00  0.00    +0.000 A 
ATOM     25  C   UNL     1       7.999   5.877  18.974  0.00  0.00    +0.000 A 
ATOM     26  C   UNL     1       7.075   5.249  18.135  0.00  0.00    +0.000 A 
ENDBRANCH  20  21
BRANCH  20  27
ATOM     27  C   UNL     1       5.986   4.876  14.895  0.00  0.00    +0.000 A 
ATOM     28  N   UNL     1       7.117   5.287  14.352  0.00  0.00    +0.000 NA
ATOM     29  N   UNL     1       7.300   4.598  13.177  0.00  0.00    +0.000 NA
ATOM     30  C   UNL     1       6.269   3.804  13.015  0.00  0.00    +0.000 A 
ATOM     31  N   UNL     1       5.409   3.958  14.057  0.00  0.00    +0.000 N 
ATOM     32  H   UNL     1       4.527   3.486  14.192  0.00  0.00    +0.000 HD
ENDBRANCH  20  27
ENDBRANCH  18  20
ENDBRANCH  17  18
ENDBRANCH   1  17
TORSDOF 7
ENDMDL
MODEL 3
REMARK VINA RESULT:      -8.8      4.343      7.815
REMARK  Name = 
REMARK  7 active torsions:
REMARK  status: ('A' for Active; 'I' for Inactive)
REMARK    1  A    between atoms: C_2  and  C_5
REMARK    2  A    between atoms: C_9  and  C_10
REMARK    3  A    between atoms: C_10  and  C_11
REMARK    4  A    between atoms: C_11  and  N_12
REMARK    5  A    between atoms: N_12  and  C_13
REMARK    6  A    between atoms: C_13  and  C_14
REMARK    7  A    between atoms: C_13  and  C_20
REMARK                            x       y       z     vdW  Elec       q    Type
REMARK                         _______ _______ _______ _____ _____    ______ ____
ROOT
ATOM      1  C   UNL     1       3.129   4.780  18.716  0.00  0.00    +0.000 C 
ATOM      2  C   UNL     1       2.303   3.937  17.685  0.00  0.00    +0.000 C 
ATOM      3  C   UNL     1       2.427   2.427  17.847  0.00  0.00    +0.000 C 
ATOM      4  O   UNL     1       2.130   2.033  19.178  0.00  0.00    +0.000 OA
ATOM      5  C   UNL     1       3.042   2.607  20.107  0.00  0.00    +0.000 C 
ATOM      6  C   UNL     1       2.903   4.123  20.114  0.00  0.00    +0.000 C 
ENDROOT
BRANCH   1  11
ATOM      7  C   UNL     1       1.583   8.150  19.895  0.00  0.00    +0.000 A 
ATOM      8  C   UNL     1       1.939   8.995  18.842  0.00  0.00    +0.000 A 
ATOM      9  C   UNL     1       2.590   8.480  17.725  0.00  0.00    +0.000 A 
ATOM     10  C   UNL     1       2.922   7.124  17.667  0.00  0.00    +0.000 A 
ATOM     11  C   UNL     1       2.623   6.250  18.725  0.00  0.00    +0.000 A 
ATOM     12  C   UNL     1       1.898   6.780  19.809  0.00  0.00    +0.000 A 
BRANCH   7  14
ATOM     13  F   UNL     1       0.321   9.900  20.958  0.00  0.00    +0.000 F 
ATOM     14  C   UNL     1       0.906   8.683  21.133  0.00  0.00    +0.000 C 
ATOM     15  F   UNL     1       1.775   8.837  22.174  0.00  0.00    +0.000 F 
ATOM     16  F   UNL     1      -0.076   7.857  21.591  0.00  0.00    +0.000 F 
ENDBRANCH   7  14
ENDBRANCH   1  11
BRANCH   1  17
ATOM     17  C   UNL     1       4.642   4.745  18.291  0.00  0.00    +0.000 C 
BRANCH  17  18
ATOM     18  N   UNL     1       4.901   4.399  16.879  0.00  0.00    +0.000 NA
ATOM     19  H   UNL     1       4.351   5.017  16.283  0.00  0.00    +0.000 HD
BRANCH  18  20
ATOM     20  C   UNL     1       6.317   4.597  16.491  0.00  0.00    +0.000 C 
BRANCH  20  21
ATOM     21  C   UNL     1       6.508   4.428  14.982  0.00  0.00    +0.000 A 
ATOM     22  C   UNL     1       5.597   3.685  14.207  0.00  0.00    +0.000 A 
ATOM     23  C   UNL     1       5.754   3.578  12.822  0.00  0.00    +0.000 A 
ATOM     24  C   UNL     1       6.816   4.216  12.187  0.00  0.00    +0.000 A 
ATOM     25  C   UNL     1       7.728   4.959  12.934  0.00  0.00    +0.000 A 
ATOM     26  C   UNL     1       7.577   5.063  14.320  0.00  0.00    +0.000 A 
ENDBRANCH  20  21
BRANCH  20  27
ATOM     27  C   UNL     1       6.851   5.930  16.941  0.00  0.00    +0.000 A 
ATOM     28  N   UNL     1       6.478   7.133  16.546  0.00  0.00    +0.000 NA
ATOM     29  N   UNL     1       7.181   8.059  17.279  0.00  0.00    +0.000 NA
ATOM     30  C   UNL     1       7.984   7.405  18.083  0.00  0.00    +0.000 A 
ATOM     31  N   UNL     1       7.828   6.068  17.892  0.00  0.00    +0.000 N 
ATOM     32  H   UNL     1       8.323   5.324  18.362  0.00  0.00    +0.000 HD
ENDBRANCH  20  27
ENDBRANCH  18  20
ENDBRANCH  17  18
ENDBRANCH   1  17
TORSDOF 7
ENDMDL
MODEL 4
REMARK VINA RESULT:      -8.8      4.364      7.813
REMARK  Name = 
REMARK  7 active torsions:
REMARK  status: ('A' for Active; 'I' for Inactive)
REMARK    1  A    between atoms: C_2  and  C_5
REMARK    2  A    between atoms: C_9  and  C_10
REMARK    3  A    between atoms: C_10  and  C_11
REMARK    4  A    between atoms: C_11  and  N_12
REMARK    5  A    between atoms: N_12  and  C_13
REMARK    6  A    between atoms: C_13  and  C_14
REMARK    7  A    between atoms: C_13  and  C_20
REMARK                            x       y       z     vdW  Elec       q    Type
REMARK                         _______ _______ _______ _____ _____    ______ ____
ROOT
ATOM      1  C   UNL     1       3.163   4.778  18.695  0.00  0.00    +0.000 C 
ATOM      2  C   UNL     1       2.339   3.911  17.683  0.00  0.00    +0.000 C 
ATOM      3  C   UNL     1       2.482   2.405  17.866  0.00  0.00    +0.000 C 
ATOM      4  O   UNL     1       2.198   2.027  19.205  0.00  0.00    +0.000 OA
ATOM      5  C   UNL     1       3.110   2.625  20.119  0.00  0.00    +0.000 C 
ATOM      6  C   UNL     1       2.954   4.139  20.104  0.00  0.00    +0.000 C 
ENDROOT
BRANCH   1  11
ATOM      7  C   UNL     1       1.657   8.173  19.855  0.00  0.00    +0.000 A 
ATOM      8  C   UNL     1       1.932   8.983  18.751  0.00  0.00    +0.000 A 
ATOM      9  C   UNL     1       2.514   8.434  17.612  0.00  0.00    +0.000 A 
ATOM     10  C   UNL     1       2.858   7.081  17.580  0.00  0.00    +0.000 A 
ATOM     11  C   UNL     1       2.641   6.242  18.686  0.00  0.00    +0.000 A 
ATOM     12  C   UNL     1       1.982   6.804  19.796  0.00  0.00    +0.000 A 
BRANCH   7  14
ATOM     13  F   UNL     1      -0.284   8.525  21.232  0.00  0.00    +0.000 F 
ATOM     14  C   UNL     1       1.056   8.743  21.116  0.00  0.00    +0.000 C 
ATOM     15  F   UNL     1       1.219  10.094  21.202  0.00  0.00    +0.000 F 
ATOM     16  F   UNL     1       1.619   8.229  22.245  0.00  0.00    +0.000 F 
ENDBRANCH   7  14
ENDBRANCH   1  11
BRANCH   1  17
ATOM     17  C   UNL     1       4.673   4.753  18.260  0.00  0.00    +0.000 C 
BRANCH  17  18
ATOM     18  N   UNL     1       4.925   4.407  16.847  0.00  0.00    +0.000 NA
ATOM     19  H   UNL     1       4.355   5.009  16.253  0.00  0.00    +0.000 HD
BRANCH  18  20
ATOM     20  C   UNL     1       6.332   4.634  16.442  0.00  0.00    +0.000 C 
BRANCH  20  21
ATOM     21  C   UNL     1       6.502   4.508  14.927  0.00  0.00    +0.000 A 
ATOM     22  C   UNL     1       7.518   5.201  14.243  0.00  0.00    +0.000 A 
ATOM     23  C   UNL     1       7.695   5.041  12.866  0.00  0.00    +0.000 A 
ATOM     24  C   UNL     1       6.869   4.179  12.150  0.00  0.00    +0.000 A 
ATOM     25  C   UNL     1       5.858   3.480  12.807  0.00  0.00    +0.000 A 
ATOM     26  C   UNL     1       5.675   3.643  14.183  0.00  0.00    +0.000 A 
ENDBRANCH  20  21
BRANCH  20  27
ATOM     27  C   UNL     1       6.855   5.962  16.920  0.00  0.00    +0.000 A 
ATOM     28  N   UNL     1       6.469   7.170  16.552  0.00  0.00    +0.000 NA
ATOM     29  N   UNL     1       7.166   8.086  17.304  0.00  0.00    +0.000 NA
ATOM     30  C   UNL     1       7.978   7.422  18.090  0.00  0.00    +0.000 A 
ATOM     31  N   UNL     1       7.833   6.088  17.871  0.00  0.00    +0.000 N 
ATOM     32  H   UNL     1       8.337   5.339  18.324  0.00  0.00    +0.000 HD
ENDBRANCH  20  27
ENDBRANCH  18  20
ENDBRANCH  17  18
ENDBRANCH   1  17
TORSDOF 7
ENDMDL
MODEL 5
REMARK VINA RESULT:      -8.7      0.391      1.182
REMARK  Name = 
REMARK  7 active torsions:
REMARK  status: ('A' for Active; 'I' for Inactive)
REMARK    1  A    between atoms: C_2  and  C_5
REMARK    2  A    between atoms: C_9  and  C_10
REMARK    3  A    between atoms: C_10  and  C_11
REMARK    4  A    between atoms: C_11  and  N_12
REMARK    5  A    between atoms: N_12  and  C_13
REMARK    6  A    between atoms: C_13  and  C_14
REMARK    7  A    between atoms: C_13  and  C_20
REMARK                            x       y       z     vdW  Elec       q    Type
REMARK                         _______ _______ _______ _____ _____    ______ ____
ROOT
ATOM      1  C   UNL     1       6.408   5.174  16.121  0.00  0.00    +0.000 C 
ATOM      2  C   UNL     1       6.545   6.723  16.310  0.00  0.00    +0.000 C 
ATOM      3  C   UNL     1       6.722   7.179  17.753  0.00  0.00    +0.000 C 
ATOM      4  O   UNL     1       7.801   6.495  18.372  0.00  0.00    +0.000 OA
ATOM      5  C   UNL     1       7.568   5.093  18.426  0.00  0.00    +0.000 C 
ATOM      6  C   UNL     1       7.502   4.516  17.018  0.00  0.00    +0.000 C 
ENDROOT
BRANCH   1  11
ATOM      7  C   UNL     1       5.824   3.863  12.504  0.00  0.00    +0.000 A 
ATOM      8  C   UNL     1       6.956   4.357  11.850  0.00  0.00    +0.000 A 
ATOM      9  C   UNL     1       7.940   5.025  12.572  0.00  0.00    +0.000 A 
ATOM     10  C   UNL     1       7.785   5.239  13.943  0.00  0.00    +0.000 A 
ATOM     11  C   UNL     1       6.640   4.800  14.629  0.00  0.00    +0.000 A 
ATOM     12  C   UNL     1       5.696   4.060  13.892  0.00  0.00    +0.000 A 
BRANCH   7  14
ATOM     13  F   UNL     1       3.598   2.953  12.482  0.00  0.00    +0.000 F 
ATOM     14  C   UNL     1       4.725   3.162  11.746  0.00  0.00    +0.000 C 
ATOM     15  F   UNL     1       5.107   1.932  11.298  0.00  0.00    +0.000 F 
ATOM     16  F   UNL     1       4.327   3.851  10.640  0.00  0.00    +0.000 F 
ENDBRANCH   7  14
ENDBRANCH   1  11
BRANCH   1  17
ATOM     17  C   UNL     1       4.960   4.744  16.554  0.00  0.00    +0.000 C 
BRANCH  17  18
ATOM     18  N   UNL     1       4.046   5.847  16.911  0.00  0.00    +0.000 NA
ATOM     19  H   UNL     1       3.265   5.853  16.255  0.00  0.00    +0.000 HD
BRANCH  18  20
ATOM     20  C   UNL     1       3.456   5.689  18.260  0.00  0.00    +0.000 C 
BRANCH  20  21
ATOM     21  C   UNL     1       2.707   6.952  18.690  0.00  0.00    +0.000 A 
ATOM     22  C   UNL     1       2.461   8.002  17.786  0.00  0.00    +0.000 A 
ATOM     23  C   UNL     1       1.733   9.131  18.176  0.00  0.00    +0.000 A 
ATOM     24  C   UNL     1       1.232   9.226  19.471  0.00  0.00    +0.000 A 
ATOM     25  C   UNL     1       1.461   8.197  20.382  0.00  0.00    +0.000 A 
ATOM     26  C   UNL     1       2.193   7.071  19.997  0.00  0.00    +0.000 A 
ENDBRANCH  20  21
BRANCH  20  27
ATOM     27  C   UNL     1       2.553   4.488  18.351  0.00  0.00    +0.000 A 
ATOM     28  N   UNL     1       1.481   4.217  17.629  0.00  0.00    +0.000 NA
ATOM     29  N   UNL     1       1.018   2.978  18.003  0.00  0.00    +0.000 NA
ATOM     30  C   UNL     1       1.797   2.533  18.959  0.00  0.00    +0.000 A 
ATOM     31  N   UNL     1       2.761   3.454  19.226  0.00  0.00    +0.000 N 
ATOM     32  H   UNL     1       3.490   3.387  19.921  0.00  0.00    +0.000 HD
ENDBRANCH  20  27
ENDBRANCH  18  20
ENDBRANCH  17  18
ENDBRANCH   1  17
TORSDOF 7
ENDMDL
MODEL 6
REMARK VINA RESULT:      -8.7      4.360      7.322
REMARK  Name = 
REMARK  7 active torsions:
REMARK  status: ('A' for Active; 'I' for Inactive)
REMARK    1  A    between atoms: C_2  and  C_5
REMARK    2  A    between atoms: C_9  and  C_10
REMARK    3  A    between atoms: C_10  and  C_11
REMARK    4  A    between atoms: C_11  and  N_12
REMARK    5  A    between atoms: N_12  and  C_13
REMARK    6  A    between atoms: C_13  and  C_14
REMARK    7  A    between atoms: C_13  and  C_20
REMARK                            x       y       z     vdW  Elec       q    Type
REMARK                         _______ _______ _______ _____ _____    ______ ____
ROOT
ATOM      1  C   UNL     1       2.885   4.652  18.531  0.00  0.00    +0.000 C 
ATOM      2  C   UNL     1       1.624   3.777  18.846  0.00  0.00    +0.000 C 
ATOM      3  C   UNL     1       1.923   2.320  19.179  0.00  0.00    +0.000 C 
ATOM      4  O   UNL     1       2.879   2.225  20.224  0.00  0.00    +0.000 OA
ATOM      5  C   UNL     1       4.122   2.808  19.848  0.00  0.00    +0.000 C 
ATOM      6  C   UNL     1       3.953   4.303  19.614  0.00  0.00    +0.000 C 
ENDROOT
BRANCH   1  11
ATOM      7  C   UNL     1       1.648   8.092  19.866  0.00  0.00    +0.000 A 
ATOM      8  C   UNL     1       2.084   8.949  18.852  0.00  0.00    +0.000 A 
ATOM      9  C   UNL     1       2.688   8.428  17.712  0.00  0.00    +0.000 A 
ATOM     10  C   UNL     1       2.895   7.052  17.591  0.00  0.00    +0.000 A 
ATOM     11  C   UNL     1       2.515   6.160  18.608  0.00  0.00    +0.000 A 
ATOM     12  C   UNL     1       1.837   6.704  19.716  0.00  0.00    +0.000 A 
BRANCH   7  14
ATOM     13  F   UNL     1       0.286   9.759  20.938  0.00  0.00    +0.000 F 
ATOM     14  C   UNL     1       1.018   8.626  21.127  0.00  0.00    +0.000 C 
ATOM     15  F   UNL     1       1.945   8.941  22.077  0.00  0.00    +0.000 F 
ATOM     16  F   UNL     1       0.177   7.730  21.715  0.00  0.00    +0.000 F 
ENDBRANCH   7  14
ENDBRANCH   1  11
BRANCH   1  17
ATOM     17  C   UNL     1       3.385   4.304  17.083  0.00  0.00    +0.000 C 
BRANCH  17  18
ATOM     18  N   UNL     1       4.845   4.137  16.934  0.00  0.00    +0.000 NA
ATOM     19  H   UNL     1       5.025   3.320  16.352  0.00  0.00    +0.000 HD
BRANCH  18  20
ATOM     20  C   UNL     1       5.487   5.285  16.252  0.00  0.00    +0.000 C 
BRANCH  20  21
ATOM     21  C   UNL     1       6.469   6.004  17.180  0.00  0.00    +0.000 A 
ATOM     22  C   UNL     1       7.110   5.328  18.234  0.00  0.00    +0.000 A 
ATOM     23  C   UNL     1       8.042   5.981  19.046  0.00  0.00    +0.000 A 
ATOM     24  C   UNL     1       8.357   7.317  18.813  0.00  0.00    +0.000 A 
ATOM     25  C   UNL     1       7.736   8.006  17.772  0.00  0.00    +0.000 A 
ATOM     26  C   UNL     1       6.799   7.356  16.963  0.00  0.00    +0.000 A 
ENDBRANCH  20  21
BRANCH  20  27
ATOM     27  C   UNL     1       6.174   4.879  14.976  0.00  0.00    +0.000 A 
ATOM     28  N   UNL     1       5.752   4.028  14.058  0.00  0.00    +0.000 NA
ATOM     29  N   UNL     1       6.663   4.026  13.029  0.00  0.00    +0.000 NA
ATOM     30  C   UNL     1       7.630   4.851  13.350  0.00  0.00    +0.000 A 
ATOM     31  N   UNL     1       7.377   5.394  14.571  0.00  0.00    +0.000 N 
ATOM     32  H   UNL     1       7.954   6.051  15.076  0.00  0.00    +0.000 HD
ENDBRANCH  20  27
ENDBRANCH  18  20
ENDBRANCH  17  18
ENDBRANCH   1  17
TORSDOF 7
ENDMDL
MODEL 7
REMARK VINA RESULT:      -8.6      4.560      8.045
REMARK  Name = 
REMARK  7 active torsions:
REMARK  status: ('A' for Active; 'I' for Inactive)
REMARK    1  A    between atoms: C_2  and  C_5
REMARK    2  A    between atoms: C_9  and  C_10
REMARK    3  A    between atoms: C_10  and  C_11
REMARK    4  A    between atoms: C_11  and  N_12
REMARK    5  A    between atoms: N_12  and  C_13
REMARK    6  A    between atoms: C_13  and  C_14
REMARK    7  A    between atoms: C_13  and  C_20
REMARK                            x       y       z     vdW  Elec       q    Type
REMARK                         _______ _______ _______ _____ _____    ______ ____
ROOT
ATOM      1  C   UNL     1       2.777   5.087  19.172  0.00  0.00    +0.000 C 
ATOM      2  C   UNL     1       1.988   4.211  18.140  0.00  0.00    +0.000 C 
ATOM      3  C   UNL     1       2.138   2.706  18.332  0.00  0.00    +0.000 C 
ATOM      4  O   UNL     1       1.821   2.331  19.663  0.00  0.00    +0.000 OA
ATOM      5  C   UNL     1       2.702   2.938  20.600  0.00  0.00    +0.000 C 
ATOM      6  C   UNL     1       2.535   4.452  20.576  0.00  0.00    +0.000 C 
ENDROOT
BRANCH   1  11
ATOM      7  C   UNL     1       1.370   8.532  20.310  0.00  0.00    +0.000 A 
ATOM      8  C   UNL     1       1.521   9.285  19.143  0.00  0.00    +0.000 A 
ATOM      9  C   UNL     1       1.984   8.681  17.979  0.00  0.00    +0.000 A 
ATOM     10  C   UNL     1       2.335   7.329  17.979  0.00  0.00    +0.000 A 
ATOM     11  C   UNL     1       2.243   6.547  19.143  0.00  0.00    +0.000 A 
ATOM     12  C   UNL     1       1.700   7.163  20.287  0.00  0.00    +0.000 A 
BRANCH   7  14
ATOM     13  F   UNL     1       1.797   9.062  22.617  0.00  0.00    +0.000 F 
ATOM     14  C   UNL     1       0.901   9.164  21.596  0.00  0.00    +0.000 C 
ATOM     15  F   UNL     1      -0.252   8.602  22.059  0.00  0.00    +0.000 F 
ATOM     16  F   UNL     1       0.636  10.494  21.462  0.00  0.00    +0.000 F 
ENDBRANCH   7  14
ENDBRANCH   1  11
BRANCH   1  17
ATOM     17  C   UNL     1       4.299   5.074  18.778  0.00  0.00    +0.000 C 
BRANCH  17  18
ATOM     18  N   UNL     1       4.584   4.992  17.332  0.00  0.00    +0.000 NA
ATOM     19  H   UNL     1       4.278   5.856  16.887  0.00  0.00    +0.000 HD
BRANCH  18  20
ATOM     20  C   UNL     1       6.030   4.862  17.039  0.00  0.00    +0.000 C 
BRANCH  20  21
ATOM     21  C   UNL     1       6.275   4.606  15.550  0.00  0.00    +0.000 A 
ATOM     22  C   UNL     1       5.337   3.914  14.762  0.00  0.00    +0.000 A 
ATOM     23  C   UNL     1       5.547   3.729  13.392  0.00  0.00    +0.000 A 
ATOM     24  C   UNL     1       6.691   4.238  12.785  0.00  0.00    +0.000 A 
ATOM     25  C   UNL     1       7.632   4.930  13.546  0.00  0.00    +0.000 A 
ATOM     26  C   UNL     1       7.428   5.111  14.917  0.00  0.00    +0.000 A 
ENDBRANCH  20  21
BRANCH  20  27
ATOM     27  C   UNL     1       6.816   6.060  17.501  0.00  0.00    +0.000 A 
ATOM     28  N   UNL     1       7.756   6.111  18.427  0.00  0.00    +0.000 NA
ATOM     29  N   UNL     1       8.251   7.393  18.461  0.00  0.00    +0.000 NA
ATOM     30  C   UNL     1       7.587   8.100  17.579  0.00  0.00    +0.000 A 
ATOM     31  N   UNL     1       6.663   7.313  16.967  0.00  0.00    +0.000 N 
ATOM     32  H   UNL     1       6.002   7.590  16.255  0.00  0.00    +0.000 HD
ENDBRANCH  20  27
ENDBRANCH  18  20
ENDBRANCH  17  18
ENDBRANCH   1  17
TORSDOF 7
ENDMDL
MODEL 8
REMARK VINA RESULT:      -8.5      3.562      7.164
REMARK  Name = 
REMARK  7 active torsions:
REMARK  status: ('A' for Active; 'I' for Inactive)
REMARK    1  A    between atoms: C_2  and  C_5
REMARK    2  A    between atoms: C_9  and  C_10
REMARK    3  A    between atoms: C_10  and  C_11
REMARK    4  A    between atoms: C_11  and  N_12
REMARK    5  A    between atoms: N_12  and  C_13
REMARK    6  A    between atoms: C_13  and  C_14
REMARK    7  A    between atoms: C_13  and  C_20
REMARK                            x       y       z     vdW  Elec       q    Type
REMARK                         _______ _______ _______ _____ _____    ______ ____
ROOT
ATOM      1  C   UNL     1       2.705   4.621  18.663  0.00  0.00    +0.000 C 
ATOM      2  C   UNL     1       1.452   3.680  18.616  0.00  0.00    +0.000 C 
ATOM      3  C   UNL     1       1.768   2.205  18.400  0.00  0.00    +0.000 C 
ATOM      4  O   UNL     1       2.713   1.744  19.353  0.00  0.00    +0.000 OA
ATOM      5  C   UNL     1       3.952   2.434  19.235  0.00  0.00    +0.000 C 
ATOM      6  C   UNL     1       3.765   3.910  19.561  0.00  0.00    +0.000 C 
ENDROOT
BRANCH   1  11
ATOM      7  C   UNL     1       1.731   8.371  19.016  0.00  0.00    +0.000 A 
ATOM      8  C   UNL     1       1.343   8.426  20.357  0.00  0.00    +0.000 A 
ATOM      9  C   UNL     1       1.473   7.301  21.165  0.00  0.00    +0.000 A 
ATOM     10  C   UNL     1       1.956   6.103  20.633  0.00  0.00    +0.000 A 
ATOM     11  C   UNL     1       2.313   5.994  19.279  0.00  0.00    +0.000 A 
ATOM     12  C   UNL     1       2.244   7.165  18.501  0.00  0.00    +0.000 A 
BRANCH   7  14
ATOM     13  F   UNL     1       1.841  10.755  18.709  0.00  0.00    +0.000 F 
ATOM     14  C   UNL     1       1.574   9.563  18.105  0.00  0.00    +0.000 C 
ATOM     15  F   UNL     1       0.307   9.675  17.612  0.00  0.00    +0.000 F 
ATOM     16  F   UNL     1       2.391   9.504  17.017  0.00  0.00    +0.000 F 
ENDBRANCH   7  14
ENDBRANCH   1  11
BRANCH   1  17
ATOM     17  C   UNL     1       3.227   4.830  17.195  0.00  0.00    +0.000 C 
BRANCH  17  18
ATOM     18  N   UNL     1       4.619   4.405  16.946  0.00  0.00    +0.000 NA
ATOM     19  H   UNL     1       4.610   3.592  16.331  0.00  0.00    +0.000 HD
BRANCH  18  20
ATOM     20  C   UNL     1       5.420   5.442  16.254  0.00  0.00    +0.000 C 
BRANCH  20  21
ATOM     21  C   UNL     1       6.480   6.037  17.183  0.00  0.00    +0.000 A 
ATOM     22  C   UNL     1       6.937   7.358  17.022  0.00  0.00    +0.000 A 
ATOM     23  C   UNL     1       7.870   7.909  17.906  0.00  0.00    +0.000 A 
ATOM     24  C   UNL     1       8.355   7.153  18.970  0.00  0.00    +0.000 A 
ATOM     25  C   UNL     1       7.914   5.843  19.150  0.00  0.00    +0.000 A 
ATOM     26  C   UNL     1       6.987   5.289  18.264  0.00  0.00    +0.000 A 
ENDBRANCH  20  21
BRANCH  20  27
ATOM     27  C   UNL     1       6.059   4.923  14.994  0.00  0.00    +0.000 A 
ATOM     28  N   UNL     1       5.596   4.007  14.162  0.00  0.00    +0.000 NA
ATOM     29  N   UNL     1       6.472   3.907  13.108  0.00  0.00    +0.000 NA
ATOM     30  C   UNL     1       7.460   4.740  13.331  0.00  0.00    +0.000 A 
ATOM     31  N   UNL     1       7.255   5.384  14.511  0.00  0.00    +0.000 N 
ATOM     32  H   UNL     1       7.857   6.071  14.942  0.00  0.00    +0.000 HD
ENDBRANCH  20  27
ENDBRANCH  18  20
ENDBRANCH  17  18
ENDBRANCH   1  17
TORSDOF 7
ENDMDL
MODEL 9
REMARK VINA RESULT:      -8.5      3.604      7.151
REMARK  Name = 
REMARK  7 active torsions:
REMARK  status: ('A' for Active; 'I' for Inactive)
REMARK    1  A    between atoms: C_2  and  C_5
REMARK    2  A    between atoms: C_9  and  C_10
REMARK    3  A    between atoms: C_10  and  C_11
REMARK    4  A    between atoms: C_11  and  N_12
REMARK    5  A    between atoms: N_12  and  C_13
REMARK    6  A    between atoms: C_13  and  C_14
REMARK    7  A    between atoms: C_13  and  C_20
REMARK                            x       y       z     vdW  Elec       q    Type
REMARK                         _______ _______ _______ _____ _____    ______ ____
ROOT
ATOM      1  C   UNL     1       2.620   4.706  18.762  0.00  0.00    +0.000 C 
ATOM      2  C   UNL     1       1.354   3.785  18.698  0.00  0.00    +0.000 C 
ATOM      3  C   UNL     1       1.650   2.305  18.483  0.00  0.00    +0.000 C 
ATOM      4  O   UNL     1       2.575   1.828  19.447  0.00  0.00    +0.000 OA
ATOM      5  C   UNL     1       3.826   2.499  19.346  0.00  0.00    +0.000 C 
ATOM      6  C   UNL     1       3.658   3.977  19.672  0.00  0.00    +0.000 C 
ENDROOT
BRANCH   1  11
ATOM      7  C   UNL     1       1.705   8.472  19.111  0.00  0.00    +0.000 A 
ATOM      8  C   UNL     1       1.296   8.529  20.446  0.00  0.00    +0.000 A 
ATOM      9  C   UNL     1       1.393   7.400  21.253  0.00  0.00    +0.000 A 
ATOM     10  C   UNL     1       1.865   6.195  20.725  0.00  0.00    +0.000 A 
ATOM     11  C   UNL     1       2.241   6.083  19.376  0.00  0.00    +0.000 A 
ATOM     12  C   UNL     1       2.206   7.258  18.601  0.00  0.00    +0.000 A 
BRANCH   7  14
ATOM     13  F   UNL     1       2.587   9.767  17.286  0.00  0.00    +0.000 F 
ATOM     14  C   UNL     1       1.583   9.669  18.201  0.00  0.00    +0.000 C 
ATOM     15  F   UNL     1       1.594  10.846  18.890  0.00  0.00    +0.000 F 
ATOM     16  F   UNL     1       0.423   9.669  17.487  0.00  0.00    +0.000 F 
ENDBRANCH   7  14
ENDBRANCH   1  11
BRANCH   1  17
ATOM     17  C   UNL     1       3.164   4.910  17.302  0.00  0.00    +0.000 C 
BRANCH  17  18
ATOM     18  N   UNL     1       4.575   4.530  17.087  0.00  0.00    +0.000 NA
ATOM     19  H   UNL     1       4.606   3.699  16.496  0.00  0.00    +0.000 HD
BRANCH  18  20
ATOM     20  C   UNL     1       5.348   5.575  16.376  0.00  0.00    +0.000 C 
BRANCH  20  21
ATOM     21  C   UNL     1       6.405   6.200  17.289  0.00  0.00    +0.000 A 
ATOM     22  C   UNL     1       7.015   5.459  18.318  0.00  0.00    +0.000 A 
ATOM     23  C   UNL     1       8.016   6.025  19.115  0.00  0.00    +0.000 A 
ATOM     24  C   UNL     1       8.430   7.335  18.891  0.00  0.00    +0.000 A 
ATOM     25  C   UNL     1       7.842   8.086  17.876  0.00  0.00    +0.000 A 
ATOM     26  C   UNL     1       6.837   7.525  17.082  0.00  0.00    +0.000 A 
ENDBRANCH  20  21
BRANCH  20  27
ATOM     27  C   UNL     1       5.984   5.056  15.115  0.00  0.00    +0.000 A 
ATOM     28  N   UNL     1       7.180   5.336  14.630  0.00  0.00    +0.000 NA
ATOM     29  N   UNL     1       7.371   4.576  13.501  0.00  0.00    +0.000 NA
ATOM     30  C   UNL     1       6.282   3.872  13.306  0.00  0.00    +0.000 A 
ATOM     31  N   UNL     1       5.377   4.155  14.281  0.00  0.00    +0.000 N 
ATOM     32  H   UNL     1       4.447   3.772  14.378  0.00  0.00    +0.000 HD
ENDBRANCH  20  27
ENDBRANCH  18  20
ENDBRANCH  17  18
ENDBRANCH   1  17
TORSDOF 7
ENDMDL
