MODEL 1
REMARK VINA RESULT:      -8.6      0.000      0.000
REMARK  Name = 
REMARK  3 active torsions:
REMARK  status: ('A' for Active; 'I' for Inactive)
REMARK    1  A    between atoms: C_4  and  C_5
REMARK    2  A    between atoms: C_5  and  C_6
REMARK    3  A    between atoms: C_6  and  C_7
REMARK                            x       y       z     vdW  Elec       q    Type
REMARK                         _______ _______ _______ _____ _____    ______ ____
ROOT
ATOM      1  O   UNL     1      -0.749  11.237  18.231  0.00  0.00    +0.000 OA
ATOM      2  C   UNL     1       0.008  10.404  18.718  0.00  0.00    +0.000 A 
ATOM      3  N   UNL     1       0.847   9.649  17.958  0.00  0.00    +0.000 N 
ATOM      4  C   UNL     1       1.732   8.743  18.466  0.00  0.00    +0.000 A 
ATOM      5  N   UNL     1       1.836   8.502  19.743  0.00  0.00    +0.000 NA
ATOM      6  C   UNL     1       0.983   9.205  20.618  0.00  0.00    +0.000 A 
ATOM      7  C   UNL     1       1.026   8.935  21.988  0.00  0.00    +0.000 A 
ATOM      8  C   UNL     1       0.159   9.601  22.861  0.00  0.00    +0.000 A 
ATOM      9  F   UNL     1       0.202   9.323  24.170  0.00  0.00    +0.000 F 
ATOM     10  C   UNL     1      -0.762  10.537  22.406  0.00  0.00    +0.000 A 
ATOM     11  C   UNL     1      -0.814  10.824  21.049  0.00  0.00    +0.000 A 
ATOM     12  C   UNL     1       0.058  10.154  20.172  0.00  0.00    +0.000 A 
ATOM     13  H   UNL     1       0.770   9.825  16.967  0.00  0.00    +0.000 HD
ENDROOT
BRANCH   4  14
ATOM     14  C   UNL     1       2.553   7.940  17.465  0.00  0.00    +0.000 C 
BRANCH  14  15
ATOM     15  C   UNL     1       3.549   6.925  18.072  0.00  0.00    +0.000 C 
BRANCH  15  16
ATOM     16  C   UNL     1       3.214   5.508  17.653  0.00  0.00    +0.000 A 
ATOM     17  C   UNL     1       4.240   4.690  17.126  0.00  0.00    +0.000 A 
ATOM     18  C   UNL     1       4.151   3.305  17.233  0.00  0.00    +0.000 A 
ATOM     19  C   UNL     1       3.015   2.816  17.833  0.00  0.00    +0.000 A 
ATOM     20  C   UNL     1       1.871   3.579  18.032  0.00  0.00    +0.000 A 
ATOM     21  C   UNL     1       1.969   4.952  18.003  0.00  0.00    +0.000 A 
ATOM     22  C   UNL     1       0.869   2.696  18.685  0.00  0.00    +0.000 C 
ATOM     23  C   UNL     1       1.912   2.024  19.559  0.00  0.00    +0.000 C 
ATOM     24  O   UNL     1       2.989   1.677  18.628  0.00  0.00    +0.000 OA
ENDBRANCH  15  16
ENDBRANCH  14  15
ENDBRANCH   4  14
TORSDOF 3
ENDMDL
MODEL 2
REMARK VINA RESULT:      -8.6      2.496      3.678
REMARK  Name = 
REMARK  3 active torsions:
REMARK  status: ('A' for Active; 'I' for Inactive)
REMARK    1  A    between atoms: C_4  and  C_5
REMARK    2  A    between atoms: C_5  and  C_6
REMARK    3  A    between atoms: C_6  and  C_7
REMARK                            x       y       z     vdW  Elec       q    Type
REMARK                         _______ _______ _______ _____ _____    ______ ____
ROOT
ATOM      1  O   UNL     1       1.843   9.664  17.548  0.00  0.00    +0.000 OA
ATOM      2  C   UNL     1       1.747   8.975  18.557  0.00  0.00    +0.000 A 
ATOM      3  N   UNL     1       2.289   7.730  18.645  0.00  0.00    +0.000 N 
ATOM      4  C   UNL     1       2.239   6.951  19.764  0.00  0.00    +0.000 A 
ATOM      5  N   UNL     1       1.636   7.329  20.857  0.00  0.00    +0.000 NA
ATOM      6  C   UNL     1       1.006   8.590  20.860  0.00  0.00    +0.000 A 
ATOM      7  C   UNL     1       0.304   9.008  21.992  0.00  0.00    +0.000 A 
ATOM      8  C   UNL     1      -0.355  10.241  21.994  0.00  0.00    +0.000 A 
ATOM      9  F   UNL     1      -1.036  10.623  23.082  0.00  0.00    +0.000 F 
ATOM     10  C   UNL     1      -0.338  11.082  20.887  0.00  0.00    +0.000 A 
ATOM     11  C   UNL     1       0.361  10.687  19.755  0.00  0.00    +0.000 A 
ATOM     12  C   UNL     1       1.024   9.446  19.754  0.00  0.00    +0.000 A 
ATOM     13  H   UNL     1       2.754   7.427  17.801  0.00  0.00    +0.000 HD
ENDROOT
BRANCH   4  14
ATOM     14  C   UNL     1       2.847   5.557  19.667  0.00  0.00    +0.000 C 
BRANCH  14  15
ATOM     15  C   UNL     1       2.968   4.974  18.240  0.00  0.00    +0.000 C 
BRANCH  15  16
ATOM     16  C   UNL     1       4.417   4.867  17.812  0.00  0.00    +0.000 A 
ATOM     17  C   UNL     1       4.712   4.565  16.462  0.00  0.00    +0.000 A 
ATOM     18  C   UNL     1       5.921   4.971  15.905  0.00  0.00    +0.000 A 
ATOM     19  C   UNL     1       6.784   5.631  16.746  0.00  0.00    +0.000 A 
ATOM     20  C   UNL     1       6.654   5.623  18.130  0.00  0.00    +0.000 A 
ATOM     21  C   UNL     1       5.437   5.295  18.684  0.00  0.00    +0.000 A 
ATOM     22  C   UNL     1       7.779   6.425  18.677  0.00  0.00    +0.000 C 
ATOM     23  C   UNL     1       7.690   7.456  17.567  0.00  0.00    +0.000 C 
ATOM     24  O   UNL     1       7.629   6.657  16.339  0.00  0.00    +0.000 OA
ENDBRANCH  15  16
ENDBRANCH  14  15
ENDBRANCH   4  14
TORSDOF 3
ENDMDL
MODEL 3
REMARK VINA RESULT:      -8.5      7.390     10.542
REMARK  Name = 
REMARK  3 active torsions:
REMARK  status: ('A' for Active; 'I' for Inactive)
REMARK    1  A    between atoms: C_4  and  C_5
REMARK    2  A    between atoms: C_5  and  C_6
REMARK    3  A    between atoms: C_6  and  C_7
REMARK                            x       y       z     vdW  Elec       q    Type
REMARK                         _______ _______ _______ _____ _____    ______ ____
ROOT
ATOM      1  O   UNL     1       7.943   5.320  20.106  0.00  0.00    +0.000 OA
ATOM      2  C   UNL     1       7.723   6.018  19.122  0.00  0.00    +0.000 A 
ATOM      3  N   UNL     1       8.198   7.288  19.009  0.00  0.00    +0.000 N 
ATOM      4  C   UNL     1       8.011   8.081  17.914  0.00  0.00    +0.000 A 
ATOM      5  N   UNL     1       7.328   7.691  16.874  0.00  0.00    +0.000 NA
ATOM      6  C   UNL     1       6.758   6.402  16.904  0.00  0.00    +0.000 A 
ATOM      7  C   UNL     1       5.975   5.968  15.832  0.00  0.00    +0.000 A 
ATOM      8  C   UNL     1       5.375   4.705  15.867  0.00  0.00    +0.000 A 
ATOM      9  F   UNL     1       4.615   4.307  14.839  0.00  0.00    +0.000 F 
ATOM     10  C   UNL     1       5.531   3.850  16.952  0.00  0.00    +0.000 A 
ATOM     11  C   UNL     1       6.312   4.261  18.023  0.00  0.00    +0.000 A 
ATOM     12  C   UNL     1       6.915   5.531  17.987  0.00  0.00    +0.000 A 
ATOM     13  H   UNL     1       8.723   7.601  19.813  0.00  0.00    +0.000 HD
ENDROOT
BRANCH   4  14
ATOM     14  C   UNL     1       8.561   9.499  17.982  0.00  0.00    +0.000 C 
BRANCH  14  15
ATOM     15  C   UNL     1       9.234   9.897  19.316  0.00  0.00    +0.000 C 
BRANCH  15  16
ATOM     16  C   UNL     1      10.127  11.109  19.140  0.00  0.00    +0.000 A 
ATOM     17  C   UNL     1      10.511  11.492  17.834  0.00  0.00    +0.000 A 
ATOM     18  C   UNL     1      10.840  12.818  17.566  0.00  0.00    +0.000 A 
ATOM     19  C   UNL     1      10.799  13.680  18.635  0.00  0.00    +0.000 A 
ATOM     20  C   UNL     1      10.765  13.253  19.957  0.00  0.00    +0.000 A 
ATOM     21  C   UNL     1      10.366  11.965  20.232  0.00  0.00    +0.000 A 
ATOM     22  C   UNL     1      10.746  14.472  20.807  0.00  0.00    +0.000 C 
ATOM     23  C   UNL     1       9.818  15.214  19.863  0.00  0.00    +0.000 C 
ATOM     24  O   UNL     1      10.416  15.013  18.540  0.00  0.00    +0.000 OA
ENDBRANCH  15  16
ENDBRANCH  14  15
ENDBRANCH   4  14
TORSDOF 3
ENDMDL
MODEL 4
REMARK VINA RESULT:      -8.4      6.981     10.076
REMARK  Name = 
REMARK  3 active torsions:
REMARK  status: ('A' for Active; 'I' for Inactive)
REMARK    1  A    between atoms: C_4  and  C_5
REMARK    2  A    between atoms: C_5  and  C_6
REMARK    3  A    between atoms: C_6  and  C_7
REMARK                            x       y       z     vdW  Elec       q    Type
REMARK                         _______ _______ _______ _____ _____    ______ ____
ROOT
ATOM      1  O   UNL     1       8.061   5.169  20.236  0.00  0.00    +0.000 OA
ATOM      2  C   UNL     1       7.570   5.810  19.314  0.00  0.00    +0.000 A 
ATOM      3  N   UNL     1       8.095   6.990  18.886  0.00  0.00    +0.000 N 
ATOM      4  C   UNL     1       7.603   7.711  17.838  0.00  0.00    +0.000 A 
ATOM      5  N   UNL     1       6.554   7.337  17.159  0.00  0.00    +0.000 NA
ATOM      6  C   UNL     1       5.910   6.145  17.544  0.00  0.00    +0.000 A 
ATOM      7  C   UNL     1       4.752   5.738  16.877  0.00  0.00    +0.000 A 
ATOM      8  C   UNL     1       4.084   4.576  17.274  0.00  0.00    +0.000 A 
ATOM      9  F   UNL     1       2.968   4.205  16.634  0.00  0.00    +0.000 F 
ATOM     10  C   UNL     1       4.538   3.796  18.332  0.00  0.00    +0.000 A 
ATOM     11  C   UNL     1       5.690   4.180  19.003  0.00  0.00    +0.000 A 
ATOM     12  C   UNL     1       6.362   5.349  18.602  0.00  0.00    +0.000 A 
ATOM     13  H   UNL     1       8.904   7.291  19.410  0.00  0.00    +0.000 HD
ENDROOT
BRANCH   4  14
ATOM     14  C   UNL     1       8.277   9.043  17.534  0.00  0.00    +0.000 C 
BRANCH  14  15
ATOM     15  C   UNL     1       8.982   9.728  18.727  0.00  0.00    +0.000 C 
BRANCH  15  16
ATOM     16  C   UNL     1       9.514  11.093  18.341  0.00  0.00    +0.000 A 
ATOM     17  C   UNL     1       8.644  12.014  17.712  0.00  0.00    +0.000 A 
ATOM     18  C   UNL     1       8.877  13.381  17.825  0.00  0.00    +0.000 A 
ATOM     19  C   UNL     1       9.995  13.749  18.536  0.00  0.00    +0.000 A 
ATOM     20  C   UNL     1      11.021  12.866  18.850  0.00  0.00    +0.000 A 
ATOM     21  C   UNL     1      10.773  11.512  18.813  0.00  0.00    +0.000 A 
ATOM     22  C   UNL     1      12.045  13.640  19.599  0.00  0.00    +0.000 C 
ATOM     23  C   UNL     1      11.002  14.435  20.362  0.00  0.00    +0.000 C 
ATOM     24  O   UNL     1      10.069  14.889  19.327  0.00  0.00    +0.000 OA
ENDBRANCH  15  16
ENDBRANCH  14  15
ENDBRANCH   4  14
TORSDOF 3
ENDMDL
MODEL 5
REMARK VINA RESULT:      -8.3      6.128      9.284
REMARK  Name = 
REMARK  3 active torsions:
REMARK  status: ('A' for Active; 'I' for Inactive)
REMARK    1  A    between atoms: C_4  and  C_5
REMARK    2  A    between atoms: C_5  and  C_6
REMARK    3  A    between atoms: C_6  and  C_7
REMARK                            x       y       z     vdW  Elec       q    Type
REMARK                         _______ _______ _______ _____ _____    ______ ____
ROOT
ATOM      1  O   UNL     1       7.694   4.423  15.921  0.00  0.00    +0.000 OA
ATOM      2  C   UNL     1       7.072   5.340  16.447  0.00  0.00    +0.000 A 
ATOM      3  N   UNL     1       7.640   6.548  16.713  0.00  0.00    +0.000 N 
ATOM      4  C   UNL     1       6.970   7.604  17.258  0.00  0.00    +0.000 A 
ATOM      5  N   UNL     1       5.713   7.539  17.599  0.00  0.00    +0.000 NA
ATOM      6  C   UNL     1       5.039   6.317  17.401  0.00  0.00    +0.000 A 
ATOM      7  C   UNL     1       3.707   6.190  17.803  0.00  0.00    +0.000 A 
ATOM      8  C   UNL     1       3.039   4.972  17.644  0.00  0.00    +0.000 A 
ATOM      9  F   UNL     1       1.767   4.860  18.046  0.00  0.00    +0.000 F 
ATOM     10  C   UNL     1       3.665   3.860  17.092  0.00  0.00    +0.000 A 
ATOM     11  C   UNL     1       4.986   3.969  16.680  0.00  0.00    +0.000 A 
ATOM     12  C   UNL     1       5.657   5.195  16.840  0.00  0.00    +0.000 A 
ATOM     13  H   UNL     1       8.615   6.605  16.457  0.00  0.00    +0.000 HD
ENDROOT
BRANCH   4  14
ATOM     14  C   UNL     1       7.777   8.864  17.545  0.00  0.00    +0.000 C 
BRANCH  14  15
ATOM     15  C   UNL     1       8.690   8.809  18.791  0.00  0.00    +0.000 C 
BRANCH  15  16
ATOM     16  C   UNL     1       9.326  10.157  19.066  0.00  0.00    +0.000 A 
ATOM     17  C   UNL     1       9.535  11.047  17.987  0.00  0.00    +0.000 A 
ATOM     18  C   UNL     1       9.592  12.418  18.217  0.00  0.00    +0.000 A 
ATOM     19  C   UNL     1       9.469  12.819  19.526  0.00  0.00    +0.000 A 
ATOM     20  C   UNL     1       9.611  11.953  20.603  0.00  0.00    +0.000 A 
ATOM     21  C   UNL     1       9.481  10.599  20.394  0.00  0.00    +0.000 A 
ATOM     22  C   UNL     1       9.428  12.762  21.837  0.00  0.00    +0.000 C 
ATOM     23  C   UNL     1       8.312  13.588  21.226  0.00  0.00    +0.000 C 
ATOM     24  O   UNL     1       8.838  13.993  19.920  0.00  0.00    +0.000 OA
ENDBRANCH  15  16
ENDBRANCH  14  15
ENDBRANCH   4  14
TORSDOF 3
ENDMDL
MODEL 6
REMARK VINA RESULT:      -8.3      7.051     10.266
REMARK  Name = 
REMARK  3 active torsions:
REMARK  status: ('A' for Active; 'I' for Inactive)
REMARK    1  A    between atoms: C_4  and  C_5
REMARK    2  A    between atoms: C_5  and  C_6
REMARK    3  A    between atoms: C_6  and  C_7
REMARK                            x       y       z     vdW  Elec       q    Type
REMARK                         _______ _______ _______ _____ _____    ______ ____
ROOT
ATOM      1  O   UNL     1       5.268   4.687  19.366  0.00  0.00    +0.000 OA
ATOM      2  C   UNL     1       5.972   5.242  18.529  0.00  0.00    +0.000 A 
ATOM      3  N   UNL     1       6.776   6.296  18.837  0.00  0.00    +0.000 N 
ATOM      4  C   UNL     1       7.603   6.913  17.943  0.00  0.00    +0.000 A 
ATOM      5  N   UNL     1       7.678   6.554  16.692  0.00  0.00    +0.000 NA
ATOM      6  C   UNL     1       6.856   5.494  16.259  0.00  0.00    +0.000 A 
ATOM      7  C   UNL     1       6.867   5.117  14.914  0.00  0.00    +0.000 A 
ATOM      8  C   UNL     1       6.029   4.091  14.466  0.00  0.00    +0.000 A 
ATOM      9  F   UNL     1       6.040   3.748  13.172  0.00  0.00    +0.000 F 
ATOM     10  C   UNL     1       5.166   3.421  15.328  0.00  0.00    +0.000 A 
ATOM     11  C   UNL     1       5.147   3.778  16.669  0.00  0.00    +0.000 A 
ATOM     12  C   UNL     1       5.990   4.810  17.118  0.00  0.00    +0.000 A 
ATOM     13  H   UNL     1       6.720   6.584  19.802  0.00  0.00    +0.000 HD
ENDROOT
BRANCH   4  14
ATOM     14  C   UNL     1       8.389   8.117  18.444  0.00  0.00    +0.000 C 
BRANCH  14  15
ATOM     15  C   UNL     1       8.082   9.460  17.742  0.00  0.00    +0.000 C 
BRANCH  15  16
ATOM     16  C   UNL     1       8.812  10.608  18.409  0.00  0.00    +0.000 A 
ATOM     17  C   UNL     1       9.505  10.368  19.619  0.00  0.00    +0.000 A 
ATOM     18  C   UNL     1      10.585  11.170  19.974  0.00  0.00    +0.000 A 
ATOM     19  C   UNL     1      10.889  12.195  19.110  0.00  0.00    +0.000 A 
ATOM     20  C   UNL     1      10.018  12.642  18.124  0.00  0.00    +0.000 A 
ATOM     21  C   UNL     1       8.992  11.820  17.715  0.00  0.00    +0.000 A 
ATOM     22  C   UNL     1      10.697  13.762  17.420  0.00  0.00    +0.000 C 
ATOM     23  C   UNL     1      12.050  13.077  17.469  0.00  0.00    +0.000 C 
ATOM     24  O   UNL     1      12.182  12.640  18.861  0.00  0.00    +0.000 OA
ENDBRANCH  15  16
ENDBRANCH  14  15
ENDBRANCH   4  14
TORSDOF 3
ENDMDL
MODEL 7
REMARK VINA RESULT:      -8.2      2.356      3.436
REMARK  Name = 
REMARK  3 active torsions:
REMARK  status: ('A' for Active; 'I' for Inactive)
REMARK    1  A    between atoms: C_4  and  C_5
REMARK    2  A    between atoms: C_5  and  C_6
REMARK    3  A    between atoms: C_6  and  C_7
REMARK                            x       y       z     vdW  Elec       q    Type
REMARK                         _______ _______ _______ _____ _____    ______ ____
ROOT
ATOM      1  O   UNL     1       1.886   9.766  17.476  0.00  0.00    +0.000 OA
ATOM      2  C   UNL     1       1.800   9.002  18.431  0.00  0.00    +0.000 A 
ATOM      3  N   UNL     1       2.233   7.713  18.374  0.00  0.00    +0.000 N 
ATOM      4  C   UNL     1       2.192   6.845  19.426  0.00  0.00    +0.000 A 
ATOM      5  N   UNL     1       1.705   7.175  20.590  0.00  0.00    +0.000 NA
ATOM      6  C   UNL     1       1.193   8.479  20.745  0.00  0.00    +0.000 A 
ATOM      7  C   UNL     1       0.614   8.853  21.960  0.00  0.00    +0.000 A 
ATOM      8  C   UNL     1       0.070  10.132  22.114  0.00  0.00    +0.000 A 
ATOM      9  F   UNL     1      -0.494  10.473  23.279  0.00  0.00    +0.000 F 
ATOM     10  C   UNL     1       0.084  11.063  21.080  0.00  0.00    +0.000 A 
ATOM     11  C   UNL     1       0.662  10.712  19.868  0.00  0.00    +0.000 A 
ATOM     12  C   UNL     1       1.209   9.425  19.715  0.00  0.00    +0.000 A 
ATOM     13  H   UNL     1       2.607   7.447  17.475  0.00  0.00    +0.000 HD
ENDROOT
BRANCH   4  14
ATOM     14  C   UNL     1       2.663   5.420  19.169  0.00  0.00    +0.000 C 
BRANCH  14  15
ATOM     15  C   UNL     1       4.082   5.077  19.679  0.00  0.00    +0.000 C 
BRANCH  15  16
ATOM     16  C   UNL     1       5.142   5.505  18.684  0.00  0.00    +0.000 A 
ATOM     17  C   UNL     1       6.496   5.517  19.090  0.00  0.00    +0.000 A 
ATOM     18  C   UNL     1       7.508   5.367  18.146  0.00  0.00    +0.000 A 
ATOM     19  C   UNL     1       7.103   5.247  16.838  0.00  0.00    +0.000 A 
ATOM     20  C   UNL     1       5.825   5.577  16.404  0.00  0.00    +0.000 A 
ATOM     21  C   UNL     1       4.805   5.652  17.325  0.00  0.00    +0.000 A 
ATOM     22  C   UNL     1       5.787   5.330  14.938  0.00  0.00    +0.000 C 
ATOM     23  C   UNL     1       6.622   4.068  15.049  0.00  0.00    +0.000 C 
ATOM     24  O   UNL     1       7.753   4.459  15.896  0.00  0.00    +0.000 OA
ENDBRANCH  15  16
ENDBRANCH  14  15
ENDBRANCH   4  14
TORSDOF 3
ENDMDL
MODEL 8
REMARK VINA RESULT:      -8.2      2.097      2.682
REMARK  Name = 
REMARK  3 active torsions:
REMARK  status: ('A' for Active; 'I' for Inactive)
REMARK    1  A    between atoms: C_4  and  C_5
REMARK    2  A    between atoms: C_5  and  C_6
REMARK    3  A    between atoms: C_6  and  C_7
REMARK                            x       y       z     vdW  Elec       q    Type
REMARK                         _______ _______ _______ _____ _____    ______ ____
ROOT
ATOM      1  O   UNL     1       0.737   9.623  23.536  0.00  0.00    +0.000 OA
ATOM      2  C   UNL     1       0.773   9.458  22.322  0.00  0.00    +0.000 A 
ATOM      3  N   UNL     1       1.510   8.471  21.742  0.00  0.00    +0.000 N 
ATOM      4  C   UNL     1       1.543   8.230  20.400  0.00  0.00    +0.000 A 
ATOM      5  N   UNL     1       0.879   8.950  19.540  0.00  0.00    +0.000 NA
ATOM      6  C   UNL     1       0.111  10.025  20.033  0.00  0.00    +0.000 A 
ATOM      7  C   UNL     1      -0.571  10.853  19.139  0.00  0.00    +0.000 A 
ATOM      8  C   UNL     1      -1.306  11.944  19.614  0.00  0.00    +0.000 A 
ATOM      9  F   UNL     1      -1.945  12.737  18.746  0.00  0.00    +0.000 F 
ATOM     10  C   UNL     1      -1.382  12.240  20.971  0.00  0.00    +0.000 A 
ATOM     11  C   UNL     1      -0.717  11.424  21.875  0.00  0.00    +0.000 A 
ATOM     12  C   UNL     1       0.022  10.327  21.395  0.00  0.00    +0.000 A 
ATOM     13  H   UNL     1       2.032   7.912  22.400  0.00  0.00    +0.000 HD
ENDROOT
BRANCH   4  14
ATOM     14  C   UNL     1       2.471   7.122  19.917  0.00  0.00    +0.000 C 
BRANCH  14  15
ATOM     15  C   UNL     1       2.731   7.078  18.394  0.00  0.00    +0.000 C 
BRANCH  15  16
ATOM     16  C   UNL     1       2.695   5.657  17.871  0.00  0.00    +0.000 A 
ATOM     17  C   UNL     1       3.879   5.090  17.346  0.00  0.00    +0.000 A 
ATOM     18  C   UNL     1       4.059   3.710  17.362  0.00  0.00    +0.000 A 
ATOM     19  C   UNL     1       3.020   2.971  17.876  0.00  0.00    +0.000 A 
ATOM     20  C   UNL     1       1.742   3.482  18.065  0.00  0.00    +0.000 A 
ATOM     21  C   UNL     1       1.571   4.847  18.126  0.00  0.00    +0.000 A 
ATOM     22  C   UNL     1       0.910   2.379  18.613  0.00  0.00    +0.000 C 
ATOM     23  C   UNL     1       2.033   1.862  19.493  0.00  0.00    +0.000 C 
ATOM     24  O   UNL     1       3.190   1.795  18.596  0.00  0.00    +0.000 OA
ENDBRANCH  15  16
ENDBRANCH  14  15
ENDBRANCH   4  14
TORSDOF 3
ENDMDL
MODEL 9
REMARK VINA RESULT:      -8.2      3.674      7.910
REMARK  Name = 
REMARK  3 active torsions:
REMARK  status: ('A' for Active; 'I' for Inactive)
REMARK    1  A    between atoms: C_4  and  C_5
REMARK    2  A    between atoms: C_5  and  C_6
REMARK    3  A    between atoms: C_6  and  C_7
REMARK                            x       y       z     vdW  Elec       q    Type
REMARK                         _______ _______ _______ _____ _____    ______ ____
ROOT
ATOM      1  O   UNL     1       6.789   5.310  19.897  0.00  0.00    +0.000 OA
ATOM      2  C   UNL     1       5.832   5.162  19.146  0.00  0.00    +0.000 A 
ATOM      3  N   UNL     1       4.545   5.265  19.578  0.00  0.00    +0.000 N 
ATOM      4  C   UNL     1       3.454   5.148  18.765  0.00  0.00    +0.000 A 
ATOM      5  N   UNL     1       3.553   4.899  17.489  0.00  0.00    +0.000 NA
ATOM      6  C   UNL     1       4.843   4.736  16.946  0.00  0.00    +0.000 A 
ATOM      7  C   UNL     1       4.988   4.415  15.594  0.00  0.00    +0.000 A 
ATOM      8  C   UNL     1       6.262   4.215  15.053  0.00  0.00    +0.000 A 
ATOM      9  F   UNL     1       6.385   3.895  13.759  0.00  0.00    +0.000 F 
ATOM     10  C   UNL     1       7.412   4.324  15.827  0.00  0.00    +0.000 A 
ATOM     11  C   UNL     1       7.288   4.649  17.171  0.00  0.00    +0.000 A 
ATOM     12  C   UNL     1       6.006   4.850  17.714  0.00  0.00    +0.000 A 
ATOM     13  H   UNL     1       4.459   5.451  20.566  0.00  0.00    +0.000 HD
ENDROOT
BRANCH   4  14
ATOM     14  C   UNL     1       2.085   5.230  19.427  0.00  0.00    +0.000 C 
BRANCH  14  15
ATOM     15  C   UNL     1       1.950   6.265  20.568  0.00  0.00    +0.000 C 
BRANCH  15  16
ATOM     16  C   UNL     1       1.852   7.675  20.022  0.00  0.00    +0.000 A 
ATOM     17  C   UNL     1       2.246   7.920  18.686  0.00  0.00    +0.000 A 
ATOM     18  C   UNL     1       1.701   8.991  17.985  0.00  0.00    +0.000 A 
ATOM     19  C   UNL     1       0.813   9.780  18.677  0.00  0.00    +0.000 A 
ATOM     20  C   UNL     1       0.690   9.754  20.060  0.00  0.00    +0.000 A 
ATOM     21  C   UNL     1       1.160   8.660  20.752  0.00  0.00    +0.000 A 
ATOM     22  C   UNL     1      -0.349  10.752  20.423  0.00  0.00    +0.000 C 
ATOM     23  C   UNL     1      -1.220  10.397  19.232  0.00  0.00    +0.000 C 
ATOM     24  O   UNL     1      -0.292  10.393  18.098  0.00  0.00    +0.000 OA
ENDBRANCH  15  16
ENDBRANCH  14  15
ENDBRANCH   4  14
TORSDOF 3
ENDMDL
