MODEL 1
REMARK VINA RESULT:      -8.4      0.000      0.000
REMARK  Name = 
REMARK  4 active torsions:
REMARK  status: ('A' for Active; 'I' for Inactive)
REMARK    1  A    between atoms: C_2  and  C_15
REMARK    2  A    between atoms: N_3  and  C_4
REMARK    3  A    between atoms: C_8  and  N_9
REMARK    4  A    between atoms: C_19  and  N_20
REMARK                            x       y       z     vdW  Elec       q    Type
REMARK                         _______ _______ _______ _____ _____    ______ ____
ROOT
ATOM      1  O   UNL     1       2.213   9.179  17.135  0.00  0.00    +0.000 OA
ATOM      2  C   UNL     1       2.130   8.535  18.178  0.00  0.00    +0.000 C 
ATOM      3  N   UNL     1       1.376   8.870  19.293  0.00  0.00    +0.000 N 
ATOM      4  H   UNL     1       1.529   8.338  20.138  0.00  0.00    +0.000 HD
ENDROOT
BRANCH   3   5
ATOM      5  C   UNL     1       0.514   9.992  19.395  0.00  0.00    +0.000 A 
ATOM      6  C   UNL     1       0.736  11.039  20.292  0.00  0.00    +0.000 A 
ATOM      7  C   UNL     1      -0.144  12.116  20.366  0.00  0.00    +0.000 A 
ATOM      8  C   UNL     1      -1.256  12.171  19.533  0.00  0.00    +0.000 A 
ATOM      9  C   UNL     1      -1.496  11.144  18.609  0.00  0.00    +0.000 A 
ATOM     10  C   UNL     1      -0.605  10.054  18.548  0.00  0.00    +0.000 A 
BRANCH   9  11
ATOM     11  N   UNL     1      -2.630  11.218  17.747  0.00  0.00    +0.000 N 
ATOM     12  C   UNL     1      -3.928  11.531  18.087  0.00  0.00    +0.000 A 
ATOM     13  C   UNL     1      -4.658  11.465  16.923  0.00  0.00    +0.000 A 
ATOM     14  N   UNL     1      -3.862  11.122  15.871  0.00  0.00    +0.000 NA
ATOM     15  C   UNL     1      -2.661  10.981  16.388  0.00  0.00    +0.000 A 
ENDBRANCH   9  11
ENDBRANCH   3   5
BRANCH   2  16
ATOM     16  C   UNL     1       2.985   7.324  18.287  0.00  0.00    +0.000 A 
ATOM     17  C   UNL     1       2.802   6.519  19.422  0.00  0.00    +0.000 A 
ATOM     18  C   UNL     1       3.594   5.393  19.627  0.00  0.00    +0.000 A 
ATOM     19  C   UNL     1       4.572   5.054  18.694  0.00  0.00    +0.000 A 
ATOM     20  C   UNL     1       4.760   5.844  17.548  0.00  0.00    +0.000 A 
ATOM     21  C   UNL     1       3.973   6.996  17.351  0.00  0.00    +0.000 A 
BRANCH  20  22
ATOM     22  N   UNL     1       5.728   5.472  16.579  0.00  0.00    +0.000 N 
ATOM     23  C   UNL     1       5.655   4.481  15.626  0.00  0.00    +0.000 A 
ATOM     24  C   UNL     1       6.821   4.598  14.911  0.00  0.00    +0.000 A 
ATOM     25  N   UNL     1       7.571   5.609  15.427  0.00  0.00    +0.000 NA
ATOM     26  N   UNL     1       6.901   6.139  16.443  0.00  0.00    +0.000 NA
ENDBRANCH  20  22
ENDBRANCH   2  16
TORSDOF 4
ENDMDL
MODEL 2
REMARK VINA RESULT:      -8.3      3.046      9.184
REMARK  Name = 
REMARK  4 active torsions:
REMARK  status: ('A' for Active; 'I' for Inactive)
REMARK    1  A    between atoms: C_2  and  C_15
REMARK    2  A    between atoms: N_3  and  C_4
REMARK    3  A    between atoms: C_8  and  N_9
REMARK    4  A    between atoms: C_19  and  N_20
REMARK                            x       y       z     vdW  Elec       q    Type
REMARK                         _______ _______ _______ _____ _____    ______ ____
ROOT
ATOM      1  O   UNL     1       2.888   5.624  18.764  0.00  0.00    +0.000 OA
ATOM      2  C   UNL     1       3.201   6.745  18.371  0.00  0.00    +0.000 C 
ATOM      3  N   UNL     1       4.378   7.091  17.725  0.00  0.00    +0.000 N 
ATOM      4  H   UNL     1       4.576   8.075  17.606  0.00  0.00    +0.000 HD
ENDROOT
BRANCH   3   5
ATOM      5  C   UNL     1       5.404   6.186  17.349  0.00  0.00    +0.000 A 
ATOM      6  C   UNL     1       6.312   5.646  18.262  0.00  0.00    +0.000 A 
ATOM      7  C   UNL     1       7.312   4.771  17.846  0.00  0.00    +0.000 A 
ATOM      8  C   UNL     1       7.413   4.409  16.507  0.00  0.00    +0.000 A 
ATOM      9  C   UNL     1       6.506   4.920  15.568  0.00  0.00    +0.000 A 
ATOM     10  C   UNL     1       5.503   5.813  15.998  0.00  0.00    +0.000 A 
BRANCH   9  11
ATOM     11  N   UNL     1       6.607   4.530  14.200  0.00  0.00    +0.000 N 
ATOM     12  C   UNL     1       5.852   3.587  13.536  0.00  0.00    +0.000 A 
ATOM     13  C   UNL     1       6.324   3.558  12.243  0.00  0.00    +0.000 A 
ATOM     14  N   UNL     1       7.344   4.446  12.079  0.00  0.00    +0.000 NA
ATOM     15  C   UNL     1       7.493   5.011  13.258  0.00  0.00    +0.000 A 
ENDBRANCH   9  11
ENDBRANCH   3   5
BRANCH   2  16
ATOM     16  C   UNL     1       2.264   7.854  18.693  0.00  0.00    +0.000 A 
ATOM     17  C   UNL     1       1.828   8.647  17.620  0.00  0.00    +0.000 A 
ATOM     18  C   UNL     1       0.989   9.735  17.839  0.00  0.00    +0.000 A 
ATOM     19  C   UNL     1       0.568  10.037  19.133  0.00  0.00    +0.000 A 
ATOM     20  C   UNL     1       0.987   9.246  20.215  0.00  0.00    +0.000 A 
ATOM     21  C   UNL     1       1.854   8.158  19.997  0.00  0.00    +0.000 A 
BRANCH  20  22
ATOM     22  N   UNL     1       0.523   9.531  21.526  0.00  0.00    +0.000 N 
ATOM     23  C   UNL     1      -0.714   9.989  21.919  0.00  0.00    +0.000 A 
ATOM     24  C   UNL     1      -0.654  10.022  23.291  0.00  0.00    +0.000 A 
ATOM     25  N   UNL     1       0.578   9.616  23.701  0.00  0.00    +0.000 NA
ATOM     26  N   UNL     1       1.292   9.319  22.622  0.00  0.00    +0.000 NA
ENDBRANCH  20  22
ENDBRANCH   2  16
TORSDOF 4
ENDMDL
MODEL 3
REMARK VINA RESULT:      -8.1      2.675      3.859
REMARK  Name = 
REMARK  4 active torsions:
REMARK  status: ('A' for Active; 'I' for Inactive)
REMARK    1  A    between atoms: C_2  and  C_15
REMARK    2  A    between atoms: N_3  and  C_4
REMARK    3  A    between atoms: C_8  and  N_9
REMARK    4  A    between atoms: C_19  and  N_20
REMARK                            x       y       z     vdW  Elec       q    Type
REMARK                         _______ _______ _______ _____ _____    ______ ____
ROOT
ATOM      1  O   UNL     1       2.119   5.697  18.020  0.00  0.00    +0.000 OA
ATOM      2  C   UNL     1       3.091   6.448  18.010  0.00  0.00    +0.000 C 
ATOM      3  N   UNL     1       3.070   7.823  18.182  0.00  0.00    +0.000 N 
ATOM      4  H   UNL     1       3.920   8.334  17.987  0.00  0.00    +0.000 HD
ENDROOT
BRANCH   3   5
ATOM      5  C   UNL     1       1.915   8.597  18.466  0.00  0.00    +0.000 A 
ATOM      6  C   UNL     1       1.094   9.128  17.468  0.00  0.00    +0.000 A 
ATOM      7  C   UNL     1      -0.023   9.893  17.792  0.00  0.00    +0.000 A 
ATOM      8  C   UNL     1      -0.348  10.130  19.123  0.00  0.00    +0.000 A 
ATOM      9  C   UNL     1       0.446   9.596  20.148  0.00  0.00    +0.000 A 
ATOM     10  C   UNL     1       1.581   8.831  19.810  0.00  0.00    +0.000 A 
BRANCH   9  11
ATOM     11  N   UNL     1       0.096   9.830  21.511  0.00  0.00    +0.000 N 
ATOM     12  C   UNL     1      -0.908  10.642  21.995  0.00  0.00    +0.000 A 
ATOM     13  C   UNL     1      -0.850  10.549  23.366  0.00  0.00    +0.000 A 
ATOM     14  N   UNL     1       0.152   9.710  23.754  0.00  0.00    +0.000 NA
ATOM     15  C   UNL     1       0.699   9.297  22.631  0.00  0.00    +0.000 A 
ENDBRANCH   9  11
ENDBRANCH   3   5
BRANCH   2  16
ATOM     16  C   UNL     1       4.409   5.833  17.700  0.00  0.00    +0.000 A 
ATOM     17  C   UNL     1       5.214   5.475  18.793  0.00  0.00    +0.000 A 
ATOM     18  C   UNL     1       6.482   4.938  18.592  0.00  0.00    +0.000 A 
ATOM     19  C   UNL     1       6.956   4.744  17.297  0.00  0.00    +0.000 A 
ATOM     20  C   UNL     1       6.158   5.088  16.193  0.00  0.00    +0.000 A 
ATOM     21  C   UNL     1       4.884   5.651  16.395  0.00  0.00    +0.000 A 
BRANCH  20  22
ATOM     22  N   UNL     1       6.628   4.851  14.874  0.00  0.00    +0.000 N 
ATOM     23  C   UNL     1       6.103   4.019  13.912  0.00  0.00    +0.000 A 
ATOM     24  C   UNL     1       6.893   4.222  12.807  0.00  0.00    +0.000 A 
ATOM     25  N   UNL     1       7.865   5.127  13.104  0.00  0.00    +0.000 NA
ATOM     26  N   UNL     1       7.699   5.507  14.365  0.00  0.00    +0.000 NA
ENDBRANCH  20  22
ENDBRANCH   2  16
TORSDOF 4
ENDMDL
MODEL 4
REMARK VINA RESULT:      -8.1      1.326      1.503
REMARK  Name = 
REMARK  4 active torsions:
REMARK  status: ('A' for Active; 'I' for Inactive)
REMARK    1  A    between atoms: C_2  and  C_15
REMARK    2  A    between atoms: N_3  and  C_4
REMARK    3  A    between atoms: C_8  and  N_9
REMARK    4  A    between atoms: C_19  and  N_20
REMARK                            x       y       z     vdW  Elec       q    Type
REMARK                         _______ _______ _______ _____ _____    ______ ____
ROOT
ATOM      1  O   UNL     1       2.125   7.684  19.965  0.00  0.00    +0.000 OA
ATOM      2  C   UNL     1       2.211   7.604  18.742  0.00  0.00    +0.000 C 
ATOM      3  N   UNL     1       1.731   8.523  17.822  0.00  0.00    +0.000 N 
ATOM      4  H   UNL     1       1.725   8.252  16.849  0.00  0.00    +0.000 HD
ENDROOT
BRANCH   3   5
ATOM      5  C   UNL     1       1.107   9.756  18.142  0.00  0.00    +0.000 A 
ATOM      6  C   UNL     1       1.788  10.816  18.744  0.00  0.00    +0.000 A 
ATOM      7  C   UNL     1       1.132  12.006  19.052  0.00  0.00    +0.000 A 
ATOM      8  C   UNL     1      -0.217  12.160  18.751  0.00  0.00    +0.000 A 
ATOM      9  C   UNL     1      -0.924  11.120  18.130  0.00  0.00    +0.000 A 
ATOM     10  C   UNL     1      -0.253   9.917  17.831  0.00  0.00    +0.000 A 
BRANCH   9  11
ATOM     11  N   UNL     1      -2.303  11.294  17.809  0.00  0.00    +0.000 N 
ATOM     12  C   UNL     1      -2.902  11.168  16.574  0.00  0.00    +0.000 A 
ATOM     13  C   UNL     1      -4.237  11.438  16.766  0.00  0.00    +0.000 A 
ATOM     14  N   UNL     1      -4.491  11.729  18.072  0.00  0.00    +0.000 NA
ATOM     15  C   UNL     1      -3.324  11.636  18.672  0.00  0.00    +0.000 A 
ENDBRANCH   9  11
ENDBRANCH   3   5
BRANCH   2  16
ATOM     16  C   UNL     1       2.816   6.360  18.194  0.00  0.00    +0.000 A 
ATOM     17  C   UNL     1       2.197   5.149  18.540  0.00  0.00    +0.000 A 
ATOM     18  C   UNL     1       2.726   3.936  18.110  0.00  0.00    +0.000 A 
ATOM     19  C   UNL     1       3.875   3.921  17.322  0.00  0.00    +0.000 A 
ATOM     20  C   UNL     1       4.499   5.126  16.959  0.00  0.00    +0.000 A 
ATOM     21  C   UNL     1       3.977   6.353  17.411  0.00  0.00    +0.000 A 
BRANCH  20  22
ATOM     22  N   UNL     1       5.645   5.108  16.121  0.00  0.00    +0.000 N 
ATOM     23  C   UNL     1       5.898   4.313  15.027  0.00  0.00    +0.000 A 
ATOM     24  C   UNL     1       7.106   4.756  14.545  0.00  0.00    +0.000 A 
ATOM     25  N   UNL     1       7.566   5.765  15.333  0.00  0.00    +0.000 NA
ATOM     26  N   UNL     1       6.673   5.976  16.293  0.00  0.00    +0.000 NA
ENDBRANCH  20  22
ENDBRANCH   2  16
TORSDOF 4
ENDMDL
MODEL 5
REMARK VINA RESULT:      -7.9      2.407      3.503
REMARK  Name = 
REMARK  4 active torsions:
REMARK  status: ('A' for Active; 'I' for Inactive)
REMARK    1  A    between atoms: C_2  and  C_15
REMARK    2  A    between atoms: N_3  and  C_4
REMARK    3  A    between atoms: C_8  and  N_9
REMARK    4  A    between atoms: C_19  and  N_20
REMARK                            x       y       z     vdW  Elec       q    Type
REMARK                         _______ _______ _______ _____ _____    ______ ____
ROOT
ATOM      1  O   UNL     1       2.458   8.960  17.074  0.00  0.00    +0.000 OA
ATOM      2  C   UNL     1       2.195   8.398  18.134  0.00  0.00    +0.000 C 
ATOM      3  N   UNL     1       1.377   8.885  19.142  0.00  0.00    +0.000 N 
ATOM      4  H   UNL     1       1.380   8.395  20.026  0.00  0.00    +0.000 HD
ENDROOT
BRANCH   3   5
ATOM      5  C   UNL     1       0.648  10.101  19.092  0.00  0.00    +0.000 A 
ATOM      6  C   UNL     1       1.100  11.282  19.685  0.00  0.00    +0.000 A 
ATOM      7  C   UNL     1       0.344  12.450  19.621  0.00  0.00    +0.000 A 
ATOM      8  C   UNL     1      -0.874  12.461  18.950  0.00  0.00    +0.000 A 
ATOM      9  C   UNL     1      -1.346  11.296  18.329  0.00  0.00    +0.000 A 
ATOM     10  C   UNL     1      -0.579  10.116  18.407  0.00  0.00    +0.000 A 
BRANCH   9  11
ATOM     11  N   UNL     1      -2.588  11.322  17.628  0.00  0.00    +0.000 N 
ATOM     12  C   UNL     1      -2.814  11.015  16.303  0.00  0.00    +0.000 A 
ATOM     13  C   UNL     1      -4.161  11.195  16.091  0.00  0.00    +0.000 A 
ATOM     14  N   UNL     1      -4.782  11.602  17.234  0.00  0.00    +0.000 NA
ATOM     15  C   UNL     1      -3.825  11.670  18.133  0.00  0.00    +0.000 A 
ENDBRANCH   9  11
ENDBRANCH   3   5
BRANCH   2  16
ATOM     16  C   UNL     1       2.886   7.108  18.398  0.00  0.00    +0.000 A 
ATOM     17  C   UNL     1       4.040   6.842  17.644  0.00  0.00    +0.000 A 
ATOM     18  C   UNL     1       4.720   5.637  17.792  0.00  0.00    +0.000 A 
ATOM     19  C   UNL     1       4.259   4.688  18.703  0.00  0.00    +0.000 A 
ATOM     20  C   UNL     1       3.111   4.944  19.471  0.00  0.00    +0.000 A 
ATOM     21  C   UNL     1       2.411   6.155  19.306  0.00  0.00    +0.000 A 
BRANCH  20  22
ATOM     22  N   UNL     1       2.669   3.993  20.428  0.00  0.00    +0.000 N 
ATOM     23  C   UNL     1       1.393   3.775  20.897  0.00  0.00    +0.000 A 
ATOM     24  C   UNL     1       1.512   2.700  21.743  0.00  0.00    +0.000 A 
ATOM     25  N   UNL     1       2.812   2.302  21.791  0.00  0.00    +0.000 NA
ATOM     26  N   UNL     1       3.513   3.093  20.989  0.00  0.00    +0.000 NA
ENDBRANCH  20  22
ENDBRANCH   2  16
TORSDOF 4
ENDMDL
MODEL 6
REMARK VINA RESULT:      -7.8      2.223      3.069
REMARK  Name = 
REMARK  4 active torsions:
REMARK  status: ('A' for Active; 'I' for Inactive)
REMARK    1  A    between atoms: C_2  and  C_15
REMARK    2  A    between atoms: N_3  and  C_4
REMARK    3  A    between atoms: C_8  and  N_9
REMARK    4  A    between atoms: C_19  and  N_20
REMARK                            x       y       z     vdW  Elec       q    Type
REMARK                         _______ _______ _______ _____ _____    ______ ____
ROOT
ATOM      1  O   UNL     1       2.169   9.647  17.295  0.00  0.00    +0.000 OA
ATOM      2  C   UNL     1       1.965   8.788  18.149  0.00  0.00    +0.000 C 
ATOM      3  N   UNL     1       1.179   8.925  19.282  0.00  0.00    +0.000 N 
ATOM      4  H   UNL     1       1.231   8.197  19.980  0.00  0.00    +0.000 HD
ENDROOT
BRANCH   3   5
ATOM      5  C   UNL     1       0.418  10.074  19.619  0.00  0.00    +0.000 A 
ATOM      6  C   UNL     1       0.853  11.029  20.540  0.00  0.00    +0.000 A 
ATOM      7  C   UNL     1       0.067  12.136  20.849  0.00  0.00    +0.000 A 
ATOM      8  C   UNL     1      -1.166  12.315  20.231  0.00  0.00    +0.000 A 
ATOM      9  C   UNL     1      -1.623  11.383  19.289  0.00  0.00    +0.000 A 
ATOM     10  C   UNL     1      -0.824  10.261  18.989  0.00  0.00    +0.000 A 
BRANCH   9  11
ATOM     11  N   UNL     1      -2.881  11.583  18.647  0.00  0.00    +0.000 N 
ATOM     12  C   UNL     1      -4.052  12.041  19.213  0.00  0.00    +0.000 A 
ATOM     13  C   UNL     1      -4.986  12.057  18.203  0.00  0.00    +0.000 A 
ATOM     14  N   UNL     1      -4.441  11.625  17.031  0.00  0.00    +0.000 NA
ATOM     15  C   UNL     1      -3.188  11.350  17.322  0.00  0.00    +0.000 A 
ENDBRANCH   9  11
ENDBRANCH   3   5
BRANCH   2  16
ATOM     16  C   UNL     1       2.699   7.503  17.995  0.00  0.00    +0.000 A 
ATOM     17  C   UNL     1       4.008   7.577  17.493  0.00  0.00    +0.000 A 
ATOM     18  C   UNL     1       4.747   6.420  17.273  0.00  0.00    +0.000 A 
ATOM     19  C   UNL     1       4.190   5.175  17.559  0.00  0.00    +0.000 A 
ATOM     20  C   UNL     1       2.885   5.086  18.071  0.00  0.00    +0.000 A 
ATOM     21  C   UNL     1       2.128   6.256  18.274  0.00  0.00    +0.000 A 
BRANCH  20  22
ATOM     22  N   UNL     1       2.336   3.819  18.401  0.00  0.00    +0.000 N 
ATOM     23  C   UNL     1       2.866   2.835  19.204  0.00  0.00    +0.000 A 
ATOM     24  C   UNL     1       1.900   1.859  19.244  0.00  0.00    +0.000 A 
ATOM     25  N   UNL     1       0.841   2.237  18.477  0.00  0.00    +0.000 NA
ATOM     26  N   UNL     1       1.112   3.432  17.965  0.00  0.00    +0.000 NA
ENDBRANCH  20  22
ENDBRANCH   2  16
TORSDOF 4
ENDMDL
MODEL 7
REMARK VINA RESULT:      -7.7      1.431      1.548
REMARK  Name = 
REMARK  4 active torsions:
REMARK  status: ('A' for Active; 'I' for Inactive)
REMARK    1  A    between atoms: C_2  and  C_15
REMARK    2  A    between atoms: N_3  and  C_4
REMARK    3  A    between atoms: C_8  and  N_9
REMARK    4  A    between atoms: C_19  and  N_20
REMARK                            x       y       z     vdW  Elec       q    Type
REMARK                         _______ _______ _______ _____ _____    ______ ____
ROOT
ATOM      1  O   UNL     1       1.409   7.967  20.901  0.00  0.00    +0.000 OA
ATOM      2  C   UNL     1       1.876   7.747  19.786  0.00  0.00    +0.000 C 
ATOM      3  N   UNL     1       1.725   8.542  18.660  0.00  0.00    +0.000 N 
ATOM      4  H   UNL     1       2.024   8.160  17.773  0.00  0.00    +0.000 HD
ENDROOT
BRANCH   3   5
ATOM      5  C   UNL     1       1.049   9.789  18.620  0.00  0.00    +0.000 A 
ATOM      6  C   UNL     1       1.612  10.973  19.101  0.00  0.00    +0.000 A 
ATOM      7  C   UNL     1       0.906  12.172  19.052  0.00  0.00    +0.000 A 
ATOM      8  C   UNL     1      -0.374  12.211  18.508  0.00  0.00    +0.000 A 
ATOM      9  C   UNL     1      -0.959  11.042  18.001  0.00  0.00    +0.000 A 
ATOM     10  C   UNL     1      -0.240   9.831  18.063  0.00  0.00    +0.000 A 
BRANCH   9  11
ATOM     11  N   UNL     1      -2.265  11.095  17.429  0.00  0.00    +0.000 N 
ATOM     12  C   UNL     1      -3.441  11.461  18.047  0.00  0.00    +0.000 A 
ATOM     13  C   UNL     1      -4.428  11.345  17.096  0.00  0.00    +0.000 A 
ATOM     14  N   UNL     1      -3.910  10.920  15.909  0.00  0.00    +0.000 NA
ATOM     15  C   UNL     1      -2.622  10.778  16.134  0.00  0.00    +0.000 A 
ENDBRANCH   9  11
ENDBRANCH   3   5
BRANCH   2  16
ATOM     16  C   UNL     1       2.607   6.464  19.607  0.00  0.00    +0.000 A 
ATOM     17  C   UNL     1       2.138   5.361  20.336  0.00  0.00    +0.000 A 
ATOM     18  C   UNL     1       2.792   4.135  20.265  0.00  0.00    +0.000 A 
ATOM     19  C   UNL     1       3.917   3.996  19.456  0.00  0.00    +0.000 A 
ATOM     20  C   UNL     1       4.393   5.089  18.712  0.00  0.00    +0.000 A 
ATOM     21  C   UNL     1       3.744   6.335  18.800  0.00  0.00    +0.000 A 
BRANCH  20  22
ATOM     22  N   UNL     1       5.515   4.932  17.856  0.00  0.00    +0.000 N 
ATOM     23  C   UNL     1       5.592   5.123  16.495  0.00  0.00    +0.000 A 
ATOM     24  C   UNL     1       6.913   4.910  16.187  0.00  0.00    +0.000 A 
ATOM     25  N   UNL     1       7.596   4.586  17.318  0.00  0.00    +0.000 NA
ATOM     26  N   UNL     1       6.740   4.600  18.332  0.00  0.00    +0.000 NA
ENDBRANCH  20  22
ENDBRANCH   2  16
TORSDOF 4
ENDMDL
MODEL 8
REMARK VINA RESULT:      -7.7      2.795      3.175
REMARK  Name = 
REMARK  4 active torsions:
REMARK  status: ('A' for Active; 'I' for Inactive)
REMARK    1  A    between atoms: C_2  and  C_15
REMARK    2  A    between atoms: N_3  and  C_4
REMARK    3  A    between atoms: C_8  and  N_9
REMARK    4  A    between atoms: C_19  and  N_20
REMARK                            x       y       z     vdW  Elec       q    Type
REMARK                         _______ _______ _______ _____ _____    ______ ____
ROOT
ATOM      1  O   UNL     1       1.871   8.337  19.033  0.00  0.00    +0.000 OA
ATOM      2  C   UNL     1       1.866   7.593  20.011  0.00  0.00    +0.000 C 
ATOM      3  N   UNL     1       1.351   7.885  21.264  0.00  0.00    +0.000 N 
ATOM      4  H   UNL     1       1.561   7.247  22.018  0.00  0.00    +0.000 HD
ENDROOT
BRANCH   3   5
ATOM      5  C   UNL     1       0.678   9.084  21.616  0.00  0.00    +0.000 A 
ATOM      6  C   UNL     1      -0.084   9.213  22.779  0.00  0.00    +0.000 A 
ATOM      7  C   UNL     1      -0.738  10.406  23.078  0.00  0.00    +0.000 A 
ATOM      8  C   UNL     1      -0.630  11.497  22.223  0.00  0.00    +0.000 A 
ATOM      9  C   UNL     1       0.141  11.405  21.056  0.00  0.00    +0.000 A 
ATOM     10  C   UNL     1       0.792  10.191  20.758  0.00  0.00    +0.000 A 
BRANCH   9  11
ATOM     11  N   UNL     1       0.260  12.535  20.194  0.00  0.00    +0.000 N 
ATOM     12  C   UNL     1      -0.679  13.517  19.959  0.00  0.00    +0.000 A 
ATOM     13  C   UNL     1      -0.111  14.382  19.052  0.00  0.00    +0.000 A 
ATOM     14  N   UNL     1       1.145  13.975  18.715  0.00  0.00    +0.000 NA
ATOM     15  C   UNL     1       1.342  12.874  19.408  0.00  0.00    +0.000 A 
ENDBRANCH   9  11
ENDBRANCH   3   5
BRANCH   2  16
ATOM     16  C   UNL     1       2.554   6.283  19.859  0.00  0.00    +0.000 A 
ATOM     17  C   UNL     1       1.942   5.173  20.460  0.00  0.00    +0.000 A 
ATOM     18  C   UNL     1       2.543   3.919  20.408  0.00  0.00    +0.000 A 
ATOM     19  C   UNL     1       3.758   3.759  19.746  0.00  0.00    +0.000 A 
ATOM     20  C   UNL     1       4.378   4.859  19.131  0.00  0.00    +0.000 A 
ATOM     21  C   UNL     1       3.781   6.133  19.202  0.00  0.00    +0.000 A 
BRANCH  20  22
ATOM     22  N   UNL     1       5.595   4.685  18.421  0.00  0.00    +0.000 N 
ATOM     23  C   UNL     1       5.791   4.578  17.063  0.00  0.00    +0.000 A 
ATOM     24  C   UNL     1       7.154   4.500  16.912  0.00  0.00    +0.000 A 
ATOM     25  N   UNL     1       7.749   4.540  18.135  0.00  0.00    +0.000 NA
ATOM     26  N   UNL     1       6.795   4.652  19.052  0.00  0.00    +0.000 NA
ENDBRANCH  20  22
ENDBRANCH   2  16
TORSDOF 4
ENDMDL
MODEL 9
REMARK VINA RESULT:      -7.7      1.976      3.236
REMARK  Name = 
REMARK  4 active torsions:
REMARK  status: ('A' for Active; 'I' for Inactive)
REMARK    1  A    between atoms: C_2  and  C_15
REMARK    2  A    between atoms: N_3  and  C_4
REMARK    3  A    between atoms: C_8  and  N_9
REMARK    4  A    between atoms: C_19  and  N_20
REMARK                            x       y       z     vdW  Elec       q    Type
REMARK                         _______ _______ _______ _____ _____    ______ ____
ROOT
ATOM      1  O   UNL     1       2.173   9.490  17.289  0.00  0.00    +0.000 OA
ATOM      2  C   UNL     1       1.898   8.757  18.236  0.00  0.00    +0.000 C 
ATOM      3  N   UNL     1       0.936   8.994  19.206  0.00  0.00    +0.000 N 
ATOM      4  H   UNL     1       0.928   8.390  20.016  0.00  0.00    +0.000 HD
ENDROOT
BRANCH   3   5
ATOM      5  C   UNL     1       0.054  10.105  19.234  0.00  0.00    +0.000 A 
ATOM      6  C   UNL     1      -0.914  10.330  18.253  0.00  0.00    +0.000 A 
ATOM      7  C   UNL     1      -1.751  11.441  18.314  0.00  0.00    +0.000 A 
ATOM      8  C   UNL     1      -1.643  12.343  19.368  0.00  0.00    +0.000 A 
ATOM      9  C   UNL     1      -0.692  12.135  20.378  0.00  0.00    +0.000 A 
ATOM     10  C   UNL     1       0.156  11.012  20.302  0.00  0.00    +0.000 A 
BRANCH   9  11
ATOM     11  N   UNL     1      -0.600  13.055  21.463  0.00  0.00    +0.000 N 
ATOM     12  C   UNL     1      -1.478  13.207  22.515  0.00  0.00    +0.000 A 
ATOM     13  C   UNL     1      -0.971  14.220  23.296  0.00  0.00    +0.000 A 
ATOM     14  N   UNL     1       0.189  14.704  22.770  0.00  0.00    +0.000 NA
ATOM     15  C   UNL     1       0.387  13.995  21.680  0.00  0.00    +0.000 A 
ENDBRANCH   9  11
ENDBRANCH   3   5
BRANCH   2  16
ATOM     16  C   UNL     1       2.733   7.539  18.405  0.00  0.00    +0.000 A 
ATOM     17  C   UNL     1       2.464   6.736  19.524  0.00  0.00    +0.000 A 
ATOM     18  C   UNL     1       3.230   5.604  19.783  0.00  0.00    +0.000 A 
ATOM     19  C   UNL     1       4.269   5.257  18.923  0.00  0.00    +0.000 A 
ATOM     20  C   UNL     1       4.545   6.046  17.793  0.00  0.00    +0.000 A 
ATOM     21  C   UNL     1       3.783   7.203  17.541  0.00  0.00    +0.000 A 
BRANCH  20  22
ATOM     22  N   UNL     1       5.577   5.667  16.896  0.00  0.00    +0.000 N 
ATOM     23  C   UNL     1       5.703   4.502  16.173  0.00  0.00    +0.000 A 
ATOM     24  C   UNL     1       6.835   4.682  15.415  0.00  0.00    +0.000 A 
ATOM     25  N   UNL     1       7.374   5.901  15.689  0.00  0.00    +0.000 NA
ATOM     26  N   UNL     1       6.605   6.497  16.592  0.00  0.00    +0.000 NA
ENDBRANCH  20  22
ENDBRANCH   2  16
TORSDOF 4
ENDMDL
