MODEL 1
REMARK VINA RESULT:      -9.2      0.000      0.000
REMARK  Name = 
REMARK  6 active torsions:
REMARK  status: ('A' for Active; 'I' for Inactive)
REMARK    1  A    between atoms: C_1  and  C_2
REMARK    2  A    between atoms: C_4  and  N_5
REMARK    3  A    between atoms: C_7  and  C_8
REMARK    4  A    between atoms: C_10  and  C_11
REMARK    5  A    between atoms: C_11  and  O_12
REMARK    6  A    between atoms: O_12  and  C_13
REMARK                            x       y       z     vdW  Elec       q    Type
REMARK                         _______ _______ _______ _____ _____    ______ ____
ROOT
ATOM      1  N   UNL     1       5.186   4.419  17.977  0.00  0.00    +0.000 N 
ATOM      2  C   UNL     1       6.445   4.380  18.685  0.00  0.00    +0.000 C 
ATOM      3  C   UNL     1       7.467   4.868  17.670  0.00  0.00    +0.000 C 
ATOM      4  C   UNL     1       6.884   4.418  16.340  0.00  0.00    +0.000 C 
ATOM      5  C   UNL     1       5.394   4.421  16.591  0.00  0.00    +0.000 C 
ATOM      6  O   UNL     1       4.576   4.356  15.685  0.00  0.00    +0.000 OA
ENDROOT
BRANCH   1  10
ATOM      7  C   UNL     1       0.781   2.192  18.663  0.00  0.00    +0.000 C 
ATOM      8  C   UNL     1       1.758   3.278  18.988  0.00  0.00    +0.000 A 
ATOM      9  C   UNL     1       2.997   3.355  18.332  0.00  0.00    +0.000 A 
ATOM     10  C   UNL     1       3.930   4.357  18.636  0.00  0.00    +0.000 A 
ATOM     11  C   UNL     1       3.584   5.307  19.610  0.00  0.00    +0.000 A 
ATOM     12  C   UNL     1       2.351   5.246  20.266  0.00  0.00    +0.000 A 
ATOM     13  C   UNL     1       1.451   4.237  19.953  0.00  0.00    +0.000 A 
ATOM     14  F   UNL     1       0.275   4.190  20.592  0.00  0.00    +0.000 F 
ENDBRANCH   1  10
BRANCH   3  15
ATOM     15  C   UNL     1       7.649   6.341  17.766  0.00  0.00    +0.000 A 
ATOM     16  N   UNL     1       8.252   7.026  18.710  0.00  0.00    +0.000 NA
ATOM     17  C   UNL     1       8.146   8.314  18.239  0.00  0.00    +0.000 A 
ATOM     18  N   UNL     1       7.473   8.437  17.086  0.00  0.00    +0.000 NA
ATOM     19  O   UNL     1       7.140   7.123  16.770  0.00  0.00    +0.000 OA
BRANCH  17  20
ATOM     20  C   UNL     1       8.722   9.480  18.959  0.00  0.00    +0.000 C 
BRANCH  20  21
ATOM     21  O   UNL     1       9.228  10.451  18.037  0.00  0.00    +0.000 OA
BRANCH  21  22
ATOM     22  C   UNL     1      10.233  11.260  18.489  0.00  0.00    +0.000 A 
ATOM     23  C   UNL     1      10.658  11.374  19.813  0.00  0.00    +0.000 A 
ATOM     24  C   UNL     1      11.707  12.235  20.141  0.00  0.00    +0.000 A 
ATOM     25  C   UNL     1      12.333  12.988  19.148  0.00  0.00    +0.000 A 
ATOM     26  C   UNL     1      11.906  12.884  17.826  0.00  0.00    +0.000 A 
ATOM     27  C   UNL     1      10.858  12.023  17.499  0.00  0.00    +0.000 A 
ENDBRANCH  21  22
ENDBRANCH  20  21
ENDBRANCH  17  20
ENDBRANCH   3  15
TORSDOF 5
ENDMDL
MODEL 2
REMARK VINA RESULT:      -9.0      0.815      1.334
REMARK  Name = 
REMARK  6 active torsions:
REMARK  status: ('A' for Active; 'I' for Inactive)
REMARK    1  A    between atoms: C_1  and  C_2
REMARK    2  A    between atoms: C_4  and  N_5
REMARK    3  A    between atoms: C_7  and  C_8
REMARK    4  A    between atoms: C_10  and  C_11
REMARK    5  A    between atoms: C_11  and  O_12
REMARK    6  A    between atoms: O_12  and  C_13
REMARK                            x       y       z     vdW  Elec       q    Type
REMARK                         _______ _______ _______ _____ _____    ______ ____
ROOT
ATOM      1  N   UNL     1       5.277   4.341  17.880  0.00  0.00    +0.000 N 
ATOM      2  C   UNL     1       6.494   4.369  18.659  0.00  0.00    +0.000 C 
ATOM      3  C   UNL     1       7.554   4.870  17.691  0.00  0.00    +0.000 C 
ATOM      4  C   UNL     1       7.066   4.364  16.342  0.00  0.00    +0.000 C 
ATOM      5  C   UNL     1       5.565   4.315  16.509  0.00  0.00    +0.000 C 
ATOM      6  O   UNL     1       4.804   4.196  15.560  0.00  0.00    +0.000 OA
ENDROOT
BRANCH   1  10
ATOM      7  C   UNL     1       2.311   2.692  21.529  0.00  0.00    +0.000 C 
ATOM      8  C   UNL     1       2.512   3.447  20.252  0.00  0.00    +0.000 A 
ATOM      9  C   UNL     1       3.780   3.532  19.656  0.00  0.00    +0.000 A 
ATOM     10  C   UNL     1       3.989   4.249  18.468  0.00  0.00    +0.000 A 
ATOM     11  C   UNL     1       2.882   4.871  17.870  0.00  0.00    +0.000 A 
ATOM     12  C   UNL     1       1.612   4.788  18.449  0.00  0.00    +0.000 A 
ATOM     13  C   UNL     1       1.436   4.081  19.630  0.00  0.00    +0.000 A 
ATOM     14  F   UNL     1       0.215   4.013  20.174  0.00  0.00    +0.000 F 
ENDBRANCH   1  10
BRANCH   3  15
ATOM     15  C   UNL     1       7.676   6.351  17.755  0.00  0.00    +0.000 A 
ATOM     16  N   UNL     1       8.335   7.075  18.630  0.00  0.00    +0.000 NA
ATOM     17  C   UNL     1       8.124   8.351  18.160  0.00  0.00    +0.000 A 
ATOM     18  N   UNL     1       7.338   8.428  17.078  0.00  0.00    +0.000 NA
ATOM     19  O   UNL     1       7.037   7.096  16.807  0.00  0.00    +0.000 OA
BRANCH  17  20
ATOM     20  C   UNL     1       8.713   9.551  18.810  0.00  0.00    +0.000 C 
BRANCH  20  21
ATOM     21  O   UNL     1       9.214  10.468  17.832  0.00  0.00    +0.000 OA
BRANCH  21  22
ATOM     22  C   UNL     1      10.004  11.484  18.293  0.00  0.00    +0.000 A 
ATOM     23  C   UNL     1      10.214  12.709  17.658  0.00  0.00    +0.000 A 
ATOM     24  C   UNL     1      11.043  13.668  18.243  0.00  0.00    +0.000 A 
ATOM     25  C   UNL     1      11.667  13.407  19.462  0.00  0.00    +0.000 A 
ATOM     26  C   UNL     1      11.467  12.182  20.095  0.00  0.00    +0.000 A 
ATOM     27  C   UNL     1      10.639  11.224  19.511  0.00  0.00    +0.000 A 
ENDBRANCH  21  22
ENDBRANCH  20  21
ENDBRANCH  17  20
ENDBRANCH   3  15
TORSDOF 5
ENDMDL
MODEL 3
REMARK VINA RESULT:      -9.0      0.625      1.436
REMARK  Name = 
REMARK  6 active torsions:
REMARK  status: ('A' for Active; 'I' for Inactive)
REMARK    1  A    between atoms: C_1  and  C_2
REMARK    2  A    between atoms: C_4  and  N_5
REMARK    3  A    between atoms: C_7  and  C_8
REMARK    4  A    between atoms: C_10  and  C_11
REMARK    5  A    between atoms: C_11  and  O_12
REMARK    6  A    between atoms: O_12  and  C_13
REMARK                            x       y       z     vdW  Elec       q    Type
REMARK                         _______ _______ _______ _____ _____    ______ ____
ROOT
ATOM      1  N   UNL     1       5.342   4.671  18.249  0.00  0.00    +0.000 N 
ATOM      2  C   UNL     1       6.579   4.707  18.994  0.00  0.00    +0.000 C 
ATOM      3  C   UNL     1       7.626   5.126  17.975  0.00  0.00    +0.000 C 
ATOM      4  C   UNL     1       7.089   4.563  16.668  0.00  0.00    +0.000 C 
ATOM      5  C   UNL     1       5.593   4.565  16.874  0.00  0.00    +0.000 C 
ATOM      6  O   UNL     1       4.805   4.416  15.952  0.00  0.00    +0.000 OA
ENDROOT
BRANCH   1  10
ATOM      7  C   UNL     1       1.632   7.048  20.575  0.00  0.00    +0.000 C 
ATOM      8  C   UNL     1       2.231   5.795  20.018  0.00  0.00    +0.000 A 
ATOM      9  C   UNL     1       3.497   5.808  19.413  0.00  0.00    +0.000 A 
ATOM     10  C   UNL     1       4.067   4.646  18.872  0.00  0.00    +0.000 A 
ATOM     11  C   UNL     1       3.340   3.449  18.968  0.00  0.00    +0.000 A 
ATOM     12  C   UNL     1       2.081   3.420  19.576  0.00  0.00    +0.000 A 
ATOM     13  C   UNL     1       1.537   4.587  20.093  0.00  0.00    +0.000 A 
ATOM     14  F   UNL     1       0.329   4.545  20.669  0.00  0.00    +0.000 F 
ENDBRANCH   1  10
BRANCH   3  15
ATOM     15  C   UNL     1       7.788   6.605  17.956  0.00  0.00    +0.000 A 
ATOM     16  N   UNL     1       8.422   7.364  18.820  0.00  0.00    +0.000 NA
ATOM     17  C   UNL     1       8.274   8.613  18.263  0.00  0.00    +0.000 A 
ATOM     18  N   UNL     1       7.547   8.644  17.138  0.00  0.00    +0.000 NA
ATOM     19  O   UNL     1       7.222   7.306  16.932  0.00  0.00    +0.000 OA
BRANCH  17  20
ATOM     20  C   UNL     1       8.863   9.835  18.871  0.00  0.00    +0.000 C 
BRANCH  20  21
ATOM     21  O   UNL     1       9.477  10.657  17.872  0.00  0.00    +0.000 OA
BRANCH  21  22
ATOM     22  C   UNL     1      10.410  11.555  18.307  0.00  0.00    +0.000 A 
ATOM     23  C   UNL     1      11.196  11.428  19.454  0.00  0.00    +0.000 A 
ATOM     24  C   UNL     1      12.122  12.420  19.782  0.00  0.00    +0.000 A 
ATOM     25  C   UNL     1      12.266  13.542  18.968  0.00  0.00    +0.000 A 
ATOM     26  C   UNL     1      11.479  13.677  17.827  0.00  0.00    +0.000 A 
ATOM     27  C   UNL     1      10.554  12.687  17.500  0.00  0.00    +0.000 A 
ENDBRANCH  21  22
ENDBRANCH  20  21
ENDBRANCH  17  20
ENDBRANCH   3  15
TORSDOF 5
ENDMDL
MODEL 4
REMARK VINA RESULT:      -8.8      1.117      1.612
REMARK  Name = 
REMARK  6 active torsions:
REMARK  status: ('A' for Active; 'I' for Inactive)
REMARK    1  A    between atoms: C_1  and  C_2
REMARK    2  A    between atoms: C_4  and  N_5
REMARK    3  A    between atoms: C_7  and  C_8
REMARK    4  A    between atoms: C_10  and  C_11
REMARK    5  A    between atoms: C_11  and  O_12
REMARK    6  A    between atoms: O_12  and  C_13
REMARK                            x       y       z     vdW  Elec       q    Type
REMARK                         _______ _______ _______ _____ _____    ______ ____
ROOT
ATOM      1  N   UNL     1       5.339   4.645  18.321  0.00  0.00    +0.000 N 
ATOM      2  C   UNL     1       6.513   4.848  19.139  0.00  0.00    +0.000 C 
ATOM      3  C   UNL     1       7.604   5.228  18.151  0.00  0.00    +0.000 C 
ATOM      4  C   UNL     1       7.203   4.491  16.883  0.00  0.00    +0.000 C 
ATOM      5  C   UNL     1       5.699   4.409  16.987  0.00  0.00    +0.000 C 
ATOM      6  O   UNL     1       4.991   4.107  16.037  0.00  0.00    +0.000 OA
ENDROOT
BRANCH   1  10
ATOM      7  C   UNL     1       0.969   2.303  18.814  0.00  0.00    +0.000 C 
ATOM      8  C   UNL     1       1.869   3.462  19.112  0.00  0.00    +0.000 A 
ATOM      9  C   UNL     1       3.164   3.525  18.575  0.00  0.00    +0.000 A 
ATOM     10  C   UNL     1       4.026   4.596  18.857  0.00  0.00    +0.000 A 
ATOM     11  C   UNL     1       3.550   5.626  19.683  0.00  0.00    +0.000 A 
ATOM     12  C   UNL     1       2.259   5.579  20.218  0.00  0.00    +0.000 A 
ATOM     13  C   UNL     1       1.432   4.502  19.931  0.00  0.00    +0.000 A 
ATOM     14  F   UNL     1       0.199   4.469  20.454  0.00  0.00    +0.000 F 
ENDBRANCH   1  10
BRANCH   3  15
ATOM     15  C   UNL     1       7.674   6.704  17.978  0.00  0.00    +0.000 A 
ATOM     16  N   UNL     1       8.458   7.559  18.593  0.00  0.00    +0.000 NA
ATOM     17  C   UNL     1       8.107   8.748  17.996  0.00  0.00    +0.000 A 
ATOM     18  N   UNL     1       7.124   8.653  17.090  0.00  0.00    +0.000 NA
ATOM     19  O   UNL     1       6.833   7.292  17.077  0.00  0.00    +0.000 OA
BRANCH  17  20
ATOM     20  C   UNL     1       8.759  10.039  18.339  0.00  0.00    +0.000 C 
BRANCH  20  21
ATOM     21  O   UNL     1       9.162  10.058  19.712  0.00  0.00    +0.000 OA
BRANCH  21  22
ATOM     22  C   UNL     1       9.526  11.271  20.226  0.00  0.00    +0.000 A 
ATOM     23  C   UNL     1      10.406  12.179  19.636  0.00  0.00    +0.000 A 
ATOM     24  C   UNL     1      10.688  13.393  20.266  0.00  0.00    +0.000 A 
ATOM     25  C   UNL     1      10.094  13.703  21.489  0.00  0.00    +0.000 A 
ATOM     26  C   UNL     1       9.221  12.797  22.086  0.00  0.00    +0.000 A 
ATOM     27  C   UNL     1       8.940  11.584  21.456  0.00  0.00    +0.000 A 
ENDBRANCH  21  22
ENDBRANCH  20  21
ENDBRANCH  17  20
ENDBRANCH   3  15
TORSDOF 5
ENDMDL
MODEL 5
REMARK VINA RESULT:      -8.8      1.138      1.346
REMARK  Name = 
REMARK  6 active torsions:
REMARK  status: ('A' for Active; 'I' for Inactive)
REMARK    1  A    between atoms: C_1  and  C_2
REMARK    2  A    between atoms: C_4  and  N_5
REMARK    3  A    between atoms: C_7  and  C_8
REMARK    4  A    between atoms: C_10  and  C_11
REMARK    5  A    between atoms: C_11  and  O_12
REMARK    6  A    between atoms: O_12  and  C_13
REMARK                            x       y       z     vdW  Elec       q    Type
REMARK                         _______ _______ _______ _____ _____    ______ ____
ROOT
ATOM      1  N   UNL     1       5.391   4.837  18.535  0.00  0.00    +0.000 N 
ATOM      2  C   UNL     1       6.609   4.929  19.306  0.00  0.00    +0.000 C 
ATOM      3  C   UNL     1       7.685   5.253  18.282  0.00  0.00    +0.000 C 
ATOM      4  C   UNL     1       7.177   4.583  17.015  0.00  0.00    +0.000 C 
ATOM      5  C   UNL     1       5.676   4.612  17.181  0.00  0.00    +0.000 C 
ATOM      6  O   UNL     1       4.909   4.389  16.255  0.00  0.00    +0.000 OA
ENDROOT
BRANCH   1  10
ATOM      7  C   UNL     1       1.675   2.524  20.916  0.00  0.00    +0.000 C 
ATOM      8  C   UNL     1       2.261   3.754  20.295  0.00  0.00    +0.000 A 
ATOM      9  C   UNL     1       3.531   3.725  19.697  0.00  0.00    +0.000 A 
ATOM     10  C   UNL     1       4.101   4.872  19.125  0.00  0.00    +0.000 A 
ATOM     11  C   UNL     1       3.355   6.061  19.148  0.00  0.00    +0.000 A 
ATOM     12  C   UNL     1       2.086   6.102  19.734  0.00  0.00    +0.000 A 
ATOM     13  C   UNL     1       1.551   4.954  20.302  0.00  0.00    +0.000 A 
ATOM     14  F   UNL     1       0.336   5.009  20.863  0.00  0.00    +0.000 F 
ENDBRANCH   1  10
BRANCH   3  15
ATOM     15  C   UNL     1       7.859   6.724  18.141  0.00  0.00    +0.000 A 
ATOM     16  N   UNL     1       8.481   7.550  18.951  0.00  0.00    +0.000 NA
ATOM     17  C   UNL     1       8.355   8.748  18.287  0.00  0.00    +0.000 A 
ATOM     18  N   UNL     1       7.652   8.688  17.148  0.00  0.00    +0.000 NA
ATOM     19  O   UNL     1       7.320   7.340  17.049  0.00  0.00    +0.000 OA
BRANCH  17  20
ATOM     20  C   UNL     1       8.941  10.014  18.802  0.00  0.00    +0.000 C 
BRANCH  20  21
ATOM     21  O   UNL     1       8.582  11.119  17.967  0.00  0.00    +0.000 OA
BRANCH  21  22
ATOM     22  C   UNL     1       9.502  12.123  17.851  0.00  0.00    +0.000 A 
ATOM     23  C   UNL     1       9.225  13.492  17.860  0.00  0.00    +0.000 A 
ATOM     24  C   UNL     1      10.263  14.417  17.740  0.00  0.00    +0.000 A 
ATOM     25  C   UNL     1      11.581  13.981  17.608  0.00  0.00    +0.000 A 
ATOM     26  C   UNL     1      11.861  12.617  17.590  0.00  0.00    +0.000 A 
ATOM     27  C   UNL     1      10.823  11.692  17.710  0.00  0.00    +0.000 A 
ENDBRANCH  21  22
ENDBRANCH  20  21
ENDBRANCH  17  20
ENDBRANCH   3  15
TORSDOF 5
ENDMDL
MODEL 6
REMARK VINA RESULT:      -8.7      0.960      1.048
REMARK  Name = 
REMARK  6 active torsions:
REMARK  status: ('A' for Active; 'I' for Inactive)
REMARK    1  A    between atoms: C_1  and  C_2
REMARK    2  A    between atoms: C_4  and  N_5
REMARK    3  A    between atoms: C_7  and  C_8
REMARK    4  A    between atoms: C_10  and  C_11
REMARK    5  A    between atoms: C_11  and  O_12
REMARK    6  A    between atoms: O_12  and  C_13
REMARK                            x       y       z     vdW  Elec       q    Type
REMARK                         _______ _______ _______ _____ _____    ______ ____
ROOT
ATOM      1  N   UNL     1       5.379   4.870  18.458  0.00  0.00    +0.000 N 
ATOM      2  C   UNL     1       6.606   4.950  19.217  0.00  0.00    +0.000 C 
ATOM      3  C   UNL     1       7.669   5.294  18.185  0.00  0.00    +0.000 C 
ATOM      4  C   UNL     1       7.146   4.647  16.912  0.00  0.00    +0.000 C 
ATOM      5  C   UNL     1       5.647   4.670  17.097  0.00  0.00    +0.000 C 
ATOM      6  O   UNL     1       4.870   4.464  16.177  0.00  0.00    +0.000 OA
ENDROOT
BRANCH   1  10
ATOM      7  C   UNL     1       1.693   2.509  20.839  0.00  0.00    +0.000 C 
ATOM      8  C   UNL     1       2.271   3.751  20.235  0.00  0.00    +0.000 A 
ATOM      9  C   UNL     1       3.533   3.734  19.621  0.00  0.00    +0.000 A 
ATOM     10  C   UNL     1       4.096   4.893  19.065  0.00  0.00    +0.000 A 
ATOM     11  C   UNL     1       3.350   6.081  19.120  0.00  0.00    +0.000 A 
ATOM     12  C   UNL     1       2.088   6.109  19.722  0.00  0.00    +0.000 A 
ATOM     13  C   UNL     1       1.561   4.950  20.274  0.00  0.00    +0.000 A 
ATOM     14  F   UNL     1       0.352   4.994  20.851  0.00  0.00    +0.000 F 
ENDBRANCH   1  10
BRANCH   3  15
ATOM     15  C   UNL     1       7.840   6.767  18.069  0.00  0.00    +0.000 A 
ATOM     16  N   UNL     1       8.492   7.576  18.873  0.00  0.00    +0.000 NA
ATOM     17  C   UNL     1       8.343   8.788  18.240  0.00  0.00    +0.000 A 
ATOM     18  N   UNL     1       7.599   8.752  17.125  0.00  0.00    +0.000 NA
ATOM     19  O   UNL     1       7.262   7.406  17.011  0.00  0.00    +0.000 OA
BRANCH  17  20
ATOM     20  C   UNL     1       8.949  10.042  18.759  0.00  0.00    +0.000 C 
BRANCH  20  21
ATOM     21  O   UNL     1       9.798  10.643  17.777  0.00  0.00    +0.000 OA
BRANCH  21  22
ATOM     22  C   UNL     1      10.509  11.742  18.172  0.00  0.00    +0.000 A 
ATOM     23  C   UNL     1      11.701  11.727  18.898  0.00  0.00    +0.000 A 
ATOM     24  C   UNL     1      12.333  12.927  19.232  0.00  0.00    +0.000 A 
ATOM     25  C   UNL     1      11.776  14.145  18.844  0.00  0.00    +0.000 A 
ATOM     26  C   UNL     1      10.583  14.164  18.127  0.00  0.00    +0.000 A 
ATOM     27  C   UNL     1       9.952  12.966  17.793  0.00  0.00    +0.000 A 
ENDBRANCH  21  22
ENDBRANCH  20  21
ENDBRANCH  17  20
ENDBRANCH   3  15
TORSDOF 5
ENDMDL
MODEL 7
REMARK VINA RESULT:      -8.6      1.104      1.841
REMARK  Name = 
REMARK  6 active torsions:
REMARK  status: ('A' for Active; 'I' for Inactive)
REMARK    1  A    between atoms: C_1  and  C_2
REMARK    2  A    between atoms: C_4  and  N_5
REMARK    3  A    between atoms: C_7  and  C_8
REMARK    4  A    between atoms: C_10  and  C_11
REMARK    5  A    between atoms: C_11  and  O_12
REMARK    6  A    between atoms: O_12  and  C_13
REMARK                            x       y       z     vdW  Elec       q    Type
REMARK                         _______ _______ _______ _____ _____    ______ ____
ROOT
ATOM      1  N   UNL     1       5.339   4.598  18.438  0.00  0.00    +0.000 N 
ATOM      2  C   UNL     1       6.524   4.825  19.233  0.00  0.00    +0.000 C 
ATOM      3  C   UNL     1       7.595   5.197  18.221  0.00  0.00    +0.000 C 
ATOM      4  C   UNL     1       7.180   4.436  16.972  0.00  0.00    +0.000 C 
ATOM      5  C   UNL     1       5.678   4.343  17.102  0.00  0.00    +0.000 C 
ATOM      6  O   UNL     1       4.958   4.019  16.169  0.00  0.00    +0.000 OA
ENDROOT
BRANCH   1  10
ATOM      7  C   UNL     1       1.518   6.878  20.681  0.00  0.00    +0.000 C 
ATOM      8  C   UNL     1       2.145   5.649  20.100  0.00  0.00    +0.000 A 
ATOM      9  C   UNL     1       3.439   5.687  19.559  0.00  0.00    +0.000 A 
ATOM     10  C   UNL     1       4.035   4.548  18.996  0.00  0.00    +0.000 A 
ATOM     11  C   UNL     1       3.305   3.348  19.005  0.00  0.00    +0.000 A 
ATOM     12  C   UNL     1       2.018   3.295  19.548  0.00  0.00    +0.000 A 
ATOM     13  C   UNL     1       1.449   4.440  20.088  0.00  0.00    +0.000 A 
ATOM     14  F   UNL     1       0.213   4.375  20.602  0.00  0.00    +0.000 F 
ENDBRANCH   1  10
BRANCH   3  15
ATOM     15  C   UNL     1       7.650   6.670  18.022  0.00  0.00    +0.000 A 
ATOM     16  N   UNL     1       8.397   7.549  18.650  0.00  0.00    +0.000 NA
ATOM     17  C   UNL     1       8.051   8.721  18.017  0.00  0.00    +0.000 A 
ATOM     18  N   UNL     1       7.106   8.593  17.076  0.00  0.00    +0.000 NA
ATOM     19  O   UNL     1       6.836   7.228  17.079  0.00  0.00    +0.000 OA
BRANCH  17  20
ATOM     20  C   UNL     1       8.670  10.028  18.361  0.00  0.00    +0.000 C 
BRANCH  20  21
ATOM     21  O   UNL     1       9.255   9.989  19.667  0.00  0.00    +0.000 OA
BRANCH  21  22
ATOM     22  C   UNL     1       9.598  11.191  20.220  0.00  0.00    +0.000 A 
ATOM     23  C   UNL     1       9.023  11.763  21.355  0.00  0.00    +0.000 A 
ATOM     24  C   UNL     1       9.475  12.999  21.823  0.00  0.00    +0.000 A 
ATOM     25  C   UNL     1      10.500  13.669  21.156  0.00  0.00    +0.000 A 
ATOM     26  C   UNL     1      11.071  13.106  20.018  0.00  0.00    +0.000 A 
ATOM     27  C   UNL     1      10.620  11.871  19.551  0.00  0.00    +0.000 A 
ENDBRANCH  21  22
ENDBRANCH  20  21
ENDBRANCH  17  20
ENDBRANCH   3  15
TORSDOF 5
ENDMDL
MODEL 8
REMARK VINA RESULT:      -8.6      4.827      6.753
REMARK  Name = 
REMARK  6 active torsions:
REMARK  status: ('A' for Active; 'I' for Inactive)
REMARK    1  A    between atoms: C_1  and  C_2
REMARK    2  A    between atoms: C_4  and  N_5
REMARK    3  A    between atoms: C_7  and  C_8
REMARK    4  A    between atoms: C_10  and  C_11
REMARK    5  A    between atoms: C_11  and  O_12
REMARK    6  A    between atoms: O_12  and  C_13
REMARK                            x       y       z     vdW  Elec       q    Type
REMARK                         _______ _______ _______ _____ _____    ______ ____
ROOT
ATOM      1  N   UNL     1       2.512   5.835  19.277  0.00  0.00    +0.000 N 
ATOM      2  C   UNL     1       3.365   5.285  20.306  0.00  0.00    +0.000 C 
ATOM      3  C   UNL     1       3.958   4.033  19.681  0.00  0.00    +0.000 C 
ATOM      4  C   UNL     1       2.872   3.570  18.722  0.00  0.00    +0.000 C 
ATOM      5  C   UNL     1       2.178   4.854  18.333  0.00  0.00    +0.000 C 
ATOM      6  O   UNL     1       1.410   4.922  17.384  0.00  0.00    +0.000 OA
ENDROOT
BRANCH   1  10
ATOM      7  C   UNL     1       0.356   9.567  21.776  0.00  0.00    +0.000 C 
ATOM      8  C   UNL     1       0.960   9.014  20.523  0.00  0.00    +0.000 A 
ATOM      9  C   UNL     1       1.437   7.695  20.474  0.00  0.00    +0.000 A 
ATOM     10  C   UNL     1       2.020   7.165  19.313  0.00  0.00    +0.000 A 
ATOM     11  C   UNL     1       2.100   7.990  18.180  0.00  0.00    +0.000 A 
ATOM     12  C   UNL     1       1.622   9.304  18.213  0.00  0.00    +0.000 A 
ATOM     13  C   UNL     1       1.060   9.805  19.379  0.00  0.00    +0.000 A 
ATOM     14  F   UNL     1       0.609  11.066  19.397  0.00  0.00    +0.000 F 
ENDBRANCH   1  10
BRANCH   3  15
ATOM     15  C   UNL     1       5.249   4.336  19.006  0.00  0.00    +0.000 A 
ATOM     16  N   UNL     1       5.534   4.263  17.727  0.00  0.00    +0.000 NA
ATOM     17  C   UNL     1       6.839   4.700  17.700  0.00  0.00    +0.000 A 
ATOM     18  N   UNL     1       7.359   4.986  18.902  0.00  0.00    +0.000 NA
ATOM     19  O   UNL     1       6.302   4.743  19.773  0.00  0.00    +0.000 OA
BRANCH  17  20
ATOM     20  C   UNL     1       7.614   4.830  16.439  0.00  0.00    +0.000 C 
BRANCH  20  21
ATOM     21  O   UNL     1       6.855   5.523  15.443  0.00  0.00    +0.000 OA
BRANCH  21  22
ATOM     22  C   UNL     1       6.732   4.909  14.228  0.00  0.00    +0.000 A 
ATOM     23  C   UNL     1       7.613   5.039  13.153  0.00  0.00    +0.000 A 
ATOM     24  C   UNL     1       7.374   4.346  11.964  0.00  0.00    +0.000 A 
ATOM     25  C   UNL     1       6.255   3.523  11.844  0.00  0.00    +0.000 A 
ATOM     26  C   UNL     1       5.370   3.397  12.912  0.00  0.00    +0.000 A 
ATOM     27  C   UNL     1       5.608   4.089  14.099  0.00  0.00    +0.000 A 
ENDBRANCH  21  22
ENDBRANCH  20  21
ENDBRANCH  17  20
ENDBRANCH   3  15
TORSDOF 5
ENDMDL
MODEL 9
REMARK VINA RESULT:      -8.6      5.263      7.427
REMARK  Name = 
REMARK  6 active torsions:
REMARK  status: ('A' for Active; 'I' for Inactive)
REMARK    1  A    between atoms: C_1  and  C_2
REMARK    2  A    between atoms: C_4  and  N_5
REMARK    3  A    between atoms: C_7  and  C_8
REMARK    4  A    between atoms: C_10  and  C_11
REMARK    5  A    between atoms: C_11  and  O_12
REMARK    6  A    between atoms: O_12  and  C_13
REMARK                            x       y       z     vdW  Elec       q    Type
REMARK                         _______ _______ _______ _____ _____    ______ ____
ROOT
ATOM      1  N   UNL     1       3.001   5.560  18.986  0.00  0.00    +0.000 N 
ATOM      2  C   UNL     1       4.245   5.206  19.632  0.00  0.00    +0.000 C 
ATOM      3  C   UNL     1       4.695   3.939  18.923  0.00  0.00    +0.000 C 
ATOM      4  C   UNL     1       3.386   3.281  18.514  0.00  0.00    +0.000 C 
ATOM      5  C   UNL     1       2.448   4.450  18.333  0.00  0.00    +0.000 C 
ATOM      6  O   UNL     1       1.370   4.343  17.765  0.00  0.00    +0.000 OA
ENDROOT
BRANCH   1  10
ATOM      7  C   UNL     1       0.705   8.996  21.770  0.00  0.00    +0.000 C 
ATOM      8  C   UNL     1       1.275   8.545  20.461  0.00  0.00    +0.000 A 
ATOM      9  C   UNL     1       1.853   7.274  20.326  0.00  0.00    +0.000 A 
ATOM     10  C   UNL     1       2.406   6.842  19.111  0.00  0.00    +0.000 A 
ATOM     11  C   UNL     1       2.349   7.715  18.013  0.00  0.00    +0.000 A 
ATOM     12  C   UNL     1       1.769   8.982  18.132  0.00  0.00    +0.000 A 
ATOM     13  C   UNL     1       1.240   9.387  19.350  0.00  0.00    +0.000 A 
ATOM     14  F   UNL     1       0.691  10.604  19.450  0.00  0.00    +0.000 F 
ENDBRANCH   1  10
BRANCH   3  15
ATOM     15  C   UNL     1       5.578   4.261  17.769  0.00  0.00    +0.000 A 
ATOM     16  N   UNL     1       5.233   4.521  16.529  0.00  0.00    +0.000 NA
ATOM     17  C   UNL     1       6.450   4.783  15.944  0.00  0.00    +0.000 A 
ATOM     18  N   UNL     1       7.505   4.648  16.759  0.00  0.00    +0.000 NA
ATOM     19  O   UNL     1       6.926   4.299  17.976  0.00  0.00    +0.000 OA
BRANCH  17  20
ATOM     20  C   UNL     1       6.585   5.172  14.516  0.00  0.00    +0.000 C 
BRANCH  20  21
ATOM     21  O   UNL     1       7.177   4.116  13.753  0.00  0.00    +0.000 OA
BRANCH  21  22
ATOM     22  C   UNL     1       6.377   3.505  12.828  0.00  0.00    +0.000 A 
ATOM     23  C   UNL     1       6.745   2.439  12.005  0.00  0.00    +0.000 A 
ATOM     24  C   UNL     1       5.825   1.899  11.104  0.00  0.00    +0.000 A 
ATOM     25  C   UNL     1       4.536   2.423  11.020  0.00  0.00    +0.000 A 
ATOM     26  C   UNL     1       4.167   3.492  11.834  0.00  0.00    +0.000 A 
ATOM     27  C   UNL     1       5.086   4.031  12.733  0.00  0.00    +0.000 A 
ENDBRANCH  21  22
ENDBRANCH  20  21
ENDBRANCH  17  20
ENDBRANCH   3  15
TORSDOF 5
ENDMDL
