MODEL 1
REMARK VINA RESULT:      -8.9      0.000      0.000
REMARK  Name = 
REMARK  5 active torsions:
REMARK  status: ('A' for Active; 'I' for Inactive)
REMARK    1  A    between atoms: C_1  and  C_2
REMARK    2  A    between atoms: N_7  and  C_8
REMARK    3  A    between atoms: C_8  and  C_9
REMARK    4  A    between atoms: C_14  and  C_15
REMARK    5  A    between atoms: C_15  and  N_16
REMARK                            x       y       z     vdW  Elec       q    Type
REMARK                         _______ _______ _______ _____ _____    ______ ____
ROOT
ATOM      1  C   UNL     1       0.457  15.303  18.547  0.00  0.00    +0.000 C 
ATOM      2  C   UNL     1       0.620  13.887  18.968  0.00  0.00    +0.000 A 
ATOM      3  C   UNL     1       1.425  12.860  18.405  0.00  0.00    +0.000 A 
ATOM      4  C   UNL     1       1.186  11.712  19.147  0.00  0.00    +0.000 A 
ATOM      5  N   UNL     1       1.638  10.408  19.050  0.00  0.00    +0.000 NA
ATOM      6  C   UNL     1       1.284   9.533  19.971  0.00  0.00    +0.000 A 
ATOM      7  N   UNL     1       1.709   8.181  19.946  0.00  0.00    +0.000 N 
ATOM      8  C   UNL     1       0.381  10.005  21.154  0.00  0.00    +0.000 A 
ATOM      9  C   UNL     1       0.013   9.193  22.237  0.00  0.00    +0.000 A 
ATOM     10  C   UNL     1      -0.819   9.684  23.268  0.00  0.00    +0.000 A 
ATOM     11  C   UNL     1      -1.305  10.992  23.234  0.00  0.00    +0.000 A 
ATOM     12  C   UNL     1      -0.939  11.819  22.171  0.00  0.00    +0.000 A 
ATOM     13  C   UNL     1      -0.102  11.319  21.163  0.00  0.00    +0.000 A 
ATOM     14  N   UNL     1       0.317  12.147  20.127  0.00  0.00    +0.000 N 
ATOM     15  N   UNL     1      -0.063  13.438  20.023  0.00  0.00    +0.000 NA
ATOM     16  H   UNL     1       1.290   7.574  20.635  0.00  0.00    +0.000 HD
ENDROOT
BRANCH   7  17
ATOM     17  C   UNL     1       2.325   7.373  18.845  0.00  0.00    +0.000 C 
BRANCH  17  18
ATOM     18  C   UNL     1       2.416   5.858  19.145  0.00  0.00    +0.000 A 
ATOM     19  C   UNL     1       1.774   5.527  20.366  0.00  0.00    +0.000 A 
ATOM     20  C   UNL     1       1.634   4.218  20.815  0.00  0.00    +0.000 A 
ATOM     21  C   UNL     1       2.127   3.179  20.050  0.00  0.00    +0.000 A 
ATOM     22  C   UNL     1       2.825   3.461  18.876  0.00  0.00    +0.000 A 
ATOM     23  C   UNL     1       3.057   4.787  18.411  0.00  0.00    +0.000 A 
BRANCH  23  24
ATOM     24  C   UNL     1       3.897   4.819  17.105  0.00  0.00    +0.000 C 
BRANCH  24  25
ATOM     25  N   UNL     1       5.226   4.138  17.043  0.00  0.00    +0.000 NA
ATOM     26  C   UNL     1       6.218   4.715  17.982  0.00  0.00    +0.000 C 
ATOM     27  C   UNL     1       7.463   5.471  17.448  0.00  0.00    +0.000 C 
ATOM     28  O   UNL     1       7.418   5.809  16.073  0.00  0.00    +0.000 OA
ATOM     29  C   UNL     1       7.011   4.750  15.220  0.00  0.00    +0.000 C 
ATOM     30  C   UNL     1       5.865   3.852  15.753  0.00  0.00    +0.000 C 
ENDBRANCH  24  25
ENDBRANCH  23  24
ENDBRANCH  17  18
ENDBRANCH   7  17
TORSDOF 4
ENDMDL
MODEL 2
REMARK VINA RESULT:      -8.8      2.527      8.533
REMARK  Name = 
REMARK  5 active torsions:
REMARK  status: ('A' for Active; 'I' for Inactive)
REMARK    1  A    between atoms: C_1  and  C_2
REMARK    2  A    between atoms: N_7  and  C_8
REMARK    3  A    between atoms: C_8  and  C_9
REMARK    4  A    between atoms: C_14  and  C_15
REMARK    5  A    between atoms: C_15  and  N_16
REMARK                            x       y       z     vdW  Elec       q    Type
REMARK                         _______ _______ _______ _____ _____    ______ ____
ROOT
ATOM      1  C   UNL     1       7.728   4.416  17.527  0.00  0.00    +0.000 C 
ATOM      2  C   UNL     1       6.413   4.898  18.026  0.00  0.00    +0.000 A 
ATOM      3  C   UNL     1       5.765   6.146  17.817  0.00  0.00    +0.000 A 
ATOM      4  C   UNL     1       4.578   6.104  18.533  0.00  0.00    +0.000 A 
ATOM      5  N   UNL     1       3.565   7.024  18.745  0.00  0.00    +0.000 NA
ATOM      6  C   UNL     1       2.497   6.660  19.428  0.00  0.00    +0.000 A 
ATOM      7  N   UNL     1       1.416   7.540  19.684  0.00  0.00    +0.000 N 
ATOM      8  C   UNL     1       2.403   5.194  19.958  0.00  0.00    +0.000 A 
ATOM      9  C   UNL     1       1.283   4.666  20.618  0.00  0.00    +0.000 A 
ATOM     10  C   UNL     1       1.272   3.332  21.082  0.00  0.00    +0.000 A 
ATOM     11  C   UNL     1       2.380   2.502  20.903  0.00  0.00    +0.000 A 
ATOM     12  C   UNL     1       3.498   3.006  20.238  0.00  0.00    +0.000 A 
ATOM     13  C   UNL     1       3.487   4.329  19.772  0.00  0.00    +0.000 A 
ATOM     14  N   UNL     1       4.571   4.829  19.058  0.00  0.00    +0.000 N 
ATOM     15  N   UNL     1       5.675   4.097  18.796  0.00  0.00    +0.000 NA
ATOM     16  H   UNL     1       0.703   7.194  20.309  0.00  0.00    +0.000 HD
ENDROOT
BRANCH   7  17
ATOM     17  C   UNL     1       1.321   9.030  19.561  0.00  0.00    +0.000 C 
BRANCH  17  18
ATOM     18  C   UNL     1       0.443   9.701  20.643  0.00  0.00    +0.000 A 
ATOM     19  C   UNL     1       0.420   8.944  21.842  0.00  0.00    +0.000 A 
ATOM     20  C   UNL     1      -0.222   9.377  22.998  0.00  0.00    +0.000 A 
ATOM     21  C   UNL     1      -0.863  10.601  23.002  0.00  0.00    +0.000 A 
ATOM     22  C   UNL     1      -0.925  11.348  21.826  0.00  0.00    +0.000 A 
ATOM     23  C   UNL     1      -0.347  10.915  20.600  0.00  0.00    +0.000 A 
BRANCH  23  24
ATOM     24  C   UNL     1      -0.598  11.915  19.438  0.00  0.00    +0.000 C 
BRANCH  24  25
ATOM     25  N   UNL     1       0.254  13.135  19.293  0.00  0.00    +0.000 NA
ATOM     26  C   UNL     1       1.699  12.858  19.478  0.00  0.00    +0.000 C 
ATOM     27  C   UNL     1       2.462  13.434  20.700  0.00  0.00    +0.000 C 
ATOM     28  O   UNL     1       1.641  13.961  21.728  0.00  0.00    +0.000 OA
ATOM     29  C   UNL     1       0.607  14.820  21.272  0.00  0.00    +0.000 C 
ATOM     30  C   UNL     1      -0.107  14.388  19.966  0.00  0.00    +0.000 C 
ENDBRANCH  24  25
ENDBRANCH  23  24
ENDBRANCH  17  18
ENDBRANCH   7  17
TORSDOF 4
ENDMDL
MODEL 3
REMARK VINA RESULT:      -8.8      2.611      8.461
REMARK  Name = 
REMARK  5 active torsions:
REMARK  status: ('A' for Active; 'I' for Inactive)
REMARK    1  A    between atoms: C_1  and  C_2
REMARK    2  A    between atoms: N_7  and  C_8
REMARK    3  A    between atoms: C_8  and  C_9
REMARK    4  A    between atoms: C_14  and  C_15
REMARK    5  A    between atoms: C_15  and  N_16
REMARK                            x       y       z     vdW  Elec       q    Type
REMARK                         _______ _______ _______ _____ _____    ______ ____
ROOT
ATOM      1  C   UNL     1       6.702   4.581  15.392  0.00  0.00    +0.000 C 
ATOM      2  C   UNL     1       5.674   5.070  16.349  0.00  0.00    +0.000 A 
ATOM      3  C   UNL     1       4.958   6.297  16.363  0.00  0.00    +0.000 A 
ATOM      4  C   UNL     1       4.149   6.275  17.489  0.00  0.00    +0.000 A 
ATOM      5  N   UNL     1       3.273   7.190  18.046  0.00  0.00    +0.000 NA
ATOM      6  C   UNL     1       2.570   6.846  19.107  0.00  0.00    +0.000 A 
ATOM      7  N   UNL     1       1.649   7.723  19.733  0.00  0.00    +0.000 N 
ATOM      8  C   UNL     1       2.736   5.406  19.688  0.00  0.00    +0.000 A 
ATOM      9  C   UNL     1       1.981   4.895  20.755  0.00  0.00    +0.000 A 
ATOM     10  C   UNL     1       2.194   3.586  21.238  0.00  0.00    +0.000 A 
ATOM     11  C   UNL     1       3.168   2.762  20.671  0.00  0.00    +0.000 A 
ATOM     12  C   UNL     1       3.920   3.249  19.600  0.00  0.00    +0.000 A 
ATOM     13  C   UNL     1       3.686   4.547  19.125  0.00  0.00    +0.000 A 
ATOM     14  N   UNL     1       4.387   5.026  18.023  0.00  0.00    +0.000 N 
ATOM     15  N   UNL     1       5.322   4.297  17.377  0.00  0.00    +0.000 NA
ATOM     16  H   UNL     1       1.249   7.398  20.601  0.00  0.00    +0.000 HD
ENDROOT
BRANCH   7  17
ATOM     17  C   UNL     1       1.468   9.204  19.599  0.00  0.00    +0.000 C 
BRANCH  17  18
ATOM     18  C   UNL     1       0.580   9.837  20.697  0.00  0.00    +0.000 A 
ATOM     19  C   UNL     1       0.251   8.898  21.709  0.00  0.00    +0.000 A 
ATOM     20  C   UNL     1      -0.459   9.240  22.854  0.00  0.00    +0.000 A 
ATOM     21  C   UNL     1      -0.863  10.548  23.040  0.00  0.00    +0.000 A 
ATOM     22  C   UNL     1      -0.622  11.490  22.041  0.00  0.00    +0.000 A 
ATOM     23  C   UNL     1       0.037  11.174  20.819  0.00  0.00    +0.000 A 
BRANCH  23  24
ATOM     24  C   UNL     1       0.138  12.395  19.865  0.00  0.00    +0.000 C 
BRANCH  24  25
ATOM     25  N   UNL     1       1.471  12.970  19.510  0.00  0.00    +0.000 NA
ATOM     26  C   UNL     1       2.314  13.255  20.696  0.00  0.00    +0.000 C 
ATOM     27  C   UNL     1       2.667  14.716  21.081  0.00  0.00    +0.000 C 
ATOM     28  O   UNL     1       1.907  15.712  20.420  0.00  0.00    +0.000 OA
ATOM     29  C   UNL     1       1.788  15.528  19.017  0.00  0.00    +0.000 C 
ATOM     30  C   UNL     1       1.583  14.067  18.541  0.00  0.00    +0.000 C 
ENDBRANCH  24  25
ENDBRANCH  23  24
ENDBRANCH  17  18
ENDBRANCH   7  17
TORSDOF 4
ENDMDL
MODEL 4
REMARK VINA RESULT:      -8.7      2.427      8.654
REMARK  Name = 
REMARK  5 active torsions:
REMARK  status: ('A' for Active; 'I' for Inactive)
REMARK    1  A    between atoms: C_1  and  C_2
REMARK    2  A    between atoms: N_7  and  C_8
REMARK    3  A    between atoms: C_8  and  C_9
REMARK    4  A    between atoms: C_14  and  C_15
REMARK    5  A    between atoms: C_15  and  N_16
REMARK                            x       y       z     vdW  Elec       q    Type
REMARK                         _______ _______ _______ _____ _____    ______ ____
ROOT
ATOM      1  C   UNL     1       6.686   4.393  15.579  0.00  0.00    +0.000 C 
ATOM      2  C   UNL     1       5.652   4.912  16.514  0.00  0.00    +0.000 A 
ATOM      3  C   UNL     1       4.954   6.149  16.499  0.00  0.00    +0.000 A 
ATOM      4  C   UNL     1       4.129   6.156  17.614  0.00  0.00    +0.000 A 
ATOM      5  N   UNL     1       3.259   7.092  18.144  0.00  0.00    +0.000 NA
ATOM      6  C   UNL     1       2.537   6.775  19.201  0.00  0.00    +0.000 A 
ATOM      7  N   UNL     1       1.620   7.674  19.800  0.00  0.00    +0.000 N 
ATOM      8  C   UNL     1       2.675   5.342  19.807  0.00  0.00    +0.000 A 
ATOM      9  C   UNL     1       1.899   4.859  20.872  0.00  0.00    +0.000 A 
ATOM     10  C   UNL     1       2.087   3.555  21.378  0.00  0.00    +0.000 A 
ATOM     11  C   UNL     1       3.057   2.709  20.837  0.00  0.00    +0.000 A 
ATOM     12  C   UNL     1       3.829   3.167  19.769  0.00  0.00    +0.000 A 
ATOM     13  C   UNL     1       3.620   4.461  19.270  0.00  0.00    +0.000 A 
ATOM     14  N   UNL     1       4.343   4.913  18.171  0.00  0.00    +0.000 N 
ATOM     15  N   UNL     1       5.276   4.160  17.549  0.00  0.00    +0.000 NA
ATOM     16  H   UNL     1       1.204   7.369  20.668  0.00  0.00    +0.000 HD
ENDROOT
BRANCH   7  17
ATOM     17  C   UNL     1       1.461   9.156  19.640  0.00  0.00    +0.000 C 
BRANCH  17  18
ATOM     18  C   UNL     1       0.579   9.820  20.723  0.00  0.00    +0.000 A 
ATOM     19  C   UNL     1       0.212   8.898  21.737  0.00  0.00    +0.000 A 
ATOM     20  C   UNL     1      -0.502   9.267  22.872  0.00  0.00    +0.000 A 
ATOM     21  C   UNL     1      -0.871  10.587  23.044  0.00  0.00    +0.000 A 
ATOM     22  C   UNL     1      -0.592  11.515  22.043  0.00  0.00    +0.000 A 
ATOM     23  C   UNL     1       0.073  11.172  20.831  0.00  0.00    +0.000 A 
BRANCH  23  24
ATOM     24  C   UNL     1       0.219  12.385  19.871  0.00  0.00    +0.000 C 
BRANCH  24  25
ATOM     25  N   UNL     1       0.578  13.734  20.405  0.00  0.00    +0.000 NA
ATOM     26  C   UNL     1      -0.104  14.841  19.691  0.00  0.00    +0.000 C 
ATOM     27  C   UNL     1       0.708  15.838  18.824  0.00  0.00    +0.000 C 
ATOM     28  O   UNL     1       2.038  15.444  18.540  0.00  0.00    +0.000 OA
ATOM     29  C   UNL     1       2.767  14.977  19.665  0.00  0.00    +0.000 C 
ATOM     30  C   UNL     1       1.977  14.091  20.663  0.00  0.00    +0.000 C 
ENDBRANCH  24  25
ENDBRANCH  23  24
ENDBRANCH  17  18
ENDBRANCH   7  17
TORSDOF 4
ENDMDL
MODEL 5
REMARK VINA RESULT:      -8.7      1.751      3.030
REMARK  Name = 
REMARK  5 active torsions:
REMARK  status: ('A' for Active; 'I' for Inactive)
REMARK    1  A    between atoms: C_1  and  C_2
REMARK    2  A    between atoms: N_7  and  C_8
REMARK    3  A    between atoms: C_8  and  C_9
REMARK    4  A    between atoms: C_14  and  C_15
REMARK    5  A    between atoms: C_15  and  N_16
REMARK                            x       y       z     vdW  Elec       q    Type
REMARK                         _______ _______ _______ _____ _____    ______ ____
ROOT
ATOM      1  C   UNL     1       0.164  15.677  19.100  0.00  0.00    +0.000 C 
ATOM      2  C   UNL     1       0.398  14.217  19.256  0.00  0.00    +0.000 A 
ATOM      3  C   UNL     1       1.158  13.328  18.448  0.00  0.00    +0.000 A 
ATOM      4  C   UNL     1       1.022  12.066  19.005  0.00  0.00    +0.000 A 
ATOM      5  N   UNL     1       1.486  10.813  18.643  0.00  0.00    +0.000 NA
ATOM      6  C   UNL     1       1.249   9.784  19.433  0.00  0.00    +0.000 A 
ATOM      7  N   UNL     1       1.695   8.473  19.137  0.00  0.00    +0.000 N 
ATOM      8  C   UNL     1       0.467  10.019  20.764  0.00  0.00    +0.000 A 
ATOM      9  C   UNL     1       0.231   9.025  21.725  0.00  0.00    +0.000 A 
ATOM     10  C   UNL     1      -0.497   9.306  22.903  0.00  0.00    +0.000 A 
ATOM     11  C   UNL     1      -1.009  10.582  23.141  0.00  0.00    +0.000 A 
ATOM     12  C   UNL     1      -0.773  11.588  22.202  0.00  0.00    +0.000 A 
ATOM     13  C   UNL     1      -0.038  11.294  21.045  0.00  0.00    +0.000 A 
ATOM     14  N   UNL     1       0.253  12.298  20.127  0.00  0.00    +0.000 N 
ATOM     15  N   UNL     1      -0.161  13.574  20.282  0.00  0.00    +0.000 NA
ATOM     16  H   UNL     1       1.364   7.743  19.751  0.00  0.00    +0.000 HD
ENDROOT
BRANCH   7  17
ATOM     17  C   UNL     1       2.208   7.882  17.858  0.00  0.00    +0.000 C 
BRANCH  17  18
ATOM     18  C   UNL     1       3.450   6.977  18.030  0.00  0.00    +0.000 A 
ATOM     19  C   UNL     1       4.462   7.292  17.086  0.00  0.00    +0.000 A 
ATOM     20  C   UNL     1       5.714   6.686  17.090  0.00  0.00    +0.000 A 
ATOM     21  C   UNL     1       6.009   5.740  18.053  0.00  0.00    +0.000 A 
ATOM     22  C   UNL     1       5.023   5.350  18.958  0.00  0.00    +0.000 A 
ATOM     23  C   UNL     1       3.705   5.888  18.950  0.00  0.00    +0.000 A 
BRANCH  23  24
ATOM     24  C   UNL     1       2.796   5.249  20.035  0.00  0.00    +0.000 C 
BRANCH  24  25
ATOM     25  N   UNL     1       2.217   3.886  19.830  0.00  0.00    +0.000 NA
ATOM     26  C   UNL     1       3.100   2.801  20.322  0.00  0.00    +0.000 C 
ATOM     27  C   UNL     1       3.759   1.808  19.327  0.00  0.00    +0.000 C 
ATOM     28  O   UNL     1       3.695   2.191  17.965  0.00  0.00    +0.000 OA
ATOM     29  C   UNL     1       2.415   2.630  17.536  0.00  0.00    +0.000 C 
ATOM     30  C   UNL     1       1.627   3.507  18.542  0.00  0.00    +0.000 C 
ENDBRANCH  24  25
ENDBRANCH  23  24
ENDBRANCH  17  18
ENDBRANCH   7  17
TORSDOF 4
ENDMDL
MODEL 6
REMARK VINA RESULT:      -8.6      2.580      8.607
REMARK  Name = 
REMARK  5 active torsions:
REMARK  status: ('A' for Active; 'I' for Inactive)
REMARK    1  A    between atoms: C_1  and  C_2
REMARK    2  A    between atoms: N_7  and  C_8
REMARK    3  A    between atoms: C_8  and  C_9
REMARK    4  A    between atoms: C_14  and  C_15
REMARK    5  A    between atoms: C_15  and  N_16
REMARK                            x       y       z     vdW  Elec       q    Type
REMARK                         _______ _______ _______ _____ _____    ______ ____
ROOT
ATOM      1  C   UNL     1       6.596   4.864  14.917  0.00  0.00    +0.000 C 
ATOM      2  C   UNL     1       5.565   5.295  15.899  0.00  0.00    +0.000 A 
ATOM      3  C   UNL     1       5.015   6.584  16.130  0.00  0.00    +0.000 A 
ATOM      4  C   UNL     1       4.121   6.455  17.182  0.00  0.00    +0.000 A 
ATOM      5  N   UNL     1       3.329   7.357  17.870  0.00  0.00    +0.000 NA
ATOM      6  C   UNL     1       2.504   6.913  18.800  0.00  0.00    +0.000 A 
ATOM      7  N   UNL     1       1.657   7.770  19.544  0.00  0.00    +0.000 N 
ATOM      8  C   UNL     1       2.437   5.378  19.078  0.00  0.00    +0.000 A 
ATOM      9  C   UNL     1       1.540   4.779  19.975  0.00  0.00    +0.000 A 
ATOM     10  C   UNL     1       1.543   3.383  20.186  0.00  0.00    +0.000 A 
ATOM     11  C   UNL     1       2.445   2.558  19.513  0.00  0.00    +0.000 A 
ATOM     12  C   UNL     1       3.336   3.134  18.607  0.00  0.00    +0.000 A 
ATOM     13  C   UNL     1       3.311   4.521  18.399  0.00  0.00    +0.000 A 
ATOM     14  N   UNL     1       4.154   5.104  17.459  0.00  0.00    +0.000 N 
ATOM     15  N   UNL     1       5.035   4.391  16.725  0.00  0.00    +0.000 NA
ATOM     16  H   UNL     1       1.150   7.340  20.304  0.00  0.00    +0.000 HD
ENDROOT
BRANCH   7  17
ATOM     17  C   UNL     1       1.679   9.260  19.710  0.00  0.00    +0.000 C 
BRANCH  17  18
ATOM     18  C   UNL     1       0.692   9.794  20.775  0.00  0.00    +0.000 A 
ATOM     19  C   UNL     1       0.717   9.005  21.954  0.00  0.00    +0.000 A 
ATOM     20  C   UNL     1      -0.009   9.329  23.095  0.00  0.00    +0.000 A 
ATOM     21  C   UNL     1      -0.789  10.469  23.105  0.00  0.00    +0.000 A 
ATOM     22  C   UNL     1      -0.898  11.237  21.947  0.00  0.00    +0.000 A 
ATOM     23  C   UNL     1      -0.231  10.909  20.732  0.00  0.00    +0.000 A 
BRANCH  23  24
ATOM     24  C   UNL     1      -0.558  11.906  19.587  0.00  0.00    +0.000 C 
BRANCH  24  25
ATOM     25  N   UNL     1       0.086  13.254  19.551  0.00  0.00    +0.000 NA
ATOM     26  C   UNL     1       1.555  13.201  19.748  0.00  0.00    +0.000 C 
ATOM     27  C   UNL     1       2.202  13.796  21.026  0.00  0.00    +0.000 C 
ATOM     28  O   UNL     1       1.296  14.104  22.071  0.00  0.00    +0.000 OA
ATOM     29  C   UNL     1       0.141  14.817  21.658  0.00  0.00    +0.000 C 
ATOM     30  C   UNL     1      -0.480  14.377  20.307  0.00  0.00    +0.000 C 
ENDBRANCH  24  25
ENDBRANCH  23  24
ENDBRANCH  17  18
ENDBRANCH   7  17
TORSDOF 4
ENDMDL
MODEL 7
REMARK VINA RESULT:      -8.6      3.479      8.686
REMARK  Name = 
REMARK  5 active torsions:
REMARK  status: ('A' for Active; 'I' for Inactive)
REMARK    1  A    between atoms: C_1  and  C_2
REMARK    2  A    between atoms: N_7  and  C_8
REMARK    3  A    between atoms: C_8  and  C_9
REMARK    4  A    between atoms: C_14  and  C_15
REMARK    5  A    between atoms: C_15  and  N_16
REMARK                            x       y       z     vdW  Elec       q    Type
REMARK                         _______ _______ _______ _____ _____    ______ ____
ROOT
ATOM      1  C   UNL     1       6.750   4.079  15.677  0.00  0.00    +0.000 C 
ATOM      2  C   UNL     1       5.706   4.702  16.533  0.00  0.00    +0.000 A 
ATOM      3  C   UNL     1       5.071   5.968  16.414  0.00  0.00    +0.000 A 
ATOM      4  C   UNL     1       4.203   6.082  17.489  0.00  0.00    +0.000 A 
ATOM      5  N   UNL     1       3.360   7.089  17.925  0.00  0.00    +0.000 NA
ATOM      6  C   UNL     1       2.580   6.872  18.967  0.00  0.00    +0.000 A 
ATOM      7  N   UNL     1       1.685   7.848  19.471  0.00  0.00    +0.000 N 
ATOM      8  C   UNL     1       2.621   5.474  19.662  0.00  0.00    +0.000 A 
ATOM      9  C   UNL     1       1.779   5.094  20.718  0.00  0.00    +0.000 A 
ATOM     10  C   UNL     1       1.881   3.815  21.308  0.00  0.00    +0.000 A 
ATOM     11  C   UNL     1       2.829   2.893  20.861  0.00  0.00    +0.000 A 
ATOM     12  C   UNL     1       3.666   3.248  19.803  0.00  0.00    +0.000 A 
ATOM     13  C   UNL     1       3.543   4.518  19.220  0.00  0.00    +0.000 A 
ATOM     14  N   UNL     1       4.331   4.867  18.128  0.00  0.00    +0.000 N 
ATOM     15  N   UNL     1       5.250   4.034  17.594  0.00  0.00    +0.000 NA
ATOM     16  H   UNL     1       1.220   7.617  20.336  0.00  0.00    +0.000 HD
ENDROOT
BRANCH   7  17
ATOM     17  C   UNL     1       1.608   9.323  19.217  0.00  0.00    +0.000 C 
BRANCH  17  18
ATOM     18  C   UNL     1       0.502  10.048  20.020  0.00  0.00    +0.000 A 
ATOM     19  C   UNL     1       0.711   9.934  21.418  0.00  0.00    +0.000 A 
ATOM     20  C   UNL     1      -0.091  10.575  22.357  0.00  0.00    +0.000 A 
ATOM     21  C   UNL     1      -1.136  11.371  21.929  0.00  0.00    +0.000 A 
ATOM     22  C   UNL     1      -1.421  11.457  20.567  0.00  0.00    +0.000 A 
ATOM     23  C   UNL     1      -0.675  10.763  19.572  0.00  0.00    +0.000 A 
BRANCH  23  24
ATOM     24  C   UNL     1      -1.229  11.001  18.141  0.00  0.00    +0.000 C 
BRANCH  24  25
ATOM     25  N   UNL     1      -2.349  10.161  17.614  0.00  0.00    +0.000 NA
ATOM     26  C   UNL     1      -2.343  10.049  16.136  0.00  0.00    +0.000 C 
ATOM     27  C   UNL     1      -3.477  10.690  15.292  0.00  0.00    +0.000 C 
ATOM     28  O   UNL     1      -4.306  11.601  15.992  0.00  0.00    +0.000 OA
ATOM     29  C   UNL     1      -4.758  11.135  17.255  0.00  0.00    +0.000 C 
ATOM     30  C   UNL     1      -3.721  10.350  18.098  0.00  0.00    +0.000 C 
ENDBRANCH  24  25
ENDBRANCH  23  24
ENDBRANCH  17  18
ENDBRANCH   7  17
TORSDOF 4
ENDMDL
MODEL 8
REMARK VINA RESULT:      -8.6      2.543      8.301
REMARK  Name = 
REMARK  5 active torsions:
REMARK  status: ('A' for Active; 'I' for Inactive)
REMARK    1  A    between atoms: C_1  and  C_2
REMARK    2  A    between atoms: N_7  and  C_8
REMARK    3  A    between atoms: C_8  and  C_9
REMARK    4  A    between atoms: C_14  and  C_15
REMARK    5  A    between atoms: C_15  and  N_16
REMARK                            x       y       z     vdW  Elec       q    Type
REMARK                         _______ _______ _______ _____ _____    ______ ____
ROOT
ATOM      1  C   UNL     1       6.025   5.095  14.949  0.00  0.00    +0.000 C 
ATOM      2  C   UNL     1       5.097   5.394  16.072  0.00  0.00    +0.000 A 
ATOM      3  C   UNL     1       4.783   6.638  16.683  0.00  0.00    +0.000 A 
ATOM      4  C   UNL     1       3.893   6.364  17.711  0.00  0.00    +0.000 A 
ATOM      5  N   UNL     1       3.278   7.152  18.669  0.00  0.00    +0.000 NA
ATOM      6  C   UNL     1       2.400   6.605  19.487  0.00  0.00    +0.000 A 
ATOM      7  N   UNL     1       1.723   7.344  20.489  0.00  0.00    +0.000 N 
ATOM      8  C   UNL     1       2.068   5.087  19.332  0.00  0.00    +0.000 A 
ATOM      9  C   UNL     1       1.091   4.414  20.081  0.00  0.00    +0.000 A 
ATOM     10  C   UNL     1       0.853   3.034  19.898  0.00  0.00    +0.000 A 
ATOM     11  C   UNL     1       1.589   2.297  18.969  0.00  0.00    +0.000 A 
ATOM     12  C   UNL     1       2.557   2.952  18.206  0.00  0.00    +0.000 A 
ATOM     13  C   UNL     1       2.772   4.326  18.392  0.00  0.00    +0.000 A 
ATOM     14  N   UNL     1       3.692   5.004  17.601  0.00  0.00    +0.000 N 
ATOM     15  N   UNL     1       4.428   4.394  16.647  0.00  0.00    +0.000 NA
ATOM     16  H   UNL     1       1.158   6.805  21.129  0.00  0.00    +0.000 HD
ENDROOT
BRANCH   7  17
ATOM     17  C   UNL     1       2.007   8.700  21.059  0.00  0.00    +0.000 C 
BRANCH  17  18
ATOM     18  C   UNL     1       0.742   9.514  21.419  0.00  0.00    +0.000 A 
ATOM     19  C   UNL     1       0.392   9.362  22.785  0.00  0.00    +0.000 A 
ATOM     20  C   UNL     1      -0.651  10.063  23.381  0.00  0.00    +0.000 A 
ATOM     21  C   UNL     1      -1.386  10.959  22.629  0.00  0.00    +0.000 A 
ATOM     22  C   UNL     1      -1.122  11.091  21.267  0.00  0.00    +0.000 A 
ATOM     23  C   UNL     1      -0.114  10.344  20.595  0.00  0.00    +0.000 A 
BRANCH  23  24
ATOM     24  C   UNL     1      -0.060  10.652  19.074  0.00  0.00    +0.000 C 
BRANCH  24  25
ATOM     25  N   UNL     1       0.469  11.962  18.585  0.00  0.00    +0.000 NA
ATOM     26  C   UNL     1       1.730  12.364  19.254  0.00  0.00    +0.000 C 
ATOM     27  C   UNL     1       1.765  13.597  20.196  0.00  0.00    +0.000 C 
ATOM     28  O   UNL     1       0.497  14.095  20.582  0.00  0.00    +0.000 OA
ATOM     29  C   UNL     1      -0.426  14.247  19.514  0.00  0.00    +0.000 C 
ATOM     30  C   UNL     1      -0.416  13.124  18.445  0.00  0.00    +0.000 C 
ENDBRANCH  24  25
ENDBRANCH  23  24
ENDBRANCH  17  18
ENDBRANCH   7  17
TORSDOF 4
ENDMDL
MODEL 9
REMARK VINA RESULT:      -8.6      3.010      8.950
REMARK  Name = 
REMARK  5 active torsions:
REMARK  status: ('A' for Active; 'I' for Inactive)
REMARK    1  A    between atoms: C_1  and  C_2
REMARK    2  A    between atoms: N_7  and  C_8
REMARK    3  A    between atoms: C_8  and  C_9
REMARK    4  A    between atoms: C_14  and  C_15
REMARK    5  A    between atoms: C_15  and  N_16
REMARK                            x       y       z     vdW  Elec       q    Type
REMARK                         _______ _______ _______ _____ _____    ______ ____
ROOT
ATOM      1  C   UNL     1       7.029   4.687  15.727  0.00  0.00    +0.000 C 
ATOM      2  C   UNL     1       5.922   5.137  16.613  0.00  0.00    +0.000 A 
ATOM      3  C   UNL     1       5.172   6.343  16.586  0.00  0.00    +0.000 A 
ATOM      4  C   UNL     1       4.287   6.287  17.652  0.00  0.00    +0.000 A 
ATOM      5  N   UNL     1       3.348   7.171  18.154  0.00  0.00    +0.000 NA
ATOM      6  C   UNL     1       2.583   6.798  19.161  0.00  0.00    +0.000 A 
ATOM      7  N   UNL     1       1.595   7.641  19.727  0.00  0.00    +0.000 N 
ATOM      8  C   UNL     1       2.751   5.358  19.742  0.00  0.00    +0.000 A 
ATOM      9  C   UNL     1       1.940   4.816  20.750  0.00  0.00    +0.000 A 
ATOM     10  C   UNL     1       2.158   3.508  21.238  0.00  0.00    +0.000 A 
ATOM     11  C   UNL     1       3.192   2.719  20.734  0.00  0.00    +0.000 A 
ATOM     12  C   UNL     1       4.002   3.236  19.721  0.00  0.00    +0.000 A 
ATOM     13  C   UNL     1       3.763   4.532  19.240  0.00  0.00    +0.000 A 
ATOM     14  N   UNL     1       4.525   5.041  18.194  0.00  0.00    +0.000 N 
ATOM     15  N   UNL     1       5.523   4.345  17.609  0.00  0.00    +0.000 NA
ATOM     16  H   UNL     1       1.146   7.297  20.563  0.00  0.00    +0.000 HD
ENDROOT
BRANCH   7  17
ATOM     17  C   UNL     1       1.380   9.118  19.592  0.00  0.00    +0.000 C 
BRANCH  17  18
ATOM     18  C   UNL     1       0.560   9.748  20.742  0.00  0.00    +0.000 A 
ATOM     19  C   UNL     1       0.079   8.762  21.642  0.00  0.00    +0.000 A 
ATOM     20  C   UNL     1      -0.607   9.076  22.810  0.00  0.00    +0.000 A 
ATOM     21  C   UNL     1      -0.833  10.401  23.132  0.00  0.00    +0.000 A 
ATOM     22  C   UNL     1      -0.439  11.401  22.243  0.00  0.00    +0.000 A 
ATOM     23  C   UNL     1       0.202  11.127  21.002  0.00  0.00    +0.000 A 
BRANCH  23  24
ATOM     24  C   UNL     1       0.494  12.417  20.187  0.00  0.00    +0.000 C 
BRANCH  24  25
ATOM     25  N   UNL     1      -0.617  13.145  19.500  0.00  0.00    +0.000 NA
ATOM     26  C   UNL     1      -0.807  14.525  20.009  0.00  0.00    +0.000 C 
ATOM     27  C   UNL     1      -2.094  14.908  20.786  0.00  0.00    +0.000 C 
ATOM     28  O   UNL     1      -2.888  13.815  21.210  0.00  0.00    +0.000 OA
ATOM     29  C   UNL     1      -3.123  12.834  20.211  0.00  0.00    +0.000 C 
ATOM     30  C   UNL     1      -1.920  12.503  19.292  0.00  0.00    +0.000 C 
ENDBRANCH  24  25
ENDBRANCH  23  24
ENDBRANCH  17  18
ENDBRANCH   7  17
TORSDOF 4
ENDMDL
