MODEL 1
REMARK VINA RESULT:      -9.5      0.000      0.000
REMARK  Name = 
REMARK  4 active torsions:
REMARK  status: ('A' for Active; 'I' for Inactive)
REMARK    1  A    between atoms: C_4  and  O_5
REMARK    2  A    between atoms: O_5  and  C_6
REMARK    3  A    between atoms: N_9  and  C_10
REMARK    4  A    between atoms: C_12  and  C_13
REMARK                            x       y       z     vdW  Elec       q    Type
REMARK                         _______ _______ _______ _____ _____    ______ ____
ROOT
ATOM      1  C   UNL     1       2.840   6.527  18.562  0.00  0.00    +0.000 A 
ATOM      2  N   UNL     1       3.780   6.475  17.548  0.00  0.00    +0.000 NA
ATOM      3  C   UNL     1       4.204   5.261  17.122  0.00  0.00    +0.000 A 
ATOM      4  N   UNL     1       3.699   4.100  17.559  0.00  0.00    +0.000 NA
ATOM      5  C   UNL     1       2.836   4.128  18.554  0.00  0.00    +0.000 A 
ATOM      6  C   UNL     1       2.391   2.882  18.968  0.00  0.00    +0.000 A 
ATOM      7  C   UNL     1       1.532   2.730  20.045  0.00  0.00    +0.000 A 
ATOM      8  C   UNL     1       1.168   3.852  20.762  0.00  0.00    +0.000 A 
ATOM      9  C   UNL     1       1.617   5.111  20.352  0.00  0.00    +0.000 A 
ATOM     10  C   UNL     1       2.407   5.304  19.179  0.00  0.00    +0.000 A 
ENDROOT
BRANCH   3  11
ATOM     11  C   UNL     1       5.303   5.068  16.140  0.00  0.00    +0.000 A 
ATOM     12  C   UNL     1       5.141   4.217  15.017  0.00  0.00    +0.000 A 
ATOM     13  C   UNL     1       6.149   4.035  14.068  0.00  0.00    +0.000 A 
ATOM     14  C   UNL     1       7.336   4.710  14.256  0.00  0.00    +0.000 A 
ATOM     15  N   UNL     1       7.560   5.522  15.314  0.00  0.00    +0.000 NA
ATOM     16  C   UNL     1       6.547   5.675  16.221  0.00  0.00    +0.000 A 
ENDBRANCH   3  11
BRANCH   1  20
ATOM     17  C   UNL     1       1.092   9.506  20.135  0.00  0.00    +0.000 C 
ATOM     18  C   UNL     1       1.378   9.927  18.695  0.00  0.00    +0.000 C 
ATOM     19  C   UNL     1       1.782   8.655  17.937  0.00  0.00    +0.000 C 
ATOM     20  N   UNL     1       2.375   7.794  18.961  0.00  0.00    +0.000 N 
ATOM     21  C   UNL     1       1.640   8.056  20.216  0.00  0.00    +0.000 C 
BRANCH  17  22
ATOM     22  O   UNL     1      -0.302   9.542  20.483  0.00  0.00    +0.000 OA
BRANCH  22  26
ATOM     23  C   UNL     1      -2.015  12.869  22.367  0.00  0.00    +0.000 A 
ATOM     24  C   UNL     1      -2.062  12.794  20.976  0.00  0.00    +0.000 A 
ATOM     25  C   UNL     1      -1.465  11.718  20.299  0.00  0.00    +0.000 A 
ATOM     26  C   UNL     1      -0.834  10.697  21.010  0.00  0.00    +0.000 A 
ATOM     27  C   UNL     1      -0.757  10.804  22.404  0.00  0.00    +0.000 A 
ATOM     28  C   UNL     1      -1.346  11.881  23.082  0.00  0.00    +0.000 A 
ENDBRANCH  22  26
ENDBRANCH  17  22
ENDBRANCH   1  20
TORSDOF 4
ENDMDL
MODEL 2
REMARK VINA RESULT:      -9.4      2.472      8.733
REMARK  Name = 
REMARK  4 active torsions:
REMARK  status: ('A' for Active; 'I' for Inactive)
REMARK    1  A    between atoms: C_4  and  O_5
REMARK    2  A    between atoms: O_5  and  C_6
REMARK    3  A    between atoms: N_9  and  C_10
REMARK    4  A    between atoms: C_12  and  C_13
REMARK                            x       y       z     vdW  Elec       q    Type
REMARK                         _______ _______ _______ _____ _____    ______ ____
ROOT
ATOM      1  C   UNL     1       3.664   5.895  19.079  0.00  0.00    +0.000 A 
ATOM      2  N   UNL     1       3.156   7.113  19.493  0.00  0.00    +0.000 NA
ATOM      3  C   UNL     1       2.005   7.124  20.207  0.00  0.00    +0.000 A 
ATOM      4  N   UNL     1       1.374   6.018  20.620  0.00  0.00    +0.000 NA
ATOM      5  C   UNL     1       1.817   4.851  20.199  0.00  0.00    +0.000 A 
ATOM      6  C   UNL     1       1.085   3.761  20.643  0.00  0.00    +0.000 A 
ATOM      7  C   UNL     1       1.378   2.467  20.240  0.00  0.00    +0.000 A 
ATOM      8  C   UNL     1       2.386   2.275  19.316  0.00  0.00    +0.000 A 
ATOM      9  C   UNL     1       3.124   3.371  18.862  0.00  0.00    +0.000 A 
ATOM     10  C   UNL     1       2.918   4.697  19.349  0.00  0.00    +0.000 A 
ENDROOT
BRANCH   3  11
ATOM     11  C   UNL     1       1.285   8.366  20.594  0.00  0.00    +0.000 A 
ATOM     12  C   UNL     1       0.850   8.575  21.928  0.00  0.00    +0.000 A 
ATOM     13  C   UNL     1       0.191   9.741  22.323  0.00  0.00    +0.000 A 
ATOM     14  C   UNL     1      -0.040  10.704  21.364  0.00  0.00    +0.000 A 
ATOM     15  N   UNL     1       0.334  10.558  20.073  0.00  0.00    +0.000 NA
ATOM     16  C   UNL     1       0.978   9.402  19.725  0.00  0.00    +0.000 A 
ENDBRANCH   3  11
BRANCH   1  20
ATOM     17  C   UNL     1       6.531   5.467  16.630  0.00  0.00    +0.000 C 
ATOM     18  C   UNL     1       7.181   5.442  18.012  0.00  0.00    +0.000 C 
ATOM     19  C   UNL     1       6.043   5.284  19.029  0.00  0.00    +0.000 C 
ATOM     20  N   UNL     1       4.884   5.897  18.379  0.00  0.00    +0.000 N 
ATOM     21  C   UNL     1       5.017   5.628  16.931  0.00  0.00    +0.000 C 
BRANCH  17  22
ATOM     22  O   UNL     1       6.770   4.280  15.856  0.00  0.00    +0.000 OA
BRANCH  22  26
ATOM     23  C   UNL     1       6.916   4.226  11.669  0.00  0.00    +0.000 A 
ATOM     24  C   UNL     1       7.746   5.113  12.352  0.00  0.00    +0.000 A 
ATOM     25  C   UNL     1       7.701   5.196  13.754  0.00  0.00    +0.000 A 
ATOM     26  C   UNL     1       6.841   4.375  14.484  0.00  0.00    +0.000 A 
ATOM     27  C   UNL     1       5.983   3.518  13.784  0.00  0.00    +0.000 A 
ATOM     28  C   UNL     1       6.020   3.439  12.384  0.00  0.00    +0.000 A 
ENDBRANCH  22  26
ENDBRANCH  17  22
ENDBRANCH   1  20
TORSDOF 4
ENDMDL
MODEL 3
REMARK VINA RESULT:      -9.3      2.455      8.741
REMARK  Name = 
REMARK  4 active torsions:
REMARK  status: ('A' for Active; 'I' for Inactive)
REMARK    1  A    between atoms: C_4  and  O_5
REMARK    2  A    between atoms: O_5  and  C_6
REMARK    3  A    between atoms: N_9  and  C_10
REMARK    4  A    between atoms: C_12  and  C_13
REMARK                            x       y       z     vdW  Elec       q    Type
REMARK                         _______ _______ _______ _____ _____    ______ ____
ROOT
ATOM      1  C   UNL     1       3.573   5.914  19.045  0.00  0.00    +0.000 A 
ATOM      2  N   UNL     1       3.117   7.142  19.491  0.00  0.00    +0.000 NA
ATOM      3  C   UNL     1       2.019   7.174  20.284  0.00  0.00    +0.000 A 
ATOM      4  N   UNL     1       1.399   6.080  20.742  0.00  0.00    +0.000 NA
ATOM      5  C   UNL     1       1.791   4.905  20.294  0.00  0.00    +0.000 A 
ATOM      6  C   UNL     1       1.072   3.828  20.790  0.00  0.00    +0.000 A 
ATOM      7  C   UNL     1       1.313   2.529  20.370  0.00  0.00    +0.000 A 
ATOM      8  C   UNL     1       2.251   2.319  19.378  0.00  0.00    +0.000 A 
ATOM      9  C   UNL     1       2.974   3.401  18.871  0.00  0.00    +0.000 A 
ATOM     10  C   UNL     1       2.827   4.731  19.369  0.00  0.00    +0.000 A 
ENDROOT
BRANCH   3  11
ATOM     11  C   UNL     1       1.351   8.429  20.718  0.00  0.00    +0.000 A 
ATOM     12  C   UNL     1       0.799   9.330  19.771  0.00  0.00    +0.000 A 
ATOM     13  C   UNL     1       0.148  10.506  20.152  0.00  0.00    +0.000 A 
ATOM     14  C   UNL     1       0.058  10.781  21.499  0.00  0.00    +0.000 A 
ATOM     15  N   UNL     1       0.578   9.972  22.450  0.00  0.00    +0.000 NA
ATOM     16  C   UNL     1       1.207   8.831  22.037  0.00  0.00    +0.000 A 
ENDBRANCH   3  11
BRANCH   1  20
ATOM     17  C   UNL     1       6.275   5.373  16.435  0.00  0.00    +0.000 C 
ATOM     18  C   UNL     1       7.020   5.473  17.765  0.00  0.00    +0.000 C 
ATOM     19  C   UNL     1       5.961   5.365  18.871  0.00  0.00    +0.000 C 
ATOM     20  N   UNL     1       4.741   5.894  18.260  0.00  0.00    +0.000 N 
ATOM     21  C   UNL     1       4.781   5.517  16.832  0.00  0.00    +0.000 C 
BRANCH  17  22
ATOM     22  O   UNL     1       6.497   4.137  15.738  0.00  0.00    +0.000 OA
BRANCH  22  26
ATOM     23  C   UNL     1       7.166   4.553  11.623  0.00  0.00    +0.000 A 
ATOM     24  C   UNL     1       6.279   3.569  12.057  0.00  0.00    +0.000 A 
ATOM     25  C   UNL     1       6.056   3.365  13.428  0.00  0.00    +0.000 A 
ATOM     26  C   UNL     1       6.701   4.160  14.377  0.00  0.00    +0.000 A 
ATOM     27  C   UNL     1       7.620   5.117  13.930  0.00  0.00    +0.000 A 
ATOM     28  C   UNL     1       7.851   5.318  12.561  0.00  0.00    +0.000 A 
ENDBRANCH  22  26
ENDBRANCH  17  22
ENDBRANCH   1  20
TORSDOF 4
ENDMDL
MODEL 4
REMARK VINA RESULT:      -9.2      1.040      1.582
REMARK  Name = 
REMARK  4 active torsions:
REMARK  status: ('A' for Active; 'I' for Inactive)
REMARK    1  A    between atoms: C_4  and  O_5
REMARK    2  A    between atoms: O_5  and  C_6
REMARK    3  A    between atoms: N_9  and  C_10
REMARK    4  A    between atoms: C_12  and  C_13
REMARK                            x       y       z     vdW  Elec       q    Type
REMARK                         _______ _______ _______ _____ _____    ______ ____
ROOT
ATOM      1  C   UNL     1       2.890   6.533  18.526  0.00  0.00    +0.000 A 
ATOM      2  N   UNL     1       3.819   6.475  17.502  0.00  0.00    +0.000 NA
ATOM      3  C   UNL     1       4.246   5.259  17.086  0.00  0.00    +0.000 A 
ATOM      4  N   UNL     1       3.753   4.100  17.541  0.00  0.00    +0.000 NA
ATOM      5  C   UNL     1       2.902   4.134  18.545  0.00  0.00    +0.000 A 
ATOM      6  C   UNL     1       2.470   2.890  18.979  0.00  0.00    +0.000 A 
ATOM      7  C   UNL     1       1.624   2.745  20.068  0.00  0.00    +0.000 A 
ATOM      8  C   UNL     1       1.261   3.873  20.776  0.00  0.00    +0.000 A 
ATOM      9  C   UNL     1       1.697   5.130  20.347  0.00  0.00    +0.000 A 
ATOM     10  C   UNL     1       2.473   5.314  19.162  0.00  0.00    +0.000 A 
ENDROOT
BRANCH   3  11
ATOM     11  C   UNL     1       5.335   5.062  16.093  0.00  0.00    +0.000 A 
ATOM     12  C   UNL     1       5.141   4.255  14.943  0.00  0.00    +0.000 A 
ATOM     13  C   UNL     1       6.140   4.070  13.984  0.00  0.00    +0.000 A 
ATOM     14  C   UNL     1       7.349   4.698  14.190  0.00  0.00    +0.000 A 
ATOM     15  N   UNL     1       7.603   5.466  15.273  0.00  0.00    +0.000 NA
ATOM     16  C   UNL     1       6.600   5.623  16.189  0.00  0.00    +0.000 A 
ENDBRANCH   3  11
BRANCH   1  20
ATOM     17  C   UNL     1       1.110   9.518  20.051  0.00  0.00    +0.000 C 
ATOM     18  C   UNL     1       1.455   9.945  18.626  0.00  0.00    +0.000 C 
ATOM     19  C   UNL     1       1.877   8.674  17.876  0.00  0.00    +0.000 C 
ATOM     20  N   UNL     1       2.422   7.801  18.916  0.00  0.00    +0.000 N 
ATOM     21  C   UNL     1       1.641   8.062  20.144  0.00  0.00    +0.000 C 
BRANCH  17  22
ATOM     22  O   UNL     1      -0.296   9.563  20.346  0.00  0.00    +0.000 OA
BRANCH  22  26
ATOM     23  C   UNL     1      -2.988  11.848  18.091  0.00  0.00    +0.000 A 
ATOM     24  C   UNL     1      -2.621  10.590  17.615  0.00  0.00    +0.000 A 
ATOM     25  C   UNL     1      -1.690   9.807  18.316  0.00  0.00    +0.000 A 
ATOM     26  C   UNL     1      -1.135  10.266  19.511  0.00  0.00    +0.000 A 
ATOM     27  C   UNL     1      -1.480  11.548  19.956  0.00  0.00    +0.000 A 
ATOM     28  C   UNL     1      -2.404  12.336  19.254  0.00  0.00    +0.000 A 
ENDBRANCH  22  26
ENDBRANCH  17  22
ENDBRANCH   1  20
TORSDOF 4
ENDMDL
MODEL 5
REMARK VINA RESULT:      -9.2      1.703      2.279
REMARK  Name = 
REMARK  4 active torsions:
REMARK  status: ('A' for Active; 'I' for Inactive)
REMARK    1  A    between atoms: C_4  and  O_5
REMARK    2  A    between atoms: O_5  and  C_6
REMARK    3  A    between atoms: N_9  and  C_10
REMARK    4  A    between atoms: C_12  and  C_13
REMARK                            x       y       z     vdW  Elec       q    Type
REMARK                         _______ _______ _______ _____ _____    ______ ____
ROOT
ATOM      1  C   UNL     1       2.505   6.265  18.533  0.00  0.00    +0.000 A 
ATOM      2  N   UNL     1       3.473   6.284  17.544  0.00  0.00    +0.000 NA
ATOM      3  C   UNL     1       4.100   5.124  17.232  0.00  0.00    +0.000 A 
ATOM      4  N   UNL     1       3.775   3.937  17.758  0.00  0.00    +0.000 NA
ATOM      5  C   UNL     1       2.889   3.905  18.732  0.00  0.00    +0.000 A 
ATOM      6  C   UNL     1       2.638   2.642  19.244  0.00  0.00    +0.000 A 
ATOM      7  C   UNL     1       1.781   2.441  20.315  0.00  0.00    +0.000 A 
ATOM      8  C   UNL     1       1.218   3.544  20.927  0.00  0.00    +0.000 A 
ATOM      9  C   UNL     1       1.471   4.820  20.417  0.00  0.00    +0.000 A 
ATOM     10  C   UNL     1       2.257   5.043  19.246  0.00  0.00    +0.000 A 
ENDROOT
BRANCH   3  11
ATOM     11  C   UNL     1       5.246   5.034  16.290  0.00  0.00    +0.000 A 
ATOM     12  C   UNL     1       5.194   4.187  15.152  0.00  0.00    +0.000 A 
ATOM     13  C   UNL     1       6.247   4.099  14.240  0.00  0.00    +0.000 A 
ATOM     14  C   UNL     1       7.368   4.865  14.478  0.00  0.00    +0.000 A 
ATOM     15  N   UNL     1       7.487   5.678  15.552  0.00  0.00    +0.000 NA
ATOM     16  C   UNL     1       6.433   5.737  16.423  0.00  0.00    +0.000 A 
ENDBRANCH   3  11
BRANCH   1  20
ATOM     17  C   UNL     1       1.196   9.822  18.722  0.00  0.00    +0.000 C 
ATOM     18  C   UNL     1       1.071   9.276  20.143  0.00  0.00    +0.000 C 
ATOM     19  C   UNL     1       1.880   7.973  20.185  0.00  0.00    +0.000 C 
ATOM     20  N   UNL     1       1.830   7.467  18.813  0.00  0.00    +0.000 N 
ATOM     21  C   UNL     1       1.824   8.648  17.924  0.00  0.00    +0.000 C 
BRANCH  17  22
ATOM     22  O   UNL     1       2.017  10.998  18.624  0.00  0.00    +0.000 OA
BRANCH  22  26
ATOM     23  C   UNL     1       0.475  14.888  18.843  0.00  0.00    +0.000 A 
ATOM     24  C   UNL     1      -0.417  13.817  18.846  0.00  0.00    +0.000 A 
ATOM     25  C   UNL     1       0.052  12.498  18.733  0.00  0.00    +0.000 A 
ATOM     26  C   UNL     1       1.419  12.238  18.637  0.00  0.00    +0.000 A 
ATOM     27  C   UNL     1       2.302  13.324  18.593  0.00  0.00    +0.000 A 
ATOM     28  C   UNL     1       1.836  14.642  18.698  0.00  0.00    +0.000 A 
ENDBRANCH  22  26
ENDBRANCH  17  22
ENDBRANCH   1  20
TORSDOF 4
ENDMDL
MODEL 6
REMARK VINA RESULT:      -8.9      0.797      1.238
REMARK  Name = 
REMARK  4 active torsions:
REMARK  status: ('A' for Active; 'I' for Inactive)
REMARK    1  A    between atoms: C_4  and  O_5
REMARK    2  A    between atoms: O_5  and  C_6
REMARK    3  A    between atoms: N_9  and  C_10
REMARK    4  A    between atoms: C_12  and  C_13
REMARK                            x       y       z     vdW  Elec       q    Type
REMARK                         _______ _______ _______ _____ _____    ______ ____
ROOT
ATOM      1  C   UNL     1       3.030   5.924  18.214  0.00  0.00    +0.000 A 
ATOM      2  N   UNL     1       3.959   5.989  17.190  0.00  0.00    +0.000 NA
ATOM      3  C   UNL     1       4.329   4.838  16.580  0.00  0.00    +0.000 A 
ATOM      4  N   UNL     1       3.781   3.645  16.846  0.00  0.00    +0.000 NA
ATOM      5  C   UNL     1       2.930   3.556  17.846  0.00  0.00    +0.000 A 
ATOM      6  C   UNL     1       2.439   2.280  18.075  0.00  0.00    +0.000 A 
ATOM      7  C   UNL     1       1.584   2.002  19.130  0.00  0.00    +0.000 A 
ATOM      8  C   UNL     1       1.271   3.016  20.013  0.00  0.00    +0.000 A 
ATOM      9  C   UNL     1       1.768   4.303  19.790  0.00  0.00    +0.000 A 
ATOM     10  C   UNL     1       2.555   4.640  18.647  0.00  0.00    +0.000 A 
ENDROOT
BRANCH   3  11
ATOM     11  C   UNL     1       5.411   4.753  15.564  0.00  0.00    +0.000 A 
ATOM     12  C   UNL     1       5.214   4.062  14.341  0.00  0.00    +0.000 A 
ATOM     13  C   UNL     1       6.205   3.984  13.361  0.00  0.00    +0.000 A 
ATOM     14  C   UNL     1       7.410   4.602  13.617  0.00  0.00    +0.000 A 
ATOM     15  N   UNL     1       7.667   5.262  14.769  0.00  0.00    +0.000 NA
ATOM     16  C   UNL     1       6.670   5.316  15.705  0.00  0.00    +0.000 A 
ENDBRANCH   3  11
BRANCH   1  20
ATOM     17  C   UNL     1       1.463   8.693  20.283  0.00  0.00    +0.000 C 
ATOM     18  C   UNL     1       1.646   9.292  18.890  0.00  0.00    +0.000 C 
ATOM     19  C   UNL     1       1.968   8.124  17.948  0.00  0.00    +0.000 C 
ATOM     20  N   UNL     1       2.621   7.134  18.806  0.00  0.00    +0.000 N 
ATOM     21  C   UNL     1       1.988   7.240  20.137  0.00  0.00    +0.000 C 
BRANCH  17  22
ATOM     22  O   UNL     1       0.100   8.696  20.740  0.00  0.00    +0.000 OA
BRANCH  22  26
ATOM     23  C   UNL     1      -1.253  12.330  22.327  0.00  0.00    +0.000 A 
ATOM     24  C   UNL     1      -1.096  11.245  23.188  0.00  0.00    +0.000 A 
ATOM     25  C   UNL     1      -0.684   9.997  22.694  0.00  0.00    +0.000 A 
ATOM     26  C   UNL     1      -0.406   9.829  21.336  0.00  0.00    +0.000 A 
ATOM     27  C   UNL     1      -0.607  10.915  20.476  0.00  0.00    +0.000 A 
ATOM     28  C   UNL     1      -1.025  12.161  20.965  0.00  0.00    +0.000 A 
ENDBRANCH  22  26
ENDBRANCH  17  22
ENDBRANCH   1  20
TORSDOF 4
ENDMDL
MODEL 7
REMARK VINA RESULT:      -8.9      0.730      1.199
REMARK  Name = 
REMARK  4 active torsions:
REMARK  status: ('A' for Active; 'I' for Inactive)
REMARK    1  A    between atoms: C_4  and  O_5
REMARK    2  A    between atoms: O_5  and  C_6
REMARK    3  A    between atoms: N_9  and  C_10
REMARK    4  A    between atoms: C_12  and  C_13
REMARK                            x       y       z     vdW  Elec       q    Type
REMARK                         _______ _______ _______ _____ _____    ______ ____
ROOT
ATOM      1  C   UNL     1       2.900   6.250  18.348  0.00  0.00    +0.000 A 
ATOM      2  N   UNL     1       3.875   6.244  17.366  0.00  0.00    +0.000 NA
ATOM      3  C   UNL     1       4.232   5.059  16.817  0.00  0.00    +0.000 A 
ATOM      4  N   UNL     1       3.631   3.896  17.100  0.00  0.00    +0.000 NA
ATOM      5  C   UNL     1       2.733   3.874  18.063  0.00  0.00    +0.000 A 
ATOM      6  C   UNL     1       2.188   2.625  18.316  0.00  0.00    +0.000 A 
ATOM      7  C   UNL     1       1.278   2.415  19.341  0.00  0.00    +0.000 A 
ATOM      8  C   UNL     1       0.962   3.473  20.171  0.00  0.00    +0.000 A 
ATOM      9  C   UNL     1       1.513   4.733  19.923  0.00  0.00    +0.000 A 
ATOM     10  C   UNL     1       2.361   5.000  18.806  0.00  0.00    +0.000 A 
ENDROOT
BRANCH   3  11
ATOM     11  C   UNL     1       5.354   4.899  15.855  0.00  0.00    +0.000 A 
ATOM     12  C   UNL     1       5.203   4.126  14.675  0.00  0.00    +0.000 A 
ATOM     13  C   UNL     1       6.233   3.977  13.744  0.00  0.00    +0.000 A 
ATOM     14  C   UNL     1       7.431   4.605  14.008  0.00  0.00    +0.000 A 
ATOM     15  N   UNL     1       7.644   5.342  15.122  0.00  0.00    +0.000 NA
ATOM     16  C   UNL     1       6.610   5.465  16.009  0.00  0.00    +0.000 A 
ENDBRANCH   3  11
BRANCH   1  20
ATOM     17  C   UNL     1       1.307   9.150  20.207  0.00  0.00    +0.000 C 
ATOM     18  C   UNL     1       1.656   9.705  18.827  0.00  0.00    +0.000 C 
ATOM     19  C   UNL     1       1.997   8.498  17.942  0.00  0.00    +0.000 C 
ATOM     20  N   UNL     1       2.507   7.494  18.876  0.00  0.00    +0.000 N 
ATOM     21  C   UNL     1       1.759   7.667  20.139  0.00  0.00    +0.000 C 
BRANCH  17  22
ATOM     22  O   UNL     1      -0.090   9.240  20.531  0.00  0.00    +0.000 OA
BRANCH  22  26
ATOM     23  C   UNL     1      -1.966  12.945  19.970  0.00  0.00    +0.000 A 
ATOM     24  C   UNL     1      -1.215  12.747  21.128  0.00  0.00    +0.000 A 
ATOM     25  C   UNL     1      -0.603  11.508  21.378  0.00  0.00    +0.000 A 
ATOM     26  C   UNL     1      -0.719  10.463  20.461  0.00  0.00    +0.000 A 
ATOM     27  C   UNL     1      -1.509  10.660  19.322  0.00  0.00    +0.000 A 
ATOM     28  C   UNL     1      -2.128  11.894  19.073  0.00  0.00    +0.000 A 
ENDBRANCH  22  26
ENDBRANCH  17  22
ENDBRANCH   1  20
TORSDOF 4
ENDMDL
MODEL 8
REMARK VINA RESULT:      -8.5      2.826      8.742
REMARK  Name = 
REMARK  4 active torsions:
REMARK  status: ('A' for Active; 'I' for Inactive)
REMARK    1  A    between atoms: C_4  and  O_5
REMARK    2  A    between atoms: O_5  and  C_6
REMARK    3  A    between atoms: N_9  and  C_10
REMARK    4  A    between atoms: C_12  and  C_13
REMARK                            x       y       z     vdW  Elec       q    Type
REMARK                         _______ _______ _______ _____ _____    ______ ____
ROOT
ATOM      1  C   UNL     1       3.664   5.716  18.875  0.00  0.00    +0.000 A 
ATOM      2  N   UNL     1       3.122   6.716  19.664  0.00  0.00    +0.000 NA
ATOM      3  C   UNL     1       1.944   6.479  20.288  0.00  0.00    +0.000 A 
ATOM      4  N   UNL     1       1.314   5.299  20.266  0.00  0.00    +0.000 NA
ATOM      5  C   UNL     1       1.789   4.350  19.486  0.00  0.00    +0.000 A 
ATOM      6  C   UNL     1       1.056   3.174  19.494  0.00  0.00    +0.000 A 
ATOM      7  C   UNL     1       1.383   2.099  18.681  0.00  0.00    +0.000 A 
ATOM      8  C   UNL     1       2.430   2.239  17.792  0.00  0.00    +0.000 A 
ATOM      9  C   UNL     1       3.169   3.424  17.776  0.00  0.00    +0.000 A 
ATOM     10  C   UNL     1       2.925   4.500  18.683  0.00  0.00    +0.000 A 
ENDROOT
BRANCH   3  11
ATOM     11  C   UNL     1       1.193   7.511  21.050  0.00  0.00    +0.000 A 
ATOM     12  C   UNL     1       1.869   8.551  21.738  0.00  0.00    +0.000 A 
ATOM     13  C   UNL     1       1.187   9.545  22.444  0.00  0.00    +0.000 A 
ATOM     14  C   UNL     1      -0.190   9.486  22.465  0.00  0.00    +0.000 A 
ATOM     15  N   UNL     1      -0.893   8.511  21.845  0.00  0.00    +0.000 NA
ATOM     16  C   UNL     1      -0.189   7.557  21.163  0.00  0.00    +0.000 A 
ENDBRANCH   3  11
BRANCH   1  20
ATOM     17  C   UNL     1       6.750   5.850  16.670  0.00  0.00    +0.000 C 
ATOM     18  C   UNL     1       7.274   5.991  18.097  0.00  0.00    +0.000 C 
ATOM     19  C   UNL     1       6.114   5.619  19.030  0.00  0.00    +0.000 C 
ATOM     20  N   UNL     1       4.911   5.960  18.271  0.00  0.00    +0.000 N 
ATOM     21  C   UNL     1       5.216   5.695  16.849  0.00  0.00    +0.000 C 
BRANCH  17  22
ATOM     22  O   UNL     1       7.294   4.724  15.962  0.00  0.00    +0.000 OA
BRANCH  22  26
ATOM     23  C   UNL     1       6.726   4.146  11.851  0.00  0.00    +0.000 A 
ATOM     24  C   UNL     1       7.658   5.095  12.267  0.00  0.00    +0.000 A 
ATOM     25  C   UNL     1       7.852   5.352  13.634  0.00  0.00    +0.000 A 
ATOM     26  C   UNL     1       7.130   4.646  14.597  0.00  0.00    +0.000 A 
ATOM     27  C   UNL     1       6.167   3.725  14.166  0.00  0.00    +0.000 A 
ATOM     28  C   UNL     1       5.966   3.472  12.801  0.00  0.00    +0.000 A 
ENDBRANCH  22  26
ENDBRANCH  17  22
ENDBRANCH   1  20
TORSDOF 4
ENDMDL
MODEL 9
REMARK VINA RESULT:      -8.4      0.561      1.284
REMARK  Name = 
REMARK  4 active torsions:
REMARK  status: ('A' for Active; 'I' for Inactive)
REMARK    1  A    between atoms: C_4  and  O_5
REMARK    2  A    between atoms: O_5  and  C_6
REMARK    3  A    between atoms: N_9  and  C_10
REMARK    4  A    between atoms: C_12  and  C_13
REMARK                            x       y       z     vdW  Elec       q    Type
REMARK                         _______ _______ _______ _____ _____    ______ ____
ROOT
ATOM      1  C   UNL     1       2.804   6.487  18.587  0.00  0.00    +0.000 A 
ATOM      2  N   UNL     1       3.713   6.410  17.546  0.00  0.00    +0.000 NA
ATOM      3  C   UNL     1       4.114   5.186  17.128  0.00  0.00    +0.000 A 
ATOM      4  N   UNL     1       3.614   4.038  17.600  0.00  0.00    +0.000 NA
ATOM      5  C   UNL     1       2.783   4.089  18.620  0.00  0.00    +0.000 A 
ATOM      6  C   UNL     1       2.342   2.854  19.069  0.00  0.00    +0.000 A 
ATOM      7  C   UNL     1       1.516   2.727  20.175  0.00  0.00    +0.000 A 
ATOM      8  C   UNL     1       1.182   3.864  20.884  0.00  0.00    +0.000 A 
ATOM      9  C   UNL     1       1.627   5.111  20.438  0.00  0.00    +0.000 A 
ATOM     10  C   UNL     1       2.382   5.279  19.238  0.00  0.00    +0.000 A 
ENDROOT
BRANCH   3  11
ATOM     11  C   UNL     1       5.181   4.969  16.116  0.00  0.00    +0.000 A 
ATOM     12  C   UNL     1       6.504   5.430  16.336  0.00  0.00    +0.000 A 
ATOM     13  C   UNL     1       7.530   5.221  15.412  0.00  0.00    +0.000 A 
ATOM     14  C   UNL     1       7.219   4.547  14.251  0.00  0.00    +0.000 A 
ATOM     15  N   UNL     1       5.975   4.097  13.973  0.00  0.00    +0.000 NA
ATOM     16  C   UNL     1       4.997   4.321  14.904  0.00  0.00    +0.000 A 
ENDBRANCH   3  11
BRANCH   1  20
ATOM     17  C   UNL     1       1.087   9.505  20.119  0.00  0.00    +0.000 C 
ATOM     18  C   UNL     1       1.433   9.926  18.692  0.00  0.00    +0.000 C 
ATOM     19  C   UNL     1       1.828   8.647  17.941  0.00  0.00    +0.000 C 
ATOM     20  N   UNL     1       2.361   7.764  18.979  0.00  0.00    +0.000 N 
ATOM     21  C   UNL     1       1.591   8.040  20.210  0.00  0.00    +0.000 C 
BRANCH  17  22
ATOM     22  O   UNL     1      -0.317   9.578  20.419  0.00  0.00    +0.000 OA
BRANCH  22  26
ATOM     23  C   UNL     1      -1.734  13.151  22.087  0.00  0.00    +0.000 A 
ATOM     24  C   UNL     1      -1.170  12.198  22.934  0.00  0.00    +0.000 A 
ATOM     25  C   UNL     1      -0.720  10.969  22.426  0.00  0.00    +0.000 A 
ATOM     26  C   UNL     1      -0.810  10.691  21.061  0.00  0.00    +0.000 A 
ATOM     27  C   UNL     1      -1.415  11.639  20.227  0.00  0.00    +0.000 A 
ATOM     28  C   UNL     1      -1.873  12.864  20.733  0.00  0.00    +0.000 A 
ENDBRANCH  22  26
ENDBRANCH  17  22
ENDBRANCH   1  20
TORSDOF 4
ENDMDL
