MODEL 1
REMARK VINA RESULT:      -8.6      0.000      0.000
REMARK  Name = 
REMARK  5 active torsions:
REMARK  status: ('A' for Active; 'I' for Inactive)
REMARK    1  A    between atoms: C_9  and  S_10
REMARK    2  A    between atoms: S_10  and  N_13
REMARK    3  A    between atoms: N_13  and  C_14
REMARK    4  A    between atoms: C_19  and  O_20
REMARK    5  A    between atoms: O_20  and  C_21
REMARK                            x       y       z     vdW  Elec       q    Type
REMARK                         _______ _______ _______ _____ _____    ______ ____
ROOT
ATOM      1  O   UNL     1       0.548  11.895  19.752  0.00  0.00    +0.000 OA
ATOM      2  C   UNL     1       0.698  10.686  19.925  0.00  0.00    +0.000 C 
ATOM      3  C   UNL     1       0.001   9.948  21.013  0.00  0.00    +0.000 C 
ATOM      4  C   UNL     1       0.933   9.297  21.973  0.00  0.00    +0.000 C 
ATOM      5  O   UNL     1       0.946   9.580  23.170  0.00  0.00    +0.000 OA
ATOM      6  N   UNL     1       1.694   8.259  21.521  0.00  0.00    +0.000 N 
ATOM      7  C   UNL     1       1.897   7.809  20.205  0.00  0.00    +0.000 A 
ATOM      8  C   UNL     1       2.335   6.476  20.080  0.00  0.00    +0.000 A 
ATOM      9  C   UNL     1       2.589   5.918  18.818  0.00  0.00    +0.000 A 
ATOM     10  C   UNL     1       2.450   6.695  17.672  0.00  0.00    +0.000 A 
ATOM     11  C   UNL     1       2.076   8.037  17.795  0.00  0.00    +0.000 A 
ATOM     12  C   UNL     1       1.765   8.600  19.046  0.00  0.00    +0.000 A 
ATOM     13  N   UNL     1       1.410   9.959  19.017  0.00  0.00    +0.000 N 
ATOM     14  H   UNL     1       2.108   7.732  22.283  0.00  0.00    +0.000 HD
ATOM     15  H   UNL     1       1.648  10.503  18.196  0.00  0.00    +0.000 HD
ENDROOT
BRANCH   9  16
ATOM     16  S   UNL     1       2.904   4.157  18.676  0.00  0.00    +0.000 S 
ATOM     17  O   UNL     1       3.375   3.747  19.982  0.00  0.00    +0.000 OA
ATOM     18  O   UNL     1       1.743   3.553  18.066  0.00  0.00    +0.000 OA
BRANCH  16  19
ATOM     19  N   UNL     1       4.223   4.086  17.622  0.00  0.00    +0.000 N 
ATOM     20  H   UNL     1       4.464   3.127  17.381  0.00  0.00    +0.000 HD
BRANCH  19  21
ATOM     21  C   UNL     1       5.364   4.910  17.901  0.00  0.00    +0.000 A 
ATOM     22  C   UNL     1       5.902   4.915  19.191  0.00  0.00    +0.000 A 
ATOM     23  C   UNL     1       7.053   5.651  19.466  0.00  0.00    +0.000 A 
ATOM     24  C   UNL     1       7.686   6.360  18.449  0.00  0.00    +0.000 A 
ATOM     25  C   UNL     1       7.145   6.375  17.163  0.00  0.00    +0.000 A 
ATOM     26  C   UNL     1       5.957   5.687  16.883  0.00  0.00    +0.000 A 
BRANCH  26  27
ATOM     27  O   UNL     1       5.364   5.675  15.645  0.00  0.00    +0.000 OA
BRANCH  27  28
ATOM     28  C   UNL     1       6.026   4.889  14.664  0.00  0.00    +0.000 C 
ATOM     29  F   UNL     1       6.772   3.940  15.288  0.00  0.00    +0.000 F 
ATOM     30  F   UNL     1       5.083   4.225  13.951  0.00  0.00    +0.000 F 
ENDBRANCH  27  28
ENDBRANCH  26  27
ENDBRANCH  19  21
ENDBRANCH  16  19
ENDBRANCH   9  16
TORSDOF 5
ENDMDL
MODEL 2
REMARK VINA RESULT:      -8.6      2.245      2.762
REMARK  Name = 
REMARK  5 active torsions:
REMARK  status: ('A' for Active; 'I' for Inactive)
REMARK    1  A    between atoms: C_9  and  S_10
REMARK    2  A    between atoms: S_10  and  N_13
REMARK    3  A    between atoms: N_13  and  C_14
REMARK    4  A    between atoms: C_19  and  O_20
REMARK    5  A    between atoms: O_20  and  C_21
REMARK                            x       y       z     vdW  Elec       q    Type
REMARK                         _______ _______ _______ _____ _____    ______ ____
ROOT
ATOM      1  O   UNL     1      -0.419  13.278  19.478  0.00  0.00    +0.000 OA
ATOM      2  C   UNL     1      -0.239  12.097  19.776  0.00  0.00    +0.000 C 
ATOM      3  C   UNL     1      -1.068  11.401  20.796  0.00  0.00    +0.000 C 
ATOM      4  C   UNL     1      -0.274  10.885  21.944  0.00  0.00    +0.000 C 
ATOM      5  O   UNL     1      -0.473  11.259  23.100  0.00  0.00    +0.000 OA
ATOM      6  N   UNL     1       0.602   9.867  21.711  0.00  0.00    +0.000 N 
ATOM      7  C   UNL     1       1.042   9.332  20.487  0.00  0.00    +0.000 A 
ATOM      8  C   UNL     1       1.562   8.025  20.547  0.00  0.00    +0.000 A 
ATOM      9  C   UNL     1       2.049   7.391  19.395  0.00  0.00    +0.000 A 
ATOM     10  C   UNL     1       2.061   8.069  18.179  0.00  0.00    +0.000 A 
ATOM     11  C   UNL     1       1.604   9.389  18.126  0.00  0.00    +0.000 A 
ATOM     12  C   UNL     1       1.063  10.023  19.259  0.00  0.00    +0.000 A 
ATOM     13  N   UNL     1       0.649  11.352  19.058  0.00  0.00    +0.000 N 
ATOM     14  H   UNL     1       0.911   9.427  22.571  0.00  0.00    +0.000 HD
ATOM     15  H   UNL     1       0.991  11.846  18.242  0.00  0.00    +0.000 HD
ENDROOT
BRANCH   9  16
ATOM     16  S   UNL     1       2.471   5.648  19.455  0.00  0.00    +0.000 S 
ATOM     17  O   UNL     1       2.294   5.260  20.839  0.00  0.00    +0.000 OA
ATOM     18  O   UNL     1       1.760   4.988  18.385  0.00  0.00    +0.000 OA
BRANCH  16  19
ATOM     19  N   UNL     1       4.132   5.644  19.143  0.00  0.00    +0.000 N 
ATOM     20  H   UNL     1       4.596   6.454  19.548  0.00  0.00    +0.000 HD
BRANCH  19  21
ATOM     21  C   UNL     1       4.575   5.338  17.812  0.00  0.00    +0.000 A 
ATOM     22  C   UNL     1       4.893   6.384  16.942  0.00  0.00    +0.000 A 
ATOM     23  C   UNL     1       5.395   6.109  15.671  0.00  0.00    +0.000 A 
ATOM     24  C   UNL     1       5.606   4.791  15.275  0.00  0.00    +0.000 A 
ATOM     25  C   UNL     1       5.274   3.741  16.132  0.00  0.00    +0.000 A 
ATOM     26  C   UNL     1       4.715   3.998  17.391  0.00  0.00    +0.000 A 
BRANCH  26  27
ATOM     27  O   UNL     1       4.351   3.011  18.273  0.00  0.00    +0.000 OA
BRANCH  27  28
ATOM     28  C   UNL     1       3.667   1.906  17.696  0.00  0.00    +0.000 C 
ATOM     29  F   UNL     1       3.542   0.928  18.630  0.00  0.00    +0.000 F 
ATOM     30  F   UNL     1       2.408   2.305  17.389  0.00  0.00    +0.000 F 
ENDBRANCH  27  28
ENDBRANCH  26  27
ENDBRANCH  19  21
ENDBRANCH  16  19
ENDBRANCH   9  16
TORSDOF 5
ENDMDL
MODEL 3
REMARK VINA RESULT:      -8.5      1.669      2.437
REMARK  Name = 
REMARK  5 active torsions:
REMARK  status: ('A' for Active; 'I' for Inactive)
REMARK    1  A    between atoms: C_9  and  S_10
REMARK    2  A    between atoms: S_10  and  N_13
REMARK    3  A    between atoms: N_13  and  C_14
REMARK    4  A    between atoms: C_19  and  O_20
REMARK    5  A    between atoms: O_20  and  C_21
REMARK                            x       y       z     vdW  Elec       q    Type
REMARK                         _______ _______ _______ _____ _____    ______ ____
ROOT
ATOM      1  O   UNL     1       0.864  11.441  19.335  0.00  0.00    +0.000 OA
ATOM      2  C   UNL     1       0.966  10.248  19.621  0.00  0.00    +0.000 C 
ATOM      3  C   UNL     1       0.213   9.637  20.749  0.00  0.00    +0.000 C 
ATOM      4  C   UNL     1       1.094   9.044  21.792  0.00  0.00    +0.000 C 
ATOM      5  O   UNL     1       1.085   9.436  22.959  0.00  0.00    +0.000 OA
ATOM      6  N   UNL     1       1.829   7.945  21.459  0.00  0.00    +0.000 N 
ATOM      7  C   UNL     1       2.052   7.370  20.195  0.00  0.00    +0.000 A 
ATOM      8  C   UNL     1       2.446   6.018  20.204  0.00  0.00    +0.000 A 
ATOM      9  C   UNL     1       2.714   5.339  19.006  0.00  0.00    +0.000 A 
ATOM     10  C   UNL     1       2.634   6.013  17.791  0.00  0.00    +0.000 A 
ATOM     11  C   UNL     1       2.305   7.372  17.781  0.00  0.00    +0.000 A 
ATOM     12  C   UNL     1       1.981   8.056  18.966  0.00  0.00    +0.000 A 
ATOM     13  N   UNL     1       1.675   9.419  18.805  0.00  0.00    +0.000 N 
ATOM     14  H   UNL     1       2.203   7.477  22.278  0.00  0.00    +0.000 HD
ATOM     15  H   UNL     1       1.955   9.877  17.945  0.00  0.00    +0.000 HD
ENDROOT
BRANCH   9  16
ATOM     16  S   UNL     1       2.969   3.564  19.033  0.00  0.00    +0.000 S 
ATOM     17  O   UNL     1       2.762   3.169  20.411  0.00  0.00    +0.000 OA
ATOM     18  O   UNL     1       2.193   2.993  17.957  0.00  0.00    +0.000 OA
BRANCH  16  19
ATOM     19  N   UNL     1       4.620   3.407  18.710  0.00  0.00    +0.000 N 
ATOM     20  H   UNL     1       5.183   3.509  19.552  0.00  0.00    +0.000 HD
BRANCH  19  21
ATOM     21  C   UNL     1       5.161   4.098  17.574  0.00  0.00    +0.000 A 
ATOM     22  C   UNL     1       4.829   3.661  16.289  0.00  0.00    +0.000 A 
ATOM     23  C   UNL     1       5.283   4.362  15.173  0.00  0.00    +0.000 A 
ATOM     24  C   UNL     1       6.044   5.515  15.336  0.00  0.00    +0.000 A 
ATOM     25  C   UNL     1       6.394   5.948  16.615  0.00  0.00    +0.000 A 
ATOM     26  C   UNL     1       5.994   5.223  17.746  0.00  0.00    +0.000 A 
BRANCH  26  27
ATOM     27  O   UNL     1       6.320   5.585  19.030  0.00  0.00    +0.000 OA
BRANCH  27  28
ATOM     28  C   UNL     1       7.710   5.744  19.280  0.00  0.00    +0.000 C 
ATOM     29  F   UNL     1       7.946   5.549  20.604  0.00  0.00    +0.000 F 
ATOM     30  F   UNL     1       8.370   4.755  18.626  0.00  0.00    +0.000 F 
ENDBRANCH  27  28
ENDBRANCH  26  27
ENDBRANCH  19  21
ENDBRANCH  16  19
ENDBRANCH   9  16
TORSDOF 5
ENDMDL
MODEL 4
REMARK VINA RESULT:      -8.4      1.924      2.582
REMARK  Name = 
REMARK  5 active torsions:
REMARK  status: ('A' for Active; 'I' for Inactive)
REMARK    1  A    between atoms: C_9  and  S_10
REMARK    2  A    between atoms: S_10  and  N_13
REMARK    3  A    between atoms: N_13  and  C_14
REMARK    4  A    between atoms: C_19  and  O_20
REMARK    5  A    between atoms: O_20  and  C_21
REMARK                            x       y       z     vdW  Elec       q    Type
REMARK                         _______ _______ _______ _____ _____    ______ ____
ROOT
ATOM      1  O   UNL     1       0.660  11.303  18.864  0.00  0.00    +0.000 OA
ATOM      2  C   UNL     1       0.882  10.123  19.131  0.00  0.00    +0.000 C 
ATOM      3  C   UNL     1       0.035   9.352  20.080  0.00  0.00    +0.000 C 
ATOM      4  C   UNL     1       0.790   8.832  21.253  0.00  0.00    +0.000 C 
ATOM      5  O   UNL     1       0.511   9.154  22.408  0.00  0.00    +0.000 OA
ATOM      6  N   UNL     1       1.727   7.866  21.034  0.00  0.00    +0.000 N 
ATOM      7  C   UNL     1       2.259   7.398  19.819  0.00  0.00    +0.000 A 
ATOM      8  C   UNL     1       2.839   6.116  19.865  0.00  0.00    +0.000 A 
ATOM      9  C   UNL     1       3.418   5.547  18.720  0.00  0.00    +0.000 A 
ATOM     10  C   UNL     1       3.462   6.269  17.531  0.00  0.00    +0.000 A 
ATOM     11  C   UNL     1       2.943   7.567  17.497  0.00  0.00    +0.000 A 
ATOM     12  C   UNL     1       2.311   8.133  18.618  0.00  0.00    +0.000 A 
ATOM     13  N   UNL     1       1.843   9.447  18.440  0.00  0.00    +0.000 N 
ATOM     14  H   UNL     1       2.011   7.411  21.895  0.00  0.00    +0.000 HD
ATOM     15  H   UNL     1       2.204   9.986  17.661  0.00  0.00    +0.000 HD
ENDROOT
BRANCH   9  16
ATOM     16  S   UNL     1       3.922   3.826  18.746  0.00  0.00    +0.000 S 
ATOM     17  O   UNL     1       3.746   3.397  20.117  0.00  0.00    +0.000 OA
ATOM     18  O   UNL     1       3.256   3.158  17.652  0.00  0.00    +0.000 OA
BRANCH  16  19
ATOM     19  N   UNL     1       5.585   3.908  18.455  0.00  0.00    +0.000 N 
ATOM     20  H   UNL     1       6.072   4.423  19.185  0.00  0.00    +0.000 HD
BRANCH  19  21
ATOM     21  C   UNL     1       6.030   4.235  17.130  0.00  0.00    +0.000 A 
ATOM     22  C   UNL     1       5.604   3.450  16.056  0.00  0.00    +0.000 A 
ATOM     23  C   UNL     1       5.964   3.793  14.753  0.00  0.00    +0.000 A 
ATOM     24  C   UNL     1       6.726   4.934  14.518  0.00  0.00    +0.000 A 
ATOM     25  C   UNL     1       7.170   5.712  15.588  0.00  0.00    +0.000 A 
ATOM     26  C   UNL     1       6.865   5.350  16.907  0.00  0.00    +0.000 A 
BRANCH  26  27
ATOM     27  O   UNL     1       7.285   6.062  18.003  0.00  0.00    +0.000 OA
BRANCH  27  28
ATOM     28  C   UNL     1       7.789   7.362  17.723  0.00  0.00    +0.000 C 
ATOM     29  F   UNL     1       6.749   8.233  17.655  0.00  0.00    +0.000 F 
ATOM     30  F   UNL     1       8.546   7.754  18.778  0.00  0.00    +0.000 F 
ENDBRANCH  27  28
ENDBRANCH  26  27
ENDBRANCH  19  21
ENDBRANCH  16  19
ENDBRANCH   9  16
TORSDOF 5
ENDMDL
MODEL 5
REMARK VINA RESULT:      -8.3      2.110      2.631
REMARK  Name = 
REMARK  5 active torsions:
REMARK  status: ('A' for Active; 'I' for Inactive)
REMARK    1  A    between atoms: C_9  and  S_10
REMARK    2  A    between atoms: S_10  and  N_13
REMARK    3  A    between atoms: N_13  and  C_14
REMARK    4  A    between atoms: C_19  and  O_20
REMARK    5  A    between atoms: O_20  and  C_21
REMARK                            x       y       z     vdW  Elec       q    Type
REMARK                         _______ _______ _______ _____ _____    ______ ____
ROOT
ATOM      1  O   UNL     1      -0.421  12.756  18.410  0.00  0.00    +0.000 OA
ATOM      2  C   UNL     1      -0.191  11.622  18.828  0.00  0.00    +0.000 C 
ATOM      3  C   UNL     1      -1.078  10.943  19.810  0.00  0.00    +0.000 C 
ATOM      4  C   UNL     1      -0.387  10.587  21.079  0.00  0.00    +0.000 C 
ATOM      5  O   UNL     1      -0.744  11.033  22.169  0.00  0.00    +0.000 OA
ATOM      6  N   UNL     1       0.583   9.629  21.033  0.00  0.00    +0.000 N 
ATOM      7  C   UNL     1       1.199   9.037  19.915  0.00  0.00    +0.000 A 
ATOM      8  C   UNL     1       1.802   7.786  20.147  0.00  0.00    +0.000 A 
ATOM      9  C   UNL     1       2.464   7.104  19.115  0.00  0.00    +0.000 A 
ATOM     10  C   UNL     1       2.566   7.682  17.853  0.00  0.00    +0.000 A 
ATOM     11  C   UNL     1       2.023   8.952  17.634  0.00  0.00    +0.000 A 
ATOM     12  C   UNL     1       1.310   9.628  18.641  0.00  0.00    +0.000 A 
ATOM     13  N   UNL     1       0.825  10.897  18.280  0.00  0.00    +0.000 N 
ATOM     14  H   UNL     1       0.822   9.286  21.957  0.00  0.00    +0.000 HD
ATOM     15  H   UNL     1       1.222  11.351  17.466  0.00  0.00    +0.000 HD
ENDROOT
BRANCH   9  16
ATOM     16  S   UNL     1       3.002   5.413  19.374  0.00  0.00    +0.000 S 
ATOM     17  O   UNL     1       2.831   5.171  20.792  0.00  0.00    +0.000 OA
ATOM     18  O   UNL     1       2.353   4.589  18.381  0.00  0.00    +0.000 OA
BRANCH  16  19
ATOM     19  N   UNL     1       4.664   5.489  19.076  0.00  0.00    +0.000 N 
ATOM     20  H   UNL     1       5.070   6.359  19.413  0.00  0.00    +0.000 HD
BRANCH  19  21
ATOM     21  C   UNL     1       5.142   5.098  17.780  0.00  0.00    +0.000 A 
ATOM     22  C   UNL     1       4.830   3.826  17.294  0.00  0.00    +0.000 A 
ATOM     23  C   UNL     1       5.221   3.453  16.008  0.00  0.00    +0.000 A 
ATOM     24  C   UNL     1       5.900   4.358  15.196  0.00  0.00    +0.000 A 
ATOM     25  C   UNL     1       6.231   5.623  15.682  0.00  0.00    +0.000 A 
ATOM     26  C   UNL     1       5.895   5.994  16.991  0.00  0.00    +0.000 A 
BRANCH  26  27
ATOM     27  O   UNL     1       6.206   7.215  17.535  0.00  0.00    +0.000 OA
BRANCH  27  28
ATOM     28  C   UNL     1       7.587   7.555  17.509  0.00  0.00    +0.000 C 
ATOM     29  F   UNL     1       7.713   8.900  17.655  0.00  0.00    +0.000 F 
ATOM     30  F   UNL     1       8.177   6.996  18.595  0.00  0.00    +0.000 F 
ENDBRANCH  27  28
ENDBRANCH  26  27
ENDBRANCH  19  21
ENDBRANCH  16  19
ENDBRANCH   9  16
TORSDOF 5
ENDMDL
MODEL 6
REMARK VINA RESULT:      -8.2      2.474      2.963
REMARK  Name = 
REMARK  5 active torsions:
REMARK  status: ('A' for Active; 'I' for Inactive)
REMARK    1  A    between atoms: C_9  and  S_10
REMARK    2  A    between atoms: S_10  and  N_13
REMARK    3  A    between atoms: N_13  and  C_14
REMARK    4  A    between atoms: C_19  and  O_20
REMARK    5  A    between atoms: O_20  and  C_21
REMARK                            x       y       z     vdW  Elec       q    Type
REMARK                         _______ _______ _______ _____ _____    ______ ____
ROOT
ATOM      1  O   UNL     1      -0.486  13.336  19.113  0.00  0.00    +0.000 OA
ATOM      2  C   UNL     1      -0.266  12.177  19.463  0.00  0.00    +0.000 C 
ATOM      3  C   UNL     1      -1.059  11.507  20.528  0.00  0.00    +0.000 C 
ATOM      4  C   UNL     1      -0.234  11.068  21.687  0.00  0.00    +0.000 C 
ATOM      5  O   UNL     1      -0.426  11.491  22.827  0.00  0.00    +0.000 OA
ATOM      6  N   UNL     1       0.668  10.065  21.487  0.00  0.00    +0.000 N 
ATOM      7  C   UNL     1       1.105   9.486  20.282  0.00  0.00    +0.000 A 
ATOM      8  C   UNL     1       1.664   8.199  20.396  0.00  0.00    +0.000 A 
ATOM      9  C   UNL     1       2.151   7.524  19.267  0.00  0.00    +0.000 A 
ATOM     10  C   UNL     1       2.125   8.143  18.020  0.00  0.00    +0.000 A 
ATOM     11  C   UNL     1       1.629   9.446  17.913  0.00  0.00    +0.000 A 
ATOM     12  C   UNL     1       1.087  10.118  19.023  0.00  0.00    +0.000 A 
ATOM     13  N   UNL     1       0.631  11.423  18.767  0.00  0.00    +0.000 N 
ATOM     14  H   UNL     1       1.003   9.676  22.362  0.00  0.00    +0.000 HD
ATOM     15  H   UNL     1       0.947  11.887  17.923  0.00  0.00    +0.000 HD
ENDROOT
BRANCH   9  16
ATOM     16  S   UNL     1       2.625   5.799  19.402  0.00  0.00    +0.000 S 
ATOM     17  O   UNL     1       4.014   5.815  19.811  0.00  0.00    +0.000 OA
ATOM     18  O   UNL     1       1.613   5.127  20.183  0.00  0.00    +0.000 OA
BRANCH  16  19
ATOM     19  N   UNL     1       2.580   5.261  17.801  0.00  0.00    +0.000 N 
ATOM     20  H   UNL     1       1.867   4.548  17.660  0.00  0.00    +0.000 HD
BRANCH  19  21
ATOM     21  C   UNL     1       3.823   4.963  17.147  0.00  0.00    +0.000 A 
ATOM     22  C   UNL     1       4.622   6.014  16.691  0.00  0.00    +0.000 A 
ATOM     23  C   UNL     1       5.866   5.750  16.120  0.00  0.00    +0.000 A 
ATOM     24  C   UNL     1       6.327   4.440  16.028  0.00  0.00    +0.000 A 
ATOM     25  C   UNL     1       5.527   3.384  16.465  0.00  0.00    +0.000 A 
ATOM     26  C   UNL     1       4.250   3.627  16.989  0.00  0.00    +0.000 A 
BRANCH  26  27
ATOM     27  O   UNL     1       3.407   2.633  17.420  0.00  0.00    +0.000 OA
BRANCH  27  28
ATOM     28  C   UNL     1       3.742   2.058  18.676  0.00  0.00    +0.000 C 
ATOM     29  F   UNL     1       2.676   2.171  19.511  0.00  0.00    +0.000 F 
ATOM     30  F   UNL     1       3.941   0.729  18.490  0.00  0.00    +0.000 F 
ENDBRANCH  27  28
ENDBRANCH  26  27
ENDBRANCH  19  21
ENDBRANCH  16  19
ENDBRANCH   9  16
TORSDOF 5
ENDMDL
MODEL 7
REMARK VINA RESULT:      -8.0      2.655      6.458
REMARK  Name = 
REMARK  5 active torsions:
REMARK  status: ('A' for Active; 'I' for Inactive)
REMARK    1  A    between atoms: C_9  and  S_10
REMARK    2  A    between atoms: S_10  and  N_13
REMARK    3  A    between atoms: N_13  and  C_14
REMARK    4  A    between atoms: C_19  and  O_20
REMARK    5  A    between atoms: O_20  and  C_21
REMARK                            x       y       z     vdW  Elec       q    Type
REMARK                         _______ _______ _______ _____ _____    ______ ____
ROOT
ATOM      1  O   UNL     1       6.458   3.489  14.100  0.00  0.00    +0.000 OA
ATOM      2  C   UNL     1       6.077   3.882  15.202  0.00  0.00    +0.000 C 
ATOM      3  C   UNL     1       6.856   4.860  16.008  0.00  0.00    +0.000 C 
ATOM      4  C   UNL     1       7.274   4.329  17.334  0.00  0.00    +0.000 C 
ATOM      5  O   UNL     1       8.457   4.228  17.657  0.00  0.00    +0.000 OA
ATOM      6  N   UNL     1       6.303   4.079  18.258  0.00  0.00    +0.000 N 
ATOM      7  C   UNL     1       4.906   4.053  18.099  0.00  0.00    +0.000 A 
ATOM      8  C   UNL     1       4.158   4.231  19.278  0.00  0.00    +0.000 A 
ATOM      9  C   UNL     1       2.755   4.207  19.251  0.00  0.00    +0.000 A 
ATOM     10  C   UNL     1       2.086   3.965  18.054  0.00  0.00    +0.000 A 
ATOM     11  C   UNL     1       2.826   3.725  16.892  0.00  0.00    +0.000 A 
ATOM     12  C   UNL     1       4.231   3.798  16.889  0.00  0.00    +0.000 A 
ATOM     13  N   UNL     1       4.839   3.529  15.651  0.00  0.00    +0.000 N 
ATOM     14  H   UNL     1       6.688   3.955  19.188  0.00  0.00    +0.000 HD
ATOM     15  H   UNL     1       4.296   3.056  14.938  0.00  0.00    +0.000 HD
ENDROOT
BRANCH   9  16
ATOM     16  S   UNL     1       1.833   4.682  20.714  0.00  0.00    +0.000 S 
ATOM     17  O   UNL     1       0.470   4.868  20.263  0.00  0.00    +0.000 OA
ATOM     18  O   UNL     1       2.163   3.744  21.763  0.00  0.00    +0.000 OA
BRANCH  16  19
ATOM     19  N   UNL     1       2.453   6.211  21.081  0.00  0.00    +0.000 N 
ATOM     20  H   UNL     1       2.662   6.307  22.072  0.00  0.00    +0.000 HD
BRANCH  19  21
ATOM     21  C   UNL     1       1.806   7.361  20.518  0.00  0.00    +0.000 A 
ATOM     22  C   UNL     1       0.942   8.116  21.316  0.00  0.00    +0.000 A 
ATOM     23  C   UNL     1       0.360   9.278  20.812  0.00  0.00    +0.000 A 
ATOM     24  C   UNL     1       0.661   9.705  19.521  0.00  0.00    +0.000 A 
ATOM     25  C   UNL     1       1.508   8.947  18.713  0.00  0.00    +0.000 A 
ATOM     26  C   UNL     1       2.056   7.746  19.184  0.00  0.00    +0.000 A 
BRANCH  26  27
ATOM     27  O   UNL     1       2.882   6.947  18.433  0.00  0.00    +0.000 OA
BRANCH  27  28
ATOM     28  C   UNL     1       3.828   7.639  17.629  0.00  0.00    +0.000 C 
ATOM     29  F   UNL     1       5.075   7.408  18.117  0.00  0.00    +0.000 F 
ATOM     30  F   UNL     1       3.798   7.097  16.386  0.00  0.00    +0.000 F 
ENDBRANCH  27  28
ENDBRANCH  26  27
ENDBRANCH  19  21
ENDBRANCH  16  19
ENDBRANCH   9  16
TORSDOF 5
ENDMDL
MODEL 8
REMARK VINA RESULT:      -8.0      1.146      1.175
REMARK  Name = 
REMARK  5 active torsions:
REMARK  status: ('A' for Active; 'I' for Inactive)
REMARK    1  A    between atoms: C_9  and  S_10
REMARK    2  A    between atoms: S_10  and  N_13
REMARK    3  A    between atoms: N_13  and  C_14
REMARK    4  A    between atoms: C_19  and  O_20
REMARK    5  A    between atoms: O_20  and  C_21
REMARK                            x       y       z     vdW  Elec       q    Type
REMARK                         _______ _______ _______ _____ _____    ______ ____
ROOT
ATOM      1  O   UNL     1      -0.096  12.548  20.485  0.00  0.00    +0.000 OA
ATOM      2  C   UNL     1       0.131  11.338  20.466  0.00  0.00    +0.000 C 
ATOM      3  C   UNL     1      -0.556  10.388  21.381  0.00  0.00    +0.000 C 
ATOM      4  C   UNL     1       0.380   9.646  22.269  0.00  0.00    +0.000 C 
ATOM      5  O   UNL     1       0.323   9.727  23.496  0.00  0.00    +0.000 OA
ATOM      6  N   UNL     1       1.230   8.747  21.694  0.00  0.00    +0.000 N 
ATOM      7  C   UNL     1       1.518   8.536  20.335  0.00  0.00    +0.000 A 
ATOM      8  C   UNL     1       2.055   7.274  20.017  0.00  0.00    +0.000 A 
ATOM      9  C   UNL     1       2.399   6.950  18.696  0.00  0.00    +0.000 A 
ATOM     10  C   UNL     1       2.252   7.897  17.686  0.00  0.00    +0.000 A 
ATOM     11  C   UNL     1       1.779   9.173  18.007  0.00  0.00    +0.000 A 
ATOM     12  C   UNL     1       1.378   9.499  19.315  0.00  0.00    +0.000 A 
ATOM     13  N   UNL     1       0.929  10.819  19.490  0.00  0.00    +0.000 N 
ATOM     14  H   UNL     1       1.649   8.129  22.381  0.00  0.00    +0.000 HD
ATOM     15  H   UNL     1       1.162  11.506  18.782  0.00  0.00    +0.000 HD
ENDROOT
BRANCH   9  16
ATOM     16  S   UNL     1       2.843   5.261  18.286  0.00  0.00    +0.000 S 
ATOM     17  O   UNL     1       3.523   4.749  19.457  0.00  0.00    +0.000 OA
ATOM     18  O   UNL     1       1.666   4.617  17.750  0.00  0.00    +0.000 OA
BRANCH  16  19
ATOM     19  N   UNL     1       4.006   5.452  17.075  0.00  0.00    +0.000 N 
ATOM     20  H   UNL     1       3.771   4.925  16.237  0.00  0.00    +0.000 HD
BRANCH  19  21
ATOM     21  C   UNL     1       5.391   5.359  17.440  0.00  0.00    +0.000 A 
ATOM     22  C   UNL     1       5.873   6.144  18.491  0.00  0.00    +0.000 A 
ATOM     23  C   UNL     1       7.197   6.016  18.910  0.00  0.00    +0.000 A 
ATOM     24  C   UNL     1       8.034   5.085  18.301  0.00  0.00    +0.000 A 
ATOM     25  C   UNL     1       7.564   4.310  17.239  0.00  0.00    +0.000 A 
ATOM     26  C   UNL     1       6.254   4.467  16.768  0.00  0.00    +0.000 A 
BRANCH  26  27
ATOM     27  O   UNL     1       5.737   3.750  15.718  0.00  0.00    +0.000 OA
BRANCH  27  28
ATOM     28  C   UNL     1       5.920   4.336  14.436  0.00  0.00    +0.000 C 
ATOM     29  F   UNL     1       7.076   5.050  14.438  0.00  0.00    +0.000 F 
ATOM     30  F   UNL     1       6.092   3.335  13.537  0.00  0.00    +0.000 F 
ENDBRANCH  27  28
ENDBRANCH  26  27
ENDBRANCH  19  21
ENDBRANCH  16  19
ENDBRANCH   9  16
TORSDOF 5
ENDMDL
MODEL 9
REMARK VINA RESULT:      -7.9      2.083      2.630
REMARK  Name = 
REMARK  5 active torsions:
REMARK  status: ('A' for Active; 'I' for Inactive)
REMARK    1  A    between atoms: C_9  and  S_10
REMARK    2  A    between atoms: S_10  and  N_13
REMARK    3  A    between atoms: N_13  and  C_14
REMARK    4  A    between atoms: C_19  and  O_20
REMARK    5  A    between atoms: O_20  and  C_21
REMARK                            x       y       z     vdW  Elec       q    Type
REMARK                         _______ _______ _______ _____ _____    ______ ____
ROOT
ATOM      1  O   UNL     1      -1.079  12.393  21.382  0.00  0.00    +0.000 OA
ATOM      2  C   UNL     1      -0.611  11.263  21.244  0.00  0.00    +0.000 C 
ATOM      3  C   UNL     1      -0.958  10.144  22.161  0.00  0.00    +0.000 C 
ATOM      4  C   UNL     1       0.221   9.577  22.870  0.00  0.00    +0.000 C 
ATOM      5  O   UNL     1       0.314   9.585  24.097  0.00  0.00    +0.000 OA
ATOM      6  N   UNL     1       1.154   8.911  22.131  0.00  0.00    +0.000 N 
ATOM      7  C   UNL     1       1.294   8.833  20.734  0.00  0.00    +0.000 A 
ATOM      8  C   UNL     1       2.032   7.732  20.259  0.00  0.00    +0.000 A 
ATOM      9  C   UNL     1       2.256   7.554  18.885  0.00  0.00    +0.000 A 
ATOM     10  C   UNL     1       1.783   8.496  17.976  0.00  0.00    +0.000 A 
ATOM     11  C   UNL     1       1.104   9.623  18.447  0.00  0.00    +0.000 A 
ATOM     12  C   UNL     1       0.823   9.792  19.815  0.00  0.00    +0.000 A 
ATOM     13  N   UNL     1       0.139  10.975  20.142  0.00  0.00    +0.000 N 
ATOM     14  H   UNL     1       1.779   8.364  22.713  0.00  0.00    +0.000 HD
ATOM     15  H   UNL     1       0.128  11.729  19.466  0.00  0.00    +0.000 HD
ENDROOT
BRANCH   9  16
ATOM     16  S   UNL     1       2.980   6.022  18.297  0.00  0.00    +0.000 S 
ATOM     17  O   UNL     1       3.859   5.582  19.360  0.00  0.00    +0.000 OA
ATOM     18  O   UNL     1       1.905   5.189  17.809  0.00  0.00    +0.000 OA
BRANCH  16  19
ATOM     19  N   UNL     1       3.958   6.526  17.014  0.00  0.00    +0.000 N 
ATOM     20  H   UNL     1       3.411   6.933  16.258  0.00  0.00    +0.000 HD
BRANCH  19  21
ATOM     21  C   UNL     1       4.994   5.643  16.560  0.00  0.00    +0.000 A 
ATOM     22  C   UNL     1       4.676   4.316  16.260  0.00  0.00    +0.000 A 
ATOM     23  C   UNL     1       5.651   3.461  15.748  0.00  0.00    +0.000 A 
ATOM     24  C   UNL     1       6.938   3.936  15.507  0.00  0.00    +0.000 A 
ATOM     25  C   UNL     1       7.267   5.255  15.821  0.00  0.00    +0.000 A 
ATOM     26  C   UNL     1       6.314   6.111  16.390  0.00  0.00    +0.000 A 
BRANCH  26  27
ATOM     27  O   UNL     1       6.579   7.413  16.738  0.00  0.00    +0.000 OA
BRANCH  27  28
ATOM     28  C   UNL     1       7.420   7.577  17.872  0.00  0.00    +0.000 C 
ATOM     29  F   UNL     1       7.857   6.357  18.278  0.00  0.00    +0.000 F 
ATOM     30  F   UNL     1       8.521   8.266  17.482  0.00  0.00    +0.000 F 
ENDBRANCH  27  28
ENDBRANCH  26  27
ENDBRANCH  19  21
ENDBRANCH  16  19
ENDBRANCH   9  16
TORSDOF 5
ENDMDL
