MODEL 1
REMARK VINA RESULT:      -8.4      0.000      0.000
REMARK  Name = 
REMARK  5 active torsions:
REMARK  status: ('A' for Active; 'I' for Inactive)
REMARK    1  A    between atoms: C_2  and  C_16
REMARK    2  A    between atoms: N_3  and  C_4
REMARK    3  A    between atoms: C_4  and  C_5
REMARK    4  A    between atoms: C_8  and  C_9
REMARK    5  A    between atoms: C_21  and  C_22
REMARK                            x       y       z     vdW  Elec       q    Type
REMARK                         _______ _______ _______ _____ _____    ______ ____
ROOT
ATOM      1  O   UNL     1       5.467   5.507  19.995  0.00  0.00    +0.000 OA
ATOM      2  C   UNL     1       5.365   5.056  18.857  0.00  0.00    +0.000 C 
ATOM      3  N   UNL     1       6.408   5.099  17.961  0.00  0.00    +0.000 N 
ATOM      4  H   UNL     1       6.317   4.781  17.009  0.00  0.00    +0.000 HD
ENDROOT
BRANCH   2   5
ATOM      5  C   UNL     1       4.050   4.528  18.381  0.00  0.00    +0.000 A 
ATOM      6  C   UNL     1       4.023   3.140  18.137  0.00  0.00    +0.000 A 
ATOM      7  C   UNL     1       2.850   2.488  17.755  0.00  0.00    +0.000 A 
ATOM      8  C   UNL     1       1.671   3.210  17.631  0.00  0.00    +0.000 A 
ATOM      9  C   UNL     1       1.689   4.590  17.826  0.00  0.00    +0.000 A 
ATOM     10  C   UNL     1       2.882   5.282  18.154  0.00  0.00    +0.000 A 
BRANCH  10  11
ATOM     11  C   UNL     1       2.801   6.783  18.150  0.00  0.00    +0.000 C 
ATOM     12  F   UNL     1       3.776   7.437  17.475  0.00  0.00    +0.000 F 
ATOM     13  F   UNL     1       1.633   7.228  17.600  0.00  0.00    +0.000 F 
ATOM     14  F   UNL     1       2.825   7.295  19.416  0.00  0.00    +0.000 F 
ENDBRANCH  10  11
ENDBRANCH   2   5
BRANCH   3  15
ATOM     15  C   UNL     1       7.715   5.587  18.348  0.00  0.00    +0.000 C 
BRANCH  15  16
ATOM     16  C   UNL     1       7.794   7.059  18.131  0.00  0.00    +0.000 A 
ATOM     17  N   UNL     1       7.124   7.766  17.246  0.00  0.00    +0.000 NA
ATOM     18  C   UNL     1       7.574   9.052  17.391  0.00  0.00    +0.000 A 
ATOM     19  C   UNL     1       8.538   9.153  18.379  0.00  0.00    +0.000 A 
ATOM     20  N   UNL     1       8.646   7.862  18.854  0.00  0.00    +0.000 N 
ATOM     21  H   UNL     1       9.228   7.550  19.618  0.00  0.00    +0.000 HD
BRANCH  19  22
ATOM     22  C   UNL     1       9.275  10.302  18.902  0.00  0.00    +0.000 A 
ATOM     23  C   UNL     1       9.330  10.529  20.285  0.00  0.00    +0.000 A 
ATOM     24  C   UNL     1      10.048  11.610  20.810  0.00  0.00    +0.000 A 
ATOM     25  C   UNL     1      10.713  12.480  19.955  0.00  0.00    +0.000 A 
ATOM     26  C   UNL     1      10.653  12.283  18.576  0.00  0.00    +0.000 A 
ATOM     27  C   UNL     1       9.935  11.199  18.050  0.00  0.00    +0.000 A 
ENDBRANCH  19  22
ENDBRANCH  15  16
ENDBRANCH   3  15
TORSDOF 5
ENDMDL
MODEL 2
REMARK VINA RESULT:      -8.4      0.215      1.222
REMARK  Name = 
REMARK  5 active torsions:
REMARK  status: ('A' for Active; 'I' for Inactive)
REMARK    1  A    between atoms: C_2  and  C_16
REMARK    2  A    between atoms: N_3  and  C_4
REMARK    3  A    between atoms: C_4  and  C_5
REMARK    4  A    between atoms: C_8  and  C_9
REMARK    5  A    between atoms: C_21  and  C_22
REMARK                            x       y       z     vdW  Elec       q    Type
REMARK                         _______ _______ _______ _____ _____    ______ ____
ROOT
ATOM      1  O   UNL     1       5.678   4.940  20.034  0.00  0.00    +0.000 OA
ATOM      2  C   UNL     1       5.443   4.866  18.831  0.00  0.00    +0.000 C 
ATOM      3  N   UNL     1       6.358   5.263  17.884  0.00  0.00    +0.000 N 
ATOM      4  H   UNL     1       6.154   5.257  16.898  0.00  0.00    +0.000 HD
ENDROOT
BRANCH   2   5
ATOM      5  C   UNL     1       4.093   4.424  18.363  0.00  0.00    +0.000 A 
ATOM      6  C   UNL     1       3.986   3.046  18.084  0.00  0.00    +0.000 A 
ATOM      7  C   UNL     1       2.773   2.471  17.704  0.00  0.00    +0.000 A 
ATOM      8  C   UNL     1       1.635   3.259  17.617  0.00  0.00    +0.000 A 
ATOM      9  C   UNL     1       1.731   4.631  17.847  0.00  0.00    +0.000 A 
ATOM     10  C   UNL     1       2.966   5.246  18.174  0.00  0.00    +0.000 A 
BRANCH  10  11
ATOM     11  C   UNL     1       2.968   6.749  18.210  0.00  0.00    +0.000 C 
ATOM     12  F   UNL     1       3.173   7.323  19.420  0.00  0.00    +0.000 F 
ATOM     13  F   UNL     1       3.936   7.276  17.403  0.00  0.00    +0.000 F 
ATOM     14  F   UNL     1       1.791   7.269  17.753  0.00  0.00    +0.000 F 
ENDBRANCH  10  11
ENDBRANCH   2   5
BRANCH   3  15
ATOM     15  C   UNL     1       7.689   5.695  18.257  0.00  0.00    +0.000 C 
BRANCH  15  16
ATOM     16  C   UNL     1       7.806   7.173  18.106  0.00  0.00    +0.000 A 
ATOM     17  N   UNL     1       7.162   7.935  17.248  0.00  0.00    +0.000 NA
ATOM     18  C   UNL     1       7.642   9.202  17.454  0.00  0.00    +0.000 A 
ATOM     19  C   UNL     1       8.599   9.235  18.453  0.00  0.00    +0.000 A 
ATOM     20  N   UNL     1       8.671   7.921  18.872  0.00  0.00    +0.000 N 
ATOM     21  H   UNL     1       9.238   7.562  19.625  0.00  0.00    +0.000 HD
BRANCH  19  22
ATOM     22  C   UNL     1       9.359  10.341  19.033  0.00  0.00    +0.000 A 
ATOM     23  C   UNL     1      10.170  11.139  18.214  0.00  0.00    +0.000 A 
ATOM     24  C   UNL     1      10.890  12.217  18.742  0.00  0.00    +0.000 A 
ATOM     25  C   UNL     1      10.811  12.502  20.099  0.00  0.00    +0.000 A 
ATOM     26  C   UNL     1      10.027  11.708  20.935  0.00  0.00    +0.000 A 
ATOM     27  C   UNL     1       9.305  10.629  20.404  0.00  0.00    +0.000 A 
ENDBRANCH  19  22
ENDBRANCH  15  16
ENDBRANCH   3  15
TORSDOF 5
ENDMDL
MODEL 3
REMARK VINA RESULT:      -8.4      2.324      2.931
REMARK  Name = 
REMARK  5 active torsions:
REMARK  status: ('A' for Active; 'I' for Inactive)
REMARK    1  A    between atoms: C_2  and  C_16
REMARK    2  A    between atoms: N_3  and  C_4
REMARK    3  A    between atoms: C_4  and  C_5
REMARK    4  A    between atoms: C_8  and  C_9
REMARK    5  A    between atoms: C_21  and  C_22
REMARK                            x       y       z     vdW  Elec       q    Type
REMARK                         _______ _______ _______ _____ _____    ______ ____
ROOT
ATOM      1  O   UNL     1       5.292   4.646  17.247  0.00  0.00    +0.000 OA
ATOM      2  C   UNL     1       5.169   4.956  18.429  0.00  0.00    +0.000 C 
ATOM      3  N   UNL     1       6.233   5.395  19.181  0.00  0.00    +0.000 N 
ATOM      4  H   UNL     1       6.154   5.600  20.164  0.00  0.00    +0.000 HD
ENDROOT
BRANCH   2   5
ATOM      5  C   UNL     1       3.853   4.768  19.114  0.00  0.00    +0.000 A 
ATOM      6  C   UNL     1       3.301   5.941  19.666  0.00  0.00    +0.000 A 
ATOM      7  C   UNL     1       2.046   5.941  20.277  0.00  0.00    +0.000 A 
ATOM      8  C   UNL     1       1.307   4.768  20.327  0.00  0.00    +0.000 A 
ATOM      9  C   UNL     1       1.855   3.589  19.825  0.00  0.00    +0.000 A 
ATOM     10  C   UNL     1       3.153   3.554  19.256  0.00  0.00    +0.000 A 
BRANCH  10  11
ATOM     11  C   UNL     1       3.697   2.192  18.927  0.00  0.00    +0.000 C 
ATOM     12  F   UNL     1       4.814   1.812  19.593  0.00  0.00    +0.000 F 
ATOM     13  F   UNL     1       2.785   1.206  19.178  0.00  0.00    +0.000 F 
ATOM     14  F   UNL     1       4.004   2.075  17.602  0.00  0.00    +0.000 F 
ENDBRANCH  10  11
ENDBRANCH   2   5
BRANCH   3  15
ATOM     15  C   UNL     1       7.537   5.612  18.588  0.00  0.00    +0.000 C 
BRANCH  15  16
ATOM     16  C   UNL     1       7.724   7.059  18.285  0.00  0.00    +0.000 A 
ATOM     17  N   UNL     1       7.153   7.746  17.319  0.00  0.00    +0.000 NA
ATOM     18  C   UNL     1       7.677   9.009  17.411  0.00  0.00    +0.000 A 
ATOM     19  C   UNL     1       8.588   9.115  18.448  0.00  0.00    +0.000 A 
ATOM     20  N   UNL     1       8.584   7.853  19.008  0.00  0.00    +0.000 N 
ATOM     21  H   UNL     1       9.100   7.557  19.824  0.00  0.00    +0.000 HD
BRANCH  19  22
ATOM     22  C   UNL     1       9.367  10.248  18.943  0.00  0.00    +0.000 A 
ATOM     23  C   UNL     1      10.134  11.014  18.053  0.00  0.00    +0.000 A 
ATOM     24  C   UNL     1      10.870  12.117  18.499  0.00  0.00    +0.000 A 
ATOM     25  C   UNL     1      10.854  12.460  19.846  0.00  0.00    +0.000 A 
ATOM     26  C   UNL     1      10.115  11.699  20.750  0.00  0.00    +0.000 A 
ATOM     27  C   UNL     1       9.376  10.594  20.301  0.00  0.00    +0.000 A 
ENDBRANCH  19  22
ENDBRANCH  15  16
ENDBRANCH   3  15
TORSDOF 5
ENDMDL
MODEL 4
REMARK VINA RESULT:      -8.3      0.918      1.110
REMARK  Name = 
REMARK  5 active torsions:
REMARK  status: ('A' for Active; 'I' for Inactive)
REMARK    1  A    between atoms: C_2  and  C_16
REMARK    2  A    between atoms: N_3  and  C_4
REMARK    3  A    between atoms: C_4  and  C_5
REMARK    4  A    between atoms: C_8  and  C_9
REMARK    5  A    between atoms: C_21  and  C_22
REMARK                            x       y       z     vdW  Elec       q    Type
REMARK                         _______ _______ _______ _____ _____    ______ ____
ROOT
ATOM      1  O   UNL     1       6.190   3.964  16.960  0.00  0.00    +0.000 OA
ATOM      2  C   UNL     1       5.610   4.396  17.952  0.00  0.00    +0.000 C 
ATOM      3  N   UNL     1       6.268   5.109  18.928  0.00  0.00    +0.000 N 
ATOM      4  H   UNL     1       5.812   5.421  19.771  0.00  0.00    +0.000 HD
ENDROOT
BRANCH   2   5
ATOM      5  C   UNL     1       4.168   4.070  18.172  0.00  0.00    +0.000 A 
ATOM      6  C   UNL     1       3.881   2.693  18.273  0.00  0.00    +0.000 A 
ATOM      7  C   UNL     1       2.593   2.233  18.547  0.00  0.00    +0.000 A 
ATOM      8  C   UNL     1       1.566   3.144  18.748  0.00  0.00    +0.000 A 
ATOM      9  C   UNL     1       1.821   4.508  18.609  0.00  0.00    +0.000 A 
ATOM     10  C   UNL     1       3.110   4.994  18.271  0.00  0.00    +0.000 A 
BRANCH  10  11
ATOM     11  C   UNL     1       3.205   6.463  17.968  0.00  0.00    +0.000 C 
ATOM     12  F   UNL     1       3.765   7.241  18.927  0.00  0.00    +0.000 F 
ATOM     13  F   UNL     1       3.944   6.704  16.845  0.00  0.00    +0.000 F 
ATOM     14  F   UNL     1       1.979   7.010  17.722  0.00  0.00    +0.000 F 
ENDBRANCH  10  11
ENDBRANCH   2   5
BRANCH   3  15
ATOM     15  C   UNL     1       7.662   5.473  18.785  0.00  0.00    +0.000 C 
BRANCH  15  16
ATOM     16  C   UNL     1       7.775   6.907  18.394  0.00  0.00    +0.000 A 
ATOM     17  N   UNL     1       7.166   7.506  17.394  0.00  0.00    +0.000 NA
ATOM     18  C   UNL     1       7.627   8.797  17.406  0.00  0.00    +0.000 A 
ATOM     19  C   UNL     1       8.538   9.009  18.428  0.00  0.00    +0.000 A 
ATOM     20  N   UNL     1       8.599   7.785  19.062  0.00  0.00    +0.000 N 
ATOM     21  H   UNL     1       9.133   7.563  19.889  0.00  0.00    +0.000 HD
BRANCH  19  22
ATOM     22  C   UNL     1       9.262  10.206  18.848  0.00  0.00    +0.000 A 
ATOM     23  C   UNL     1       9.439  10.477  20.213  0.00  0.00    +0.000 A 
ATOM     24  C   UNL     1      10.149  11.605  20.639  0.00  0.00    +0.000 A 
ATOM     25  C   UNL     1      10.683  12.481  19.702  0.00  0.00    +0.000 A 
ATOM     26  C   UNL     1      10.501  12.242  18.340  0.00  0.00    +0.000 A 
ATOM     27  C   UNL     1       9.790  11.110  17.914  0.00  0.00    +0.000 A 
ENDBRANCH  19  22
ENDBRANCH  15  16
ENDBRANCH   3  15
TORSDOF 5
ENDMDL
MODEL 5
REMARK VINA RESULT:      -8.2      2.371      2.806
REMARK  Name = 
REMARK  5 active torsions:
REMARK  status: ('A' for Active; 'I' for Inactive)
REMARK    1  A    between atoms: C_2  and  C_16
REMARK    2  A    between atoms: N_3  and  C_4
REMARK    3  A    between atoms: C_4  and  C_5
REMARK    4  A    between atoms: C_8  and  C_9
REMARK    5  A    between atoms: C_21  and  C_22
REMARK                            x       y       z     vdW  Elec       q    Type
REMARK                         _______ _______ _______ _____ _____    ______ ____
ROOT
ATOM      1  O   UNL     1       5.452   4.168  17.555  0.00  0.00    +0.000 OA
ATOM      2  C   UNL     1       5.214   4.727  18.623  0.00  0.00    +0.000 C 
ATOM      3  N   UNL     1       6.187   5.400  19.325  0.00  0.00    +0.000 N 
ATOM      4  H   UNL     1       6.016   5.815  20.227  0.00  0.00    +0.000 HD
ENDROOT
BRANCH   2   5
ATOM      5  C   UNL     1       3.859   4.603  19.242  0.00  0.00    +0.000 A 
ATOM      6  C   UNL     1       3.368   5.785  19.833  0.00  0.00    +0.000 A 
ATOM      7  C   UNL     1       2.091   5.847  20.391  0.00  0.00    +0.000 A 
ATOM      8  C   UNL     1       1.267   4.732  20.348  0.00  0.00    +0.000 A 
ATOM      9  C   UNL     1       1.752   3.541  19.807  0.00  0.00    +0.000 A 
ATOM     10  C   UNL     1       3.068   3.439  19.290  0.00  0.00    +0.000 A 
BRANCH  10  11
ATOM     11  C   UNL     1       3.526   2.058  18.912  0.00  0.00    +0.000 C 
ATOM     12  F   UNL     1       3.910   1.882  17.624  0.00  0.00    +0.000 F 
ATOM     13  F   UNL     1       4.599   1.657  19.656  0.00  0.00    +0.000 F 
ATOM     14  F   UNL     1       2.557   1.123  19.137  0.00  0.00    +0.000 F 
ENDBRANCH  10  11
ENDBRANCH   2   5
BRANCH   3  15
ATOM     15  C   UNL     1       7.521   5.571  18.788  0.00  0.00    +0.000 C 
BRANCH  15  16
ATOM     16  C   UNL     1       7.726   6.990  18.379  0.00  0.00    +0.000 A 
ATOM     17  N   UNL     1       7.202   7.597  17.336  0.00  0.00    +0.000 NA
ATOM     18  C   UNL     1       7.726   8.864  17.350  0.00  0.00    +0.000 A 
ATOM     19  C   UNL     1       8.590   9.053  18.415  0.00  0.00    +0.000 A 
ATOM     20  N   UNL     1       8.556   7.840  19.074  0.00  0.00    +0.000 N 
ATOM     21  H   UNL     1       9.034   7.610  19.933  0.00  0.00    +0.000 HD
BRANCH  19  22
ATOM     22  C   UNL     1       9.350  10.222  18.852  0.00  0.00    +0.000 A 
ATOM     23  C   UNL     1       9.354  10.589  20.206  0.00  0.00    +0.000 A 
ATOM     24  C   UNL     1      10.093  11.692  20.651  0.00  0.00    +0.000 A 
ATOM     25  C   UNL     1      10.829  12.444  19.744  0.00  0.00    +0.000 A 
ATOM     26  C   UNL     1      10.821  12.107  18.391  0.00  0.00    +0.000 A 
ATOM     27  C   UNL     1      10.081  11.002  17.946  0.00  0.00    +0.000 A 
ENDBRANCH  19  22
ENDBRANCH  15  16
ENDBRANCH   3  15
TORSDOF 5
ENDMDL
MODEL 6
REMARK VINA RESULT:      -8.1      5.221      6.859
REMARK  Name = 
REMARK  5 active torsions:
REMARK  status: ('A' for Active; 'I' for Inactive)
REMARK    1  A    between atoms: C_2  and  C_16
REMARK    2  A    between atoms: N_3  and  C_4
REMARK    3  A    between atoms: C_4  and  C_5
REMARK    4  A    between atoms: C_8  and  C_9
REMARK    5  A    between atoms: C_21  and  C_22
REMARK                            x       y       z     vdW  Elec       q    Type
REMARK                         _______ _______ _______ _____ _____    ______ ____
ROOT
ATOM      1  O   UNL     1       4.488   6.020  19.065  0.00  0.00    +0.000 OA
ATOM      2  C   UNL     1       3.302   5.723  18.950  0.00  0.00    +0.000 C 
ATOM      3  N   UNL     1       2.404   6.542  18.306  0.00  0.00    +0.000 N 
ATOM      4  H   UNL     1       1.420   6.332  18.254  0.00  0.00    +0.000 HD
ENDROOT
BRANCH   2   5
ATOM      5  C   UNL     1       2.779   4.484  19.605  0.00  0.00    +0.000 A 
ATOM      6  C   UNL     1       2.393   4.644  20.951  0.00  0.00    +0.000 A 
ATOM      7  C   UNL     1       1.822   3.598  21.677  0.00  0.00    +0.000 A 
ATOM      8  C   UNL     1       1.603   2.374  21.062  0.00  0.00    +0.000 A 
ATOM      9  C   UNL     1       2.019   2.184  19.745  0.00  0.00    +0.000 A 
ATOM     10  C   UNL     1       2.657   3.215  19.009  0.00  0.00    +0.000 A 
BRANCH  10  11
ATOM     11  C   UNL     1       3.221   2.822  17.672  0.00  0.00    +0.000 C 
ATOM     12  F   UNL     1       4.480   3.243  17.402  0.00  0.00    +0.000 F 
ATOM     13  F   UNL     1       3.262   1.466  17.515  0.00  0.00    +0.000 F 
ATOM     14  F   UNL     1       2.452   3.284  16.642  0.00  0.00    +0.000 F 
ENDBRANCH  10  11
ENDBRANCH   2   5
BRANCH   3  15
ATOM     15  C   UNL     1       2.834   7.753  17.639  0.00  0.00    +0.000 C 
BRANCH  15  16
ATOM     16  C   UNL     1       2.118   8.930  18.209  0.00  0.00    +0.000 A 
ATOM     17  N   UNL     1       2.045  10.138  17.695  0.00  0.00    +0.000 NA
ATOM     18  C   UNL     1       1.332  10.879  18.602  0.00  0.00    +0.000 A 
ATOM     19  C   UNL     1       0.954  10.124  19.699  0.00  0.00    +0.000 A 
ATOM     20  N   UNL     1       1.453   8.869  19.412  0.00  0.00    +0.000 N 
ATOM     21  H   UNL     1       1.336   8.035  19.969  0.00  0.00    +0.000 HD
BRANCH  19  22
ATOM     22  C   UNL     1       0.174  10.463  20.887  0.00  0.00    +0.000 A 
ATOM     23  C   UNL     1      -0.514  11.684  20.949  0.00  0.00    +0.000 A 
ATOM     24  C   UNL     1      -1.287  12.021  22.067  0.00  0.00    +0.000 A 
ATOM     25  C   UNL     1      -1.372  11.142  23.139  0.00  0.00    +0.000 A 
ATOM     26  C   UNL     1      -0.678   9.932  23.106  0.00  0.00    +0.000 A 
ATOM     27  C   UNL     1       0.094   9.595  21.985  0.00  0.00    +0.000 A 
ENDBRANCH  19  22
ENDBRANCH  15  16
ENDBRANCH   3  15
TORSDOF 5
ENDMDL
MODEL 7
REMARK VINA RESULT:      -8.0      5.033      8.041
REMARK  Name = 
REMARK  5 active torsions:
REMARK  status: ('A' for Active; 'I' for Inactive)
REMARK    1  A    between atoms: C_2  and  C_16
REMARK    2  A    between atoms: N_3  and  C_4
REMARK    3  A    between atoms: C_4  and  C_5
REMARK    4  A    between atoms: C_8  and  C_9
REMARK    5  A    between atoms: C_21  and  C_22
REMARK                            x       y       z     vdW  Elec       q    Type
REMARK                         _______ _______ _______ _____ _____    ______ ____
ROOT
ATOM      1  O   UNL     1       2.869   6.809  20.034  0.00  0.00    +0.000 OA
ATOM      2  C   UNL     1       2.584   6.417  18.906  0.00  0.00    +0.000 C 
ATOM      3  N   UNL     1       2.341   7.291  17.871  0.00  0.00    +0.000 N 
ATOM      4  H   UNL     1       2.054   6.980  16.957  0.00  0.00    +0.000 HD
ENDROOT
BRANCH   2   5
ATOM      5  C   UNL     1       2.398   4.956  18.650  0.00  0.00    +0.000 A 
ATOM      6  C   UNL     1       1.333   4.362  19.357  0.00  0.00    +0.000 A 
ATOM      7  C   UNL     1       0.991   3.022  19.172  0.00  0.00    +0.000 A 
ATOM      8  C   UNL     1       1.694   2.252  18.257  0.00  0.00    +0.000 A 
ATOM      9  C   UNL     1       2.778   2.811  17.581  0.00  0.00    +0.000 A 
ATOM     10  C   UNL     1       3.182   4.152  17.799  0.00  0.00    +0.000 A 
BRANCH  10  11
ATOM     11  C   UNL     1       4.473   4.570  17.153  0.00  0.00    +0.000 C 
ATOM     12  F   UNL     1       4.409   5.626  16.307  0.00  0.00    +0.000 F 
ATOM     13  F   UNL     1       5.416   4.916  18.078  0.00  0.00    +0.000 F 
ATOM     14  F   UNL     1       5.029   3.554  16.429  0.00  0.00    +0.000 F 
ENDBRANCH  10  11
ENDBRANCH   2   5
BRANCH   3  15
ATOM     15  C   UNL     1       2.509   8.719  18.036  0.00  0.00    +0.000 C 
BRANCH  15  16
ATOM     16  C   UNL     1       1.220   9.338  18.459  0.00  0.00    +0.000 A 
ATOM     17  N   UNL     1       0.858   9.657  19.682  0.00  0.00    +0.000 NA
ATOM     18  C   UNL     1      -0.421  10.138  19.571  0.00  0.00    +0.000 A 
ATOM     19  C   UNL     1      -0.866  10.119  18.261  0.00  0.00    +0.000 A 
ATOM     20  N   UNL     1       0.215   9.621  17.562  0.00  0.00    +0.000 N 
ATOM     21  H   UNL     1       0.280   9.502  16.562  0.00  0.00    +0.000 HD
BRANCH  19  22
ATOM     22  C   UNL     1      -2.125  10.551  17.658  0.00  0.00    +0.000 A 
ATOM     23  C   UNL     1      -3.045  11.294  18.412  0.00  0.00    +0.000 A 
ATOM     24  C   UNL     1      -4.248  11.738  17.849  0.00  0.00    +0.000 A 
ATOM     25  C   UNL     1      -4.546  11.434  16.527  0.00  0.00    +0.000 A 
ATOM     26  C   UNL     1      -3.655  10.678  15.767  0.00  0.00    +0.000 A 
ATOM     27  C   UNL     1      -2.450  10.235  16.331  0.00  0.00    +0.000 A 
ENDBRANCH  19  22
ENDBRANCH  15  16
ENDBRANCH   3  15
TORSDOF 5
ENDMDL
MODEL 8
REMARK VINA RESULT:      -8.0      4.136      6.805
REMARK  Name = 
REMARK  5 active torsions:
REMARK  status: ('A' for Active; 'I' for Inactive)
REMARK    1  A    between atoms: C_2  and  C_16
REMARK    2  A    between atoms: N_3  and  C_4
REMARK    3  A    between atoms: C_4  and  C_5
REMARK    4  A    between atoms: C_8  and  C_9
REMARK    5  A    between atoms: C_21  and  C_22
REMARK                            x       y       z     vdW  Elec       q    Type
REMARK                         _______ _______ _______ _____ _____    ______ ____
ROOT
ATOM      1  O   UNL     1       5.468   5.212  19.164  0.00  0.00    +0.000 OA
ATOM      2  C   UNL     1       4.383   5.440  18.637  0.00  0.00    +0.000 C 
ATOM      3  N   UNL     1       4.246   6.349  17.614  0.00  0.00    +0.000 N 
ATOM      4  H   UNL     1       3.352   6.582  17.213  0.00  0.00    +0.000 HD
ENDROOT
BRANCH   2   5
ATOM      5  C   UNL     1       3.146   4.791  19.172  0.00  0.00    +0.000 A 
ATOM      6  C   UNL     1       2.586   5.424  20.301  0.00  0.00    +0.000 A 
ATOM      7  C   UNL     1       1.394   4.978  20.872  0.00  0.00    +0.000 A 
ATOM      8  C   UNL     1       0.723   3.902  20.311  0.00  0.00    +0.000 A 
ATOM      9  C   UNL     1       1.283   3.237  19.220  0.00  0.00    +0.000 A 
ATOM     10  C   UNL     1       2.524   3.635  18.662  0.00  0.00    +0.000 A 
BRANCH  10  11
ATOM     11  C   UNL     1       3.104   2.723  17.617  0.00  0.00    +0.000 C 
ATOM     12  F   UNL     1       4.233   2.056  17.960  0.00  0.00    +0.000 F 
ATOM     13  F   UNL     1       2.221   1.751  17.244  0.00  0.00    +0.000 F 
ATOM     14  F   UNL     1       3.411   3.397  16.470  0.00  0.00    +0.000 F 
ENDBRANCH  10  11
ENDBRANCH   2   5
BRANCH   3  15
ATOM     15  C   UNL     1       5.396   7.011  17.035  0.00  0.00    +0.000 C 
BRANCH  15  16
ATOM     16  C   UNL     1       6.097   6.087  16.099  0.00  0.00    +0.000 A 
ATOM     17  N   UNL     1       7.379   5.792  16.089  0.00  0.00    +0.000 NA
ATOM     18  C   UNL     1       7.552   4.952  15.019  0.00  0.00    +0.000 A 
ATOM     19  C   UNL     1       6.362   4.719  14.350  0.00  0.00    +0.000 A 
ATOM     20  N   UNL     1       5.438   5.443  15.077  0.00  0.00    +0.000 N 
ATOM     21  H   UNL     1       4.443   5.482  14.912  0.00  0.00    +0.000 HD
BRANCH  19  22
ATOM     22  C   UNL     1       6.049   3.886  13.191  0.00  0.00    +0.000 A 
ATOM     23  C   UNL     1       7.079   3.237  12.495  0.00  0.00    +0.000 A 
ATOM     24  C   UNL     1       6.801   2.416  11.395  0.00  0.00    +0.000 A 
ATOM     25  C   UNL     1       5.488   2.244  10.975  0.00  0.00    +0.000 A 
ATOM     26  C   UNL     1       4.452   2.898  11.640  0.00  0.00    +0.000 A 
ATOM     27  C   UNL     1       4.731   3.719  12.743  0.00  0.00    +0.000 A 
ENDBRANCH  19  22
ENDBRANCH  15  16
ENDBRANCH   3  15
TORSDOF 5
ENDMDL
MODEL 9
REMARK VINA RESULT:      -7.9      4.967      8.136
REMARK  Name = 
REMARK  5 active torsions:
REMARK  status: ('A' for Active; 'I' for Inactive)
REMARK    1  A    between atoms: C_2  and  C_16
REMARK    2  A    between atoms: N_3  and  C_4
REMARK    3  A    between atoms: C_4  and  C_5
REMARK    4  A    between atoms: C_8  and  C_9
REMARK    5  A    between atoms: C_21  and  C_22
REMARK                            x       y       z     vdW  Elec       q    Type
REMARK                         _______ _______ _______ _____ _____    ______ ____
ROOT
ATOM      1  O   UNL     1       2.660   6.972  20.091  0.00  0.00    +0.000 OA
ATOM      2  C   UNL     1       2.537   6.621  18.920  0.00  0.00    +0.000 C 
ATOM      3  N   UNL     1       2.389   7.529  17.898  0.00  0.00    +0.000 N 
ATOM      4  H   UNL     1       2.235   7.250  16.943  0.00  0.00    +0.000 HD
ENDROOT
BRANCH   2   5
ATOM      5  C   UNL     1       2.450   5.166  18.586  0.00  0.00    +0.000 A 
ATOM      6  C   UNL     1       1.403   4.473  19.227  0.00  0.00    +0.000 A 
ATOM      7  C   UNL     1       1.149   3.127  18.965  0.00  0.00    +0.000 A 
ATOM      8  C   UNL     1       1.925   2.449  18.035  0.00  0.00    +0.000 A 
ATOM      9  C   UNL     1       2.992   3.107  17.423  0.00  0.00    +0.000 A 
ATOM     10  C   UNL     1       3.305   4.457  17.721  0.00  0.00    +0.000 A 
BRANCH  10  11
ATOM     11  C   UNL     1       4.586   4.984  17.138  0.00  0.00    +0.000 C 
ATOM     12  F   UNL     1       4.469   5.987  16.234  0.00  0.00    +0.000 F 
ATOM     13  F   UNL     1       5.420   5.475  18.102  0.00  0.00    +0.000 F 
ATOM     14  F   UNL     1       5.297   4.004  16.507  0.00  0.00    +0.000 F 
ENDBRANCH  10  11
ENDBRANCH   2   5
BRANCH   3  15
ATOM     15  C   UNL     1       2.472   8.955  18.140  0.00  0.00    +0.000 C 
BRANCH  15  16
ATOM     16  C   UNL     1       1.137   9.481  18.541  0.00  0.00    +0.000 A 
ATOM     17  N   UNL     1       0.701   9.685  19.765  0.00  0.00    +0.000 NA
ATOM     18  C   UNL     1      -0.592  10.119  19.625  0.00  0.00    +0.000 A 
ATOM     19  C   UNL     1      -0.971  10.187  18.295  0.00  0.00    +0.000 A 
ATOM     20  N   UNL     1       0.165   9.793  17.617  0.00  0.00    +0.000 N 
ATOM     21  H   UNL     1       0.285   9.758  16.616  0.00  0.00    +0.000 HD
BRANCH  19  22
ATOM     22  C   UNL     1      -2.218  10.612  17.663  0.00  0.00    +0.000 A 
ATOM     23  C   UNL     1      -2.458  10.312  16.314  0.00  0.00    +0.000 A 
ATOM     24  C   UNL     1      -3.654  10.689  15.693  0.00  0.00    +0.000 A 
ATOM     25  C   UNL     1      -4.621  11.379  16.414  0.00  0.00    +0.000 A 
ATOM     26  C   UNL     1      -4.393  11.705  17.751  0.00  0.00    +0.000 A 
ATOM     27  C   UNL     1      -3.194  11.326  18.373  0.00  0.00    +0.000 A 
ENDBRANCH  19  22
ENDBRANCH  15  16
ENDBRANCH   3  15
TORSDOF 5
ENDMDL
