MODEL 1
REMARK VINA RESULT:      -8.5      0.000      0.000
REMARK  Name = 
REMARK  8 active torsions:
REMARK  status: ('A' for Active; 'I' for Inactive)
REMARK    1  A    between atoms: C_2  and  C_3
REMARK    2  A    between atoms: C_3  and  S_4
REMARK    3  A    between atoms: S_4  and  C_5
REMARK    4  A    between atoms: C_8  and  C_9
REMARK    5  A    between atoms: N_15  and  C_16
REMARK    6  A    between atoms: C_16  and  C_17
REMARK    7  A    between atoms: N_23  and  C_24
REMARK    8  A    between atoms: C_24  and  C_25
REMARK                            x       y       z     vdW  Elec       q    Type
REMARK                         _______ _______ _______ _____ _____    ______ ____
ROOT
ATOM      1  C   UNL     1       1.028   9.315  21.353  0.00  0.00    +0.000 A 
ATOM      2  N   UNL     1       1.008   9.103  22.643  0.00  0.00    +0.000 NA
ATOM      3  N   UNL     1       0.270  10.084  23.223  0.00  0.00    +0.000 NA
ATOM      4  C   UNL     1      -0.166  10.905  22.279  0.00  0.00    +0.000 A 
ATOM      5  N   UNL     1       0.370  10.490  21.059  0.00  0.00    +0.000 N 
ENDROOT
BRANCH   4   6
ATOM      6  C   UNL     1      -0.971  12.090  22.574  0.00  0.00    +0.000 A 
ATOM      7  C   UNL     1      -2.303  11.930  22.978  0.00  0.00    +0.000 A 
ATOM      8  C   UNL     1      -3.089  13.041  23.272  0.00  0.00    +0.000 A 
ATOM      9  C   UNL     1      -2.517  14.294  23.160  0.00  0.00    +0.000 A 
ATOM     10  N   UNL     1      -1.248  14.503  22.750  0.00  0.00    +0.000 NA
ATOM     11  C   UNL     1      -0.517  13.398  22.453  0.00  0.00    +0.000 A 
ENDBRANCH   4   6
BRANCH   1  12
ATOM     12  S   UNL     1       1.761   8.225  20.232  0.00  0.00    +0.000 S 
BRANCH  12  13
ATOM     13  C   UNL     1       1.024   6.631  20.740  0.00  0.00    +0.000 C 
BRANCH  13  15
ATOM     14  O   UNL     1       1.633   4.313  20.998  0.00  0.00    +0.000 OA
ATOM     15  C   UNL     1       1.976   5.442  20.646  0.00  0.00    +0.000 C 
ATOM     16  N   UNL     1       3.191   5.686  20.046  0.00  0.00    +0.000 N 
ATOM     17  H   UNL     1       3.474   6.654  19.903  0.00  0.00    +0.000 HD
BRANCH  16  18
ATOM     18  C   UNL     1       4.100   4.615  19.689  0.00  0.00    +0.000 C 
BRANCH  18  19
ATOM     19  C   UNL     1       5.061   4.939  18.563  0.00  0.00    +0.000 A 
ATOM     20  C   UNL     1       6.295   5.599  18.780  0.00  0.00    +0.000 A 
ATOM     21  C   UNL     1       7.175   5.866  17.721  0.00  0.00    +0.000 A 
ATOM     22  C   UNL     1       6.802   5.468  16.458  0.00  0.00    +0.000 A 
ATOM     23  C   UNL     1       5.585   4.876  16.222  0.00  0.00    +0.000 A 
ATOM     24  C   UNL     1       4.689   4.620  17.241  0.00  0.00    +0.000 A 
ATOM     25  O   UNL     1       5.408   4.565  14.908  0.00  0.00    +0.000 OA
ATOM     26  C   UNL     1       6.731   4.839  14.400  0.00  0.00    +0.000 C 
ATOM     27  O   UNL     1       7.545   5.590  15.324  0.00  0.00    +0.000 OA
ENDBRANCH  18  19
ENDBRANCH  16  18
ENDBRANCH  13  15
ENDBRANCH  12  13
ENDBRANCH   1  12
BRANCH   5  28
ATOM     28  C   UNL     1       0.336  11.211  19.787  0.00  0.00    +0.000 C 
BRANCH  28  29
ATOM     29  C   UNL     1      -0.924  10.931  18.984  0.00  0.00    +0.000 A 
ATOM     30  C   UNL     1      -0.922   9.963  17.964  0.00  0.00    +0.000 A 
ATOM     31  C   UNL     1      -2.009   9.836  17.100  0.00  0.00    +0.000 A 
ATOM     32  C   UNL     1      -3.135  10.640  17.268  0.00  0.00    +0.000 A 
ATOM     33  C   UNL     1      -3.190  11.541  18.329  0.00  0.00    +0.000 A 
ATOM     34  C   UNL     1      -2.098  11.678  19.192  0.00  0.00    +0.000 A 
ENDBRANCH  28  29
ENDBRANCH   5  28
TORSDOF 8
ENDMDL
MODEL 2
REMARK VINA RESULT:      -8.5      3.698      9.905
REMARK  Name = 
REMARK  8 active torsions:
REMARK  status: ('A' for Active; 'I' for Inactive)
REMARK    1  A    between atoms: C_2  and  C_3
REMARK    2  A    between atoms: C_3  and  S_4
REMARK    3  A    between atoms: S_4  and  C_5
REMARK    4  A    between atoms: C_8  and  C_9
REMARK    5  A    between atoms: N_15  and  C_16
REMARK    6  A    between atoms: C_16  and  C_17
REMARK    7  A    between atoms: N_23  and  C_24
REMARK    8  A    between atoms: C_24  and  C_25
REMARK                            x       y       z     vdW  Elec       q    Type
REMARK                         _______ _______ _______ _____ _____    ______ ____
ROOT
ATOM      1  C   UNL     1       2.361   7.349  19.319  0.00  0.00    +0.000 A 
ATOM      2  N   UNL     1       2.448   8.350  18.483  0.00  0.00    +0.000 NA
ATOM      3  N   UNL     1       3.390   8.046  17.553  0.00  0.00    +0.000 NA
ATOM      4  C   UNL     1       3.885   6.848  17.823  0.00  0.00    +0.000 A 
ATOM      5  N   UNL     1       3.304   6.393  19.008  0.00  0.00    +0.000 N 
ENDROOT
BRANCH   4   6
ATOM      6  C   UNL     1       4.945   6.234  17.023  0.00  0.00    +0.000 A 
ATOM      7  C   UNL     1       4.647   5.117  16.233  0.00  0.00    +0.000 A 
ATOM      8  C   UNL     1       5.636   4.519  15.457  0.00  0.00    +0.000 A 
ATOM      9  C   UNL     1       6.908   5.060  15.487  0.00  0.00    +0.000 A 
ATOM     10  N   UNL     1       7.252   6.118  16.252  0.00  0.00    +0.000 NA
ATOM     11  C   UNL     1       6.267   6.664  17.010  0.00  0.00    +0.000 A 
ENDBRANCH   4   6
BRANCH   1  12
ATOM     12  S   UNL     1       1.192   7.282  20.588  0.00  0.00    +0.000 S 
BRANCH  12  13
ATOM     13  C   UNL     1       1.480   8.879  21.432  0.00  0.00    +0.000 C 
BRANCH  13  15
ATOM     14  O   UNL     1      -0.135  10.623  21.831  0.00  0.00    +0.000 OA
ATOM     15  C   UNL     1       0.527   9.992  21.006  0.00  0.00    +0.000 C 
ATOM     16  N   UNL     1       0.537  10.319  19.668  0.00  0.00    +0.000 N 
ATOM     17  H   UNL     1       0.992   9.681  19.018  0.00  0.00    +0.000 HD
BRANCH  16  18
ATOM     18  C   UNL     1      -0.144  11.493  19.160  0.00  0.00    +0.000 C 
BRANCH  18  19
ATOM     19  C   UNL     1      -1.567  11.259  18.697  0.00  0.00    +0.000 A 
ATOM     20  C   UNL     1      -1.908  10.262  17.751  0.00  0.00    +0.000 A 
ATOM     21  C   UNL     1      -3.238  10.053  17.358  0.00  0.00    +0.000 A 
ATOM     22  C   UNL     1      -4.207  10.851  17.920  0.00  0.00    +0.000 A 
ATOM     23  C   UNL     1      -3.889  11.858  18.798  0.00  0.00    +0.000 A 
ATOM     24  C   UNL     1      -2.586  12.101  19.187  0.00  0.00    +0.000 A 
ATOM     25  O   UNL     1      -4.989  12.532  19.233  0.00  0.00    +0.000 OA
ATOM     26  C   UNL     1      -6.033  11.695  18.691  0.00  0.00    +0.000 C 
ATOM     27  O   UNL     1      -5.549  10.758  17.706  0.00  0.00    +0.000 OA
ENDBRANCH  18  19
ENDBRANCH  16  18
ENDBRANCH  13  15
ENDBRANCH  12  13
ENDBRANCH   1  12
BRANCH   5  28
ATOM     28  C   UNL     1       3.700   5.225  19.795  0.00  0.00    +0.000 C 
BRANCH  28  29
ATOM     29  C   UNL     1       3.060   3.937  19.303  0.00  0.00    +0.000 A 
ATOM     30  C   UNL     1       1.661   3.793  19.287  0.00  0.00    +0.000 A 
ATOM     31  C   UNL     1       1.075   2.556  19.021  0.00  0.00    +0.000 A 
ATOM     32  C   UNL     1       1.872   1.454  18.720  0.00  0.00    +0.000 A 
ATOM     33  C   UNL     1       3.255   1.601  18.642  0.00  0.00    +0.000 A 
ATOM     34  C   UNL     1       3.847   2.838  18.917  0.00  0.00    +0.000 A 
ENDBRANCH  28  29
ENDBRANCH   5  28
TORSDOF 8
ENDMDL
MODEL 3
REMARK VINA RESULT:      -8.3      3.721     10.817
REMARK  Name = 
REMARK  8 active torsions:
REMARK  status: ('A' for Active; 'I' for Inactive)
REMARK    1  A    between atoms: C_2  and  C_3
REMARK    2  A    between atoms: C_3  and  S_4
REMARK    3  A    between atoms: S_4  and  C_5
REMARK    4  A    between atoms: C_8  and  C_9
REMARK    5  A    between atoms: N_15  and  C_16
REMARK    6  A    between atoms: C_16  and  C_17
REMARK    7  A    between atoms: N_23  and  C_24
REMARK    8  A    between atoms: C_24  and  C_25
REMARK                            x       y       z     vdW  Elec       q    Type
REMARK                         _______ _______ _______ _____ _____    ______ ____
ROOT
ATOM      1  C   UNL     1       2.517   7.581  18.994  0.00  0.00    +0.000 A 
ATOM      2  N   UNL     1       2.651   8.489  18.064  0.00  0.00    +0.000 NA
ATOM      3  N   UNL     1       3.570   8.046  17.167  0.00  0.00    +0.000 NA
ATOM      4  C   UNL     1       4.003   6.856  17.553  0.00  0.00    +0.000 A 
ATOM      5  N   UNL     1       3.406   6.550  18.778  0.00  0.00    +0.000 N 
ENDROOT
BRANCH   4   6
ATOM      6  C   UNL     1       5.025   6.112  16.817  0.00  0.00    +0.000 A 
ATOM      7  C   UNL     1       4.672   4.921  16.169  0.00  0.00    +0.000 A 
ATOM      8  C   UNL     1       5.624   4.197  15.456  0.00  0.00    +0.000 A 
ATOM      9  C   UNL     1       6.914   4.690  15.402  0.00  0.00    +0.000 A 
ATOM     10  N   UNL     1       7.310   5.817  16.031  0.00  0.00    +0.000 NA
ATOM     11  C   UNL     1       6.361   6.486  16.733  0.00  0.00    +0.000 A 
ENDBRANCH   4   6
BRANCH   1  12
ATOM     12  S   UNL     1       1.353   7.700  20.264  0.00  0.00    +0.000 S 
BRANCH  12  13
ATOM     13  C   UNL     1       0.984   9.491  20.252  0.00  0.00    +0.000 C 
BRANCH  13  15
ATOM     14  O   UNL     1       0.339   9.374  22.571  0.00  0.00    +0.000 OA
ATOM     15  C   UNL     1       0.280   9.994  21.509  0.00  0.00    +0.000 C 
ATOM     16  N   UNL     1      -0.325  11.227  21.411  0.00  0.00    +0.000 N 
ATOM     17  H   UNL     1      -0.462  11.627  20.485  0.00  0.00    +0.000 HD
BRANCH  16  18
ATOM     18  C   UNL     1      -0.835  11.927  22.574  0.00  0.00    +0.000 C 
BRANCH  18  19
ATOM     19  C   UNL     1      -2.293  12.328  22.492  0.00  0.00    +0.000 A 
ATOM     20  C   UNL     1      -2.864  12.896  21.327  0.00  0.00    +0.000 A 
ATOM     21  C   UNL     1      -4.224  13.238  21.273  0.00  0.00    +0.000 A 
ATOM     22  C   UNL     1      -4.990  13.005  22.391  0.00  0.00    +0.000 A 
ATOM     23  C   UNL     1      -4.441  12.505  23.547  0.00  0.00    +0.000 A 
ATOM     24  C   UNL     1      -3.102  12.180  23.637  0.00  0.00    +0.000 A 
ATOM     25  O   UNL     1      -5.366  12.354  24.535  0.00  0.00    +0.000 OA
ATOM     26  C   UNL     1      -6.577  12.618  23.794  0.00  0.00    +0.000 C 
ATOM     27  O   UNL     1      -6.330  13.217  22.506  0.00  0.00    +0.000 OA
ENDBRANCH  18  19
ENDBRANCH  16  18
ENDBRANCH  13  15
ENDBRANCH  12  13
ENDBRANCH   1  12
BRANCH   5  28
ATOM     28  C   UNL     1       3.745   5.446  19.675  0.00  0.00    +0.000 C 
BRANCH  28  29
ATOM     29  C   UNL     1       2.648   4.397  19.760  0.00  0.00    +0.000 A 
ATOM     30  C   UNL     1       2.218   3.910  21.008  0.00  0.00    +0.000 A 
ATOM     31  C   UNL     1       1.356   2.817  21.087  0.00  0.00    +0.000 A 
ATOM     32  C   UNL     1       0.871   2.222  19.924  0.00  0.00    +0.000 A 
ATOM     33  C   UNL     1       1.215   2.749  18.682  0.00  0.00    +0.000 A 
ATOM     34  C   UNL     1       2.087   3.839  18.597  0.00  0.00    +0.000 A 
ENDBRANCH  28  29
ENDBRANCH   5  28
TORSDOF 8
ENDMDL
MODEL 4
REMARK VINA RESULT:      -8.2      5.239      8.630
REMARK  Name = 
REMARK  8 active torsions:
REMARK  status: ('A' for Active; 'I' for Inactive)
REMARK    1  A    between atoms: C_2  and  C_3
REMARK    2  A    between atoms: C_3  and  S_4
REMARK    3  A    between atoms: S_4  and  C_5
REMARK    4  A    between atoms: C_8  and  C_9
REMARK    5  A    between atoms: N_15  and  C_16
REMARK    6  A    between atoms: C_16  and  C_17
REMARK    7  A    between atoms: N_23  and  C_24
REMARK    8  A    between atoms: C_24  and  C_25
REMARK                            x       y       z     vdW  Elec       q    Type
REMARK                         _______ _______ _______ _____ _____    ______ ____
ROOT
ATOM      1  C   UNL     1       5.844   5.203  17.912  0.00  0.00    +0.000 A 
ATOM      2  N   UNL     1       6.489   4.586  18.867  0.00  0.00    +0.000 NA
ATOM      3  N   UNL     1       5.586   3.902  19.616  0.00  0.00    +0.000 NA
ATOM      4  C   UNL     1       4.376   4.103  19.115  0.00  0.00    +0.000 A 
ATOM      5  N   UNL     1       4.487   5.007  18.058  0.00  0.00    +0.000 N 
ENDROOT
BRANCH   4   6
ATOM      6  C   UNL     1       3.171   3.526  19.711  0.00  0.00    +0.000 A 
ATOM      7  C   UNL     1       2.913   3.734  21.071  0.00  0.00    +0.000 A 
ATOM      8  C   UNL     1       1.769   3.203  21.661  0.00  0.00    +0.000 A 
ATOM      9  C   UNL     1       0.902   2.476  20.867  0.00  0.00    +0.000 A 
ATOM     10  N   UNL     1       1.118   2.226  19.558  0.00  0.00    +0.000 NA
ATOM     11  C   UNL     1       2.253   2.742  19.022  0.00  0.00    +0.000 A 
ENDBRANCH   4   6
BRANCH   1  12
ATOM     12  S   UNL     1       6.637   6.091  16.662  0.00  0.00    +0.000 S 
BRANCH  12  13
ATOM     13  C   UNL     1       6.593   7.790  17.340  0.00  0.00    +0.000 C 
BRANCH  13  15
ATOM     14  O   UNL     1       8.480   7.303  18.758  0.00  0.00    +0.000 OA
ATOM     15  C   UNL     1       7.812   8.161  18.179  0.00  0.00    +0.000 C 
ATOM     16  N   UNL     1       8.181   9.488  18.157  0.00  0.00    +0.000 N 
ATOM     17  H   UNL     1       7.522  10.166  17.781  0.00  0.00    +0.000 HD
BRANCH  16  18
ATOM     18  C   UNL     1       9.436   9.945  18.720  0.00  0.00    +0.000 C 
BRANCH  18  19
ATOM     19  C   UNL     1       9.837  11.353  18.330  0.00  0.00    +0.000 A 
ATOM     20  C   UNL     1      11.051  11.643  17.661  0.00  0.00    +0.000 A 
ATOM     21  C   UNL     1      11.386  12.955  17.293  0.00  0.00    +0.000 A 
ATOM     22  C   UNL     1      10.497  13.957  17.605  0.00  0.00    +0.000 A 
ATOM     23  C   UNL     1       9.341  13.701  18.301  0.00  0.00    +0.000 A 
ATOM     24  C   UNL     1       8.995  12.423  18.696  0.00  0.00    +0.000 A 
ATOM     25  O   UNL     1       8.605  14.826  18.512  0.00  0.00    +0.000 OA
ATOM     26  C   UNL     1       9.330  15.764  17.688  0.00  0.00    +0.000 C 
ATOM     27  O   UNL     1      10.623  15.273  17.280  0.00  0.00    +0.000 OA
ENDBRANCH  18  19
ENDBRANCH  16  18
ENDBRANCH  13  15
ENDBRANCH  12  13
ENDBRANCH   1  12
BRANCH   5  28
ATOM     28  C   UNL     1       3.397   5.679  17.351  0.00  0.00    +0.000 C 
BRANCH  28  29
ATOM     29  C   UNL     1       2.854   6.880  18.108  0.00  0.00    +0.000 A 
ATOM     30  C   UNL     1       2.458   6.760  19.452  0.00  0.00    +0.000 A 
ATOM     31  C   UNL     1       1.785   7.800  20.092  0.00  0.00    +0.000 A 
ATOM     32  C   UNL     1       1.538   8.994  19.418  0.00  0.00    +0.000 A 
ATOM     33  C   UNL     1       2.004   9.163  18.116  0.00  0.00    +0.000 A 
ATOM     34  C   UNL     1       2.672   8.119  17.467  0.00  0.00    +0.000 A 
ENDBRANCH  28  29
ENDBRANCH   5  28
TORSDOF 8
ENDMDL
MODEL 5
REMARK VINA RESULT:      -8.1      3.598      9.980
REMARK  Name = 
REMARK  8 active torsions:
REMARK  status: ('A' for Active; 'I' for Inactive)
REMARK    1  A    between atoms: C_2  and  C_3
REMARK    2  A    between atoms: C_3  and  S_4
REMARK    3  A    between atoms: S_4  and  C_5
REMARK    4  A    between atoms: C_8  and  C_9
REMARK    5  A    between atoms: N_15  and  C_16
REMARK    6  A    between atoms: C_16  and  C_17
REMARK    7  A    between atoms: N_23  and  C_24
REMARK    8  A    between atoms: C_24  and  C_25
REMARK                            x       y       z     vdW  Elec       q    Type
REMARK                         _______ _______ _______ _____ _____    ______ ____
ROOT
ATOM      1  C   UNL     1       2.005   7.588  19.602  0.00  0.00    +0.000 A 
ATOM      2  N   UNL     1       2.209   8.469  18.658  0.00  0.00    +0.000 NA
ATOM      3  N   UNL     1       3.143   7.972  17.807  0.00  0.00    +0.000 NA
ATOM      4  C   UNL     1       3.516   6.776  18.235  0.00  0.00    +0.000 A 
ATOM      5  N   UNL     1       2.863   6.521  19.441  0.00  0.00    +0.000 N 
ENDROOT
BRANCH   4   6
ATOM      6  C   UNL     1       4.536   5.978  17.554  0.00  0.00    +0.000 A 
ATOM      7  C   UNL     1       4.139   4.927  16.718  0.00  0.00    +0.000 A 
ATOM      8  C   UNL     1       5.089   4.157  16.053  0.00  0.00    +0.000 A 
ATOM      9  C   UNL     1       6.424   4.463  16.238  0.00  0.00    +0.000 A 
ATOM     10  N   UNL     1       6.859   5.448  17.054  0.00  0.00    +0.000 NA
ATOM     11  C   UNL     1       5.905   6.165  17.701  0.00  0.00    +0.000 A 
ENDBRANCH   4   6
BRANCH   1  12
ATOM     12  S   UNL     1       0.800   7.778  20.823  0.00  0.00    +0.000 S 
BRANCH  12  13
ATOM     13  C   UNL     1       1.333   9.336  21.619  0.00  0.00    +0.000 C 
BRANCH  13  15
ATOM     14  O   UNL     1       1.023  11.717  21.411  0.00  0.00    +0.000 OA
ATOM     15  C   UNL     1       0.724  10.593  21.006  0.00  0.00    +0.000 C 
ATOM     16  N   UNL     1      -0.086  10.400  19.909  0.00  0.00    +0.000 N 
ATOM     17  H   UNL     1      -0.406   9.456  19.705  0.00  0.00    +0.000 HD
BRANCH  16  18
ATOM     18  C   UNL     1      -0.550  11.505  19.093  0.00  0.00    +0.000 C 
BRANCH  18  19
ATOM     19  C   UNL     1      -2.039  11.774  19.168  0.00  0.00    +0.000 A 
ATOM     20  C   UNL     1      -2.632  12.499  20.230  0.00  0.00    +0.000 A 
ATOM     21  C   UNL     1      -4.011  12.752  20.261  0.00  0.00    +0.000 A 
ATOM     22  C   UNL     1      -4.776  12.272  19.224  0.00  0.00    +0.000 A 
ATOM     23  C   UNL     1      -4.226  11.521  18.213  0.00  0.00    +0.000 A 
ATOM     24  C   UNL     1      -2.876  11.238  18.168  0.00  0.00    +0.000 A 
ATOM     25  O   UNL     1      -5.152  11.140  17.291  0.00  0.00    +0.000 OA
ATOM     26  C   UNL     1      -6.288  11.913  17.733  0.00  0.00    +0.000 C 
ATOM     27  O   UNL     1      -6.113  12.466  19.054  0.00  0.00    +0.000 OA
ENDBRANCH  18  19
ENDBRANCH  16  18
ENDBRANCH  13  15
ENDBRANCH  12  13
ENDBRANCH   1  12
BRANCH   5  28
ATOM     28  C   UNL     1       3.125   5.425  20.375  0.00  0.00    +0.000 C 
BRANCH  28  29
ATOM     29  C   UNL     1       2.587   4.091  19.885  0.00  0.00    +0.000 A 
ATOM     30  C   UNL     1       3.461   3.023  19.612  0.00  0.00    +0.000 A 
ATOM     31  C   UNL     1       2.999   1.867  18.984  0.00  0.00    +0.000 A 
ATOM     32  C   UNL     1       1.649   1.737  18.661  0.00  0.00    +0.000 A 
ATOM     33  C   UNL     1       0.755   2.747  19.007  0.00  0.00    +0.000 A 
ATOM     34  C   UNL     1       1.215   3.912  19.628  0.00  0.00    +0.000 A 
ENDBRANCH  28  29
ENDBRANCH   5  28
TORSDOF 8
ENDMDL
MODEL 6
REMARK VINA RESULT:      -8.1      3.789      9.227
REMARK  Name = 
REMARK  8 active torsions:
REMARK  status: ('A' for Active; 'I' for Inactive)
REMARK    1  A    between atoms: C_2  and  C_3
REMARK    2  A    between atoms: C_3  and  S_4
REMARK    3  A    between atoms: S_4  and  C_5
REMARK    4  A    between atoms: C_8  and  C_9
REMARK    5  A    between atoms: N_15  and  C_16
REMARK    6  A    between atoms: C_16  and  C_17
REMARK    7  A    between atoms: N_23  and  C_24
REMARK    8  A    between atoms: C_24  and  C_25
REMARK                            x       y       z     vdW  Elec       q    Type
REMARK                         _______ _______ _______ _____ _____    ______ ____
ROOT
ATOM      1  C   UNL     1       2.380   7.375  19.337  0.00  0.00    +0.000 A 
ATOM      2  N   UNL     1       2.414   8.350  18.466  0.00  0.00    +0.000 NA
ATOM      3  N   UNL     1       3.347   8.048  17.527  0.00  0.00    +0.000 NA
ATOM      4  C   UNL     1       3.890   6.877  17.826  0.00  0.00    +0.000 A 
ATOM      5  N   UNL     1       3.351   6.443  19.038  0.00  0.00    +0.000 N 
ENDROOT
BRANCH   4   6
ATOM      6  C   UNL     1       4.956   6.275  17.025  0.00  0.00    +0.000 A 
ATOM      7  C   UNL     1       4.656   5.191  16.190  0.00  0.00    +0.000 A 
ATOM      8  C   UNL     1       5.650   4.604  15.412  0.00  0.00    +0.000 A 
ATOM      9  C   UNL     1       6.929   5.123  15.484  0.00  0.00    +0.000 A 
ATOM     10  N   UNL     1       7.275   6.148  16.292  0.00  0.00    +0.000 NA
ATOM     11  C   UNL     1       6.284   6.683  17.051  0.00  0.00    +0.000 A 
ENDBRANCH   4   6
BRANCH   1  12
ATOM     12  S   UNL     1       1.240   7.310  20.632  0.00  0.00    +0.000 S 
BRANCH  12  13
ATOM     13  C   UNL     1       1.595   8.876  21.507  0.00  0.00    +0.000 C 
BRANCH  13  15
ATOM     14  O   UNL     1       0.199  10.717  22.192  0.00  0.00    +0.000 OA
ATOM     15  C   UNL     1       0.555   9.969  21.281  0.00  0.00    +0.000 C 
ATOM     16  N   UNL     1       0.125  10.137  19.983  0.00  0.00    +0.000 N 
ATOM     17  H   UNL     1       0.343   9.410  19.304  0.00  0.00    +0.000 HD
BRANCH  16  18
ATOM     18  C   UNL     1      -0.685  11.270  19.583  0.00  0.00    +0.000 C 
BRANCH  18  19
ATOM     19  C   UNL     1       0.094  12.521  19.229  0.00  0.00    +0.000 A 
ATOM     20  C   UNL     1      -0.486  13.813  19.253  0.00  0.00    +0.000 A 
ATOM     21  C   UNL     1       0.266  14.955  18.941  0.00  0.00    +0.000 A 
ATOM     22  C   UNL     1       1.590  14.783  18.609  0.00  0.00    +0.000 A 
ATOM     23  C   UNL     1       2.154  13.533  18.529  0.00  0.00    +0.000 A 
ATOM     24  C   UNL     1       1.433  12.389  18.809  0.00  0.00    +0.000 A 
ATOM     25  O   UNL     1       3.469  13.581  18.181  0.00  0.00    +0.000 OA
ATOM     26  C   UNL     1       3.704  15.003  18.261  0.00  0.00    +0.000 C 
ATOM     27  O   UNL     1       2.485  15.772  18.335  0.00  0.00    +0.000 OA
ENDBRANCH  18  19
ENDBRANCH  16  18
ENDBRANCH  13  15
ENDBRANCH  12  13
ENDBRANCH   1  12
BRANCH   5  28
ATOM     28  C   UNL     1       3.804   5.318  19.855  0.00  0.00    +0.000 C 
BRANCH  28  29
ATOM     29  C   UNL     1       2.920   4.089  19.710  0.00  0.00    +0.000 A 
ATOM     30  C   UNL     1       2.917   3.347  18.515  0.00  0.00    +0.000 A 
ATOM     31  C   UNL     1       1.976   2.340  18.304  0.00  0.00    +0.000 A 
ATOM     32  C   UNL     1       1.052   2.025  19.300  0.00  0.00    +0.000 A 
ATOM     33  C   UNL     1       1.100   2.689  20.523  0.00  0.00    +0.000 A 
ATOM     34  C   UNL     1       2.037   3.706  20.735  0.00  0.00    +0.000 A 
ENDBRANCH  28  29
ENDBRANCH   5  28
TORSDOF 8
ENDMDL
MODEL 7
REMARK VINA RESULT:      -8.1      3.794     10.635
REMARK  Name = 
REMARK  8 active torsions:
REMARK  status: ('A' for Active; 'I' for Inactive)
REMARK    1  A    between atoms: C_2  and  C_3
REMARK    2  A    between atoms: C_3  and  S_4
REMARK    3  A    between atoms: S_4  and  C_5
REMARK    4  A    between atoms: C_8  and  C_9
REMARK    5  A    between atoms: N_15  and  C_16
REMARK    6  A    between atoms: C_16  and  C_17
REMARK    7  A    between atoms: N_23  and  C_24
REMARK    8  A    between atoms: C_24  and  C_25
REMARK                            x       y       z     vdW  Elec       q    Type
REMARK                         _______ _______ _______ _____ _____    ______ ____
ROOT
ATOM      1  C   UNL     1       2.292   7.738  19.085  0.00  0.00    +0.000 A 
ATOM      2  N   UNL     1       2.410   8.627  18.134  0.00  0.00    +0.000 NA
ATOM      3  N   UNL     1       3.360   8.194  17.264  0.00  0.00    +0.000 NA
ATOM      4  C   UNL     1       3.827   7.029  17.688  0.00  0.00    +0.000 A 
ATOM      5  N   UNL     1       3.221   6.734  18.910  0.00  0.00    +0.000 N 
ENDROOT
BRANCH   4   6
ATOM      6  C   UNL     1       4.888   6.304  16.988  0.00  0.00    +0.000 A 
ATOM      7  C   UNL     1       4.588   5.085  16.367  0.00  0.00    +0.000 A 
ATOM      8  C   UNL     1       5.577   4.378  15.688  0.00  0.00    +0.000 A 
ATOM      9  C   UNL     1       6.850   4.915  15.642  0.00  0.00    +0.000 A 
ATOM     10  N   UNL     1       7.195   6.072  16.246  0.00  0.00    +0.000 NA
ATOM     11  C   UNL     1       6.210   6.724  16.915  0.00  0.00    +0.000 A 
ENDBRANCH   4   6
BRANCH   1  12
ATOM     12  S   UNL     1       1.103   7.847  20.332  0.00  0.00    +0.000 S 
BRANCH  12  13
ATOM     13  C   UNL     1       1.029   9.654  20.605  0.00  0.00    +0.000 C 
BRANCH  13  15
ATOM     14  O   UNL     1       0.817   9.677  23.006  0.00  0.00    +0.000 OA
ATOM     15  C   UNL     1       0.376  10.062  21.923  0.00  0.00    +0.000 C 
ATOM     16  N   UNL     1      -0.659  10.966  21.831  0.00  0.00    +0.000 N 
ATOM     17  H   UNL     1      -1.069  11.141  20.916  0.00  0.00    +0.000 HD
BRANCH  16  18
ATOM     18  C   UNL     1      -1.222  11.609  23.002  0.00  0.00    +0.000 C 
BRANCH  18  19
ATOM     19  C   UNL     1      -2.604  12.198  22.806  0.00  0.00    +0.000 A 
ATOM     20  C   UNL     1      -3.506  12.403  23.879  0.00  0.00    +0.000 A 
ATOM     21  C   UNL     1      -4.772  12.971  23.670  0.00  0.00    +0.000 A 
ATOM     22  C   UNL     1      -5.114  13.324  22.385  0.00  0.00    +0.000 A 
ATOM     23  C   UNL     1      -4.273  13.084  21.326  0.00  0.00    +0.000 A 
ATOM     24  C   UNL     1      -3.031  12.506  21.498  0.00  0.00    +0.000 A 
ATOM     25  O   UNL     1      -4.801  13.503  20.143  0.00  0.00    +0.000 OA
ATOM     26  C   UNL     1      -5.963  14.215  20.618  0.00  0.00    +0.000 C 
ATOM     27  O   UNL     1      -6.267  13.937  22.000  0.00  0.00    +0.000 OA
ENDBRANCH  18  19
ENDBRANCH  16  18
ENDBRANCH  13  15
ENDBRANCH  12  13
ENDBRANCH   1  12
BRANCH   5  28
ATOM     28  C   UNL     1       3.582   5.666  19.841  0.00  0.00    +0.000 C 
BRANCH  28  29
ATOM     29  C   UNL     1       2.536   4.565  19.910  0.00  0.00    +0.000 A 
ATOM     30  C   UNL     1       2.173   3.999  21.146  0.00  0.00    +0.000 A 
ATOM     31  C   UNL     1       1.363   2.866  21.200  0.00  0.00    +0.000 A 
ATOM     32  C   UNL     1       0.863   2.305  20.026  0.00  0.00    +0.000 A 
ATOM     33  C   UNL     1       1.139   2.907  18.800  0.00  0.00    +0.000 A 
ATOM     34  C   UNL     1       1.958   4.039  18.741  0.00  0.00    +0.000 A 
ENDBRANCH  28  29
ENDBRANCH   5  28
TORSDOF 8
ENDMDL
MODEL 8
REMARK VINA RESULT:      -8.0      3.515     10.448
REMARK  Name = 
REMARK  8 active torsions:
REMARK  status: ('A' for Active; 'I' for Inactive)
REMARK    1  A    between atoms: C_2  and  C_3
REMARK    2  A    between atoms: C_3  and  S_4
REMARK    3  A    between atoms: S_4  and  C_5
REMARK    4  A    between atoms: C_8  and  C_9
REMARK    5  A    between atoms: N_15  and  C_16
REMARK    6  A    between atoms: C_16  and  C_17
REMARK    7  A    between atoms: N_23  and  C_24
REMARK    8  A    between atoms: C_24  and  C_25
REMARK                            x       y       z     vdW  Elec       q    Type
REMARK                         _______ _______ _______ _____ _____    ______ ____
ROOT
ATOM      1  C   UNL     1       2.455   7.410  19.186  0.00  0.00    +0.000 A 
ATOM      2  N   UNL     1       2.520   8.360  18.290  0.00  0.00    +0.000 NA
ATOM      3  N   UNL     1       3.449   8.008  17.364  0.00  0.00    +0.000 NA
ATOM      4  C   UNL     1       3.958   6.831  17.697  0.00  0.00    +0.000 A 
ATOM      5  N   UNL     1       3.401   6.444  18.917  0.00  0.00    +0.000 N 
ENDROOT
BRANCH   4   6
ATOM      6  C   UNL     1       5.010   6.179  16.917  0.00  0.00    +0.000 A 
ATOM      7  C   UNL     1       4.707   5.018  16.195  0.00  0.00    +0.000 A 
ATOM      8  C   UNL     1       5.688   4.381  15.439  0.00  0.00    +0.000 A 
ATOM      9  C   UNL     1       6.956   4.930  15.420  0.00  0.00    +0.000 A 
ATOM     10  N   UNL     1       7.306   6.030  16.120  0.00  0.00    +0.000 NA
ATOM     11  C   UNL     1       6.329   6.613  16.860  0.00  0.00    +0.000 A 
ENDBRANCH   4   6
BRANCH   1  12
ATOM     12  S   UNL     1       1.308   7.410  20.477  0.00  0.00    +0.000 S 
BRANCH  12  13
ATOM     13  C   UNL     1       1.496   9.108  21.129  0.00  0.00    +0.000 C 
BRANCH  13  15
ATOM     14  O   UNL     1      -0.527   9.753  19.989  0.00  0.00    +0.000 OA
ATOM     15  C   UNL     1       0.509  10.116  20.546  0.00  0.00    +0.000 C 
ATOM     16  N   UNL     1       0.792  11.444  20.777  0.00  0.00    +0.000 N 
ATOM     17  H   UNL     1       1.721  11.688  21.116  0.00  0.00    +0.000 HD
BRANCH  16  18
ATOM     18  C   UNL     1      -0.160  12.495  20.480  0.00  0.00    +0.000 C 
BRANCH  18  19
ATOM     19  C   UNL     1      -1.070  12.878  21.629  0.00  0.00    +0.000 A 
ATOM     20  C   UNL     1      -0.656  13.733  22.679  0.00  0.00    +0.000 A 
ATOM     21  C   UNL     1      -1.528  14.088  23.719  0.00  0.00    +0.000 A 
ATOM     22  C   UNL     1      -2.804  13.577  23.690  0.00  0.00    +0.000 A 
ATOM     23  C   UNL     1      -3.207  12.703  22.709  0.00  0.00    +0.000 A 
ATOM     24  C   UNL     1      -2.363  12.319  21.685  0.00  0.00    +0.000 A 
ATOM     25  O   UNL     1      -4.501  12.312  22.865  0.00  0.00    +0.000 OA
ATOM     26  C   UNL     1      -4.912  13.201  23.925  0.00  0.00    +0.000 C 
ATOM     27  O   UNL     1      -3.801  13.853  24.575  0.00  0.00    +0.000 OA
ENDBRANCH  18  19
ENDBRANCH  16  18
ENDBRANCH  13  15
ENDBRANCH  12  13
ENDBRANCH   1  12
BRANCH   5  28
ATOM     28  C   UNL     1       3.819   5.329  19.765  0.00  0.00    +0.000 C 
BRANCH  28  29
ATOM     29  C   UNL     1       2.818   4.185  19.773  0.00  0.00    +0.000 A 
ATOM     30  C   UNL     1       2.378   3.611  18.566  0.00  0.00    +0.000 A 
ATOM     31  C   UNL     1       1.323   2.699  18.554  0.00  0.00    +0.000 A 
ATOM     32  C   UNL     1       0.721   2.308  19.749  0.00  0.00    +0.000 A 
ATOM     33  C   UNL     1       1.205   2.798  20.960  0.00  0.00    +0.000 A 
ATOM     34  C   UNL     1       2.257   3.720  20.976  0.00  0.00    +0.000 A 
ENDBRANCH  28  29
ENDBRANCH   5  28
TORSDOF 8
ENDMDL
MODEL 9
REMARK VINA RESULT:      -8.0      3.316      9.426
REMARK  Name = 
REMARK  8 active torsions:
REMARK  status: ('A' for Active; 'I' for Inactive)
REMARK    1  A    between atoms: C_2  and  C_3
REMARK    2  A    between atoms: C_3  and  S_4
REMARK    3  A    between atoms: S_4  and  C_5
REMARK    4  A    between atoms: C_8  and  C_9
REMARK    5  A    between atoms: N_15  and  C_16
REMARK    6  A    between atoms: C_16  and  C_17
REMARK    7  A    between atoms: N_23  and  C_24
REMARK    8  A    between atoms: C_24  and  C_25
REMARK                            x       y       z     vdW  Elec       q    Type
REMARK                         _______ _______ _______ _____ _____    ______ ____
ROOT
ATOM      1  C   UNL     1       2.178   7.807  18.967  0.00  0.00    +0.000 A 
ATOM      2  N   UNL     1       2.389   8.756  18.092  0.00  0.00    +0.000 NA
ATOM      3  N   UNL     1       3.410   8.369  17.284  0.00  0.00    +0.000 NA
ATOM      4  C   UNL     1       3.828   7.172  17.668  0.00  0.00    +0.000 A 
ATOM      5  N   UNL     1       3.112   6.805  18.808  0.00  0.00    +0.000 N 
ENDROOT
BRANCH   4   6
ATOM      6  C   UNL     1       4.942   6.480  17.019  0.00  0.00    +0.000 A 
ATOM      7  C   UNL     1       4.685   5.333  16.258  0.00  0.00    +0.000 A 
ATOM      8  C   UNL     1       5.725   4.659  15.624  0.00  0.00    +0.000 A 
ATOM      9  C   UNL     1       7.007   5.158  15.763  0.00  0.00    +0.000 A 
ATOM     10  N   UNL     1       7.310   6.244  16.506  0.00  0.00    +0.000 NA
ATOM     11  C   UNL     1       6.273   6.863  17.125  0.00  0.00    +0.000 A 
ENDBRANCH   4   6
BRANCH   1  12
ATOM     12  S   UNL     1       0.883   7.850  20.107  0.00  0.00    +0.000 S 
BRANCH  12  13
ATOM     13  C   UNL     1       1.390   9.241  21.180  0.00  0.00    +0.000 C 
BRANCH  13  15
ATOM     14  O   UNL     1       1.468  11.422  20.157  0.00  0.00    +0.000 OA
ATOM     15  C   UNL     1       0.803  10.591  20.775  0.00  0.00    +0.000 C 
ATOM     16  N   UNL     1      -0.536  10.774  21.043  0.00  0.00    +0.000 N 
ATOM     17  H   UNL     1      -0.996  10.119  21.672  0.00  0.00    +0.000 HD
BRANCH  16  18
ATOM     18  C   UNL     1      -1.276  11.905  20.520  0.00  0.00    +0.000 C 
BRANCH  18  19
ATOM     19  C   UNL     1      -2.158  11.597  19.328  0.00  0.00    +0.000 A 
ATOM     20  C   UNL     1      -3.485  12.078  19.216  0.00  0.00    +0.000 A 
ATOM     21  C   UNL     1      -4.272  11.795  18.089  0.00  0.00    +0.000 A 
ATOM     22  C   UNL     1      -3.713  11.030  17.092  0.00  0.00    +0.000 A 
ATOM     23  C   UNL     1      -2.447  10.511  17.208  0.00  0.00    +0.000 A 
ATOM     24  C   UNL     1      -1.658  10.754  18.314  0.00  0.00    +0.000 A 
ATOM     25  O   UNL     1      -2.086   9.780  16.117  0.00  0.00    +0.000 OA
ATOM     26  C   UNL     1      -3.185  10.083  15.231  0.00  0.00    +0.000 C 
ATOM     27  O   UNL     1      -4.299  10.702  15.907  0.00  0.00    +0.000 OA
ENDBRANCH  18  19
ENDBRANCH  16  18
ENDBRANCH  13  15
ENDBRANCH  12  13
ENDBRANCH   1  12
BRANCH   5  28
ATOM     28  C   UNL     1       3.379   5.672  19.694  0.00  0.00    +0.000 C 
BRANCH  28  29
ATOM     29  C   UNL     1       2.511   4.464  19.385  0.00  0.00    +0.000 A 
ATOM     30  C   UNL     1       1.360   4.195  20.148  0.00  0.00    +0.000 A 
ATOM     31  C   UNL     1       0.670   2.993  19.998  0.00  0.00    +0.000 A 
ATOM     32  C   UNL     1       1.088   2.059  19.051  0.00  0.00    +0.000 A 
ATOM     33  C   UNL     1       2.171   2.349  18.224  0.00  0.00    +0.000 A 
ATOM     34  C   UNL     1       2.871   3.550  18.378  0.00  0.00    +0.000 A 
ENDBRANCH  28  29
ENDBRANCH   5  28
TORSDOF 8
ENDMDL
