MODEL 1
REMARK VINA RESULT:      -9.1      0.000      0.000
REMARK  Name = 
REMARK  2 active torsions:
REMARK  status: ('A' for Active; 'I' for Inactive)
REMARK    1  A    between atoms: C_8  and  C_9
REMARK    2  A    between atoms: C_11  and  C_12
REMARK                            x       y       z     vdW  Elec       q    Type
REMARK                         _______ _______ _______ _____ _____    ______ ____
ROOT
ATOM      1  C   UNL     1       2.374   6.897  18.809  0.00  0.00    +0.000 A 
ATOM      2  N   UNL     1       1.824   7.290  19.934  0.00  0.00    +0.000 NA
ATOM      3  C   UNL     1       1.476   8.596  19.663  0.00  0.00    +0.000 A 
ATOM      4  N   UNL     1       1.814   9.005  18.429  0.00  0.00    +0.000 NA
ATOM      5  O   UNL     1       2.408   7.880  17.863  0.00  0.00    +0.000 OA
ENDROOT
BRANCH   1  13
ATOM      6  O   UNL     1       7.350   5.309  19.865  0.00  0.00    +0.000 OA
ATOM      7  C   UNL     1       6.264   5.044  19.374  0.00  0.00    +0.000 A 
ATOM      8  N   UNL     1       5.951   3.869  18.738  0.00  0.00    +0.000 N 
ATOM      9  C   UNL     1       4.653   3.945  18.326  0.00  0.00    +0.000 A 
ATOM     10  C   UNL     1       3.886   3.030  17.644  0.00  0.00    +0.000 A 
ATOM     11  C   UNL     1       2.573   3.404  17.359  0.00  0.00    +0.000 A 
ATOM     12  C   UNL     1       2.084   4.668  17.756  0.00  0.00    +0.000 A 
ATOM     13  C   UNL     1       2.895   5.591  18.448  0.00  0.00    +0.000 A 
ATOM     14  C   UNL     1       4.188   5.184  18.723  0.00  0.00    +0.000 A 
ATOM     15  O   UNL     1       5.168   5.912  19.389  0.00  0.00    +0.000 OA
ATOM     16  H   UNL     1       6.603   3.111  18.614  0.00  0.00    +0.000 HD
ENDBRANCH   1  13
BRANCH   3  17
ATOM     17  C   UNL     1       0.766   9.415  20.632  0.00  0.00    +0.000 A 
ATOM     18  C   UNL     1       0.213   8.859  21.796  0.00  0.00    +0.000 A 
ATOM     19  C   UNL     1      -0.428   9.673  22.735  0.00  0.00    +0.000 A 
ATOM     20  C   UNL     1      -0.524  11.046  22.513  0.00  0.00    +0.000 A 
ATOM     21  C   UNL     1       0.029  11.605  21.358  0.00  0.00    +0.000 A 
ATOM     22  C   UNL     1       0.655  10.795  20.416  0.00  0.00    +0.000 A 
ATOM     23  O   UNL     1      -0.003  12.948  21.081  0.00  0.00    +0.000 OA
ATOM     24  C   UNL     1      -0.295  13.709  22.255  0.00  0.00    +0.000 C 
ATOM     25  C   UNL     1      -1.469  13.103  23.007  0.00  0.00    +0.000 C 
ATOM     26  O   UNL     1      -1.156  11.786  23.477  0.00  0.00    +0.000 OA
ENDBRANCH   3  17
TORSDOF 2
ENDMDL
MODEL 2
REMARK VINA RESULT:      -9.0      1.448      1.469
REMARK  Name = 
REMARK  2 active torsions:
REMARK  status: ('A' for Active; 'I' for Inactive)
REMARK    1  A    between atoms: C_8  and  C_9
REMARK    2  A    between atoms: C_11  and  C_12
REMARK                            x       y       z     vdW  Elec       q    Type
REMARK                         _______ _______ _______ _____ _____    ______ ____
ROOT
ATOM      1  C   UNL     1       2.698   7.133  18.342  0.00  0.00    +0.000 A 
ATOM      2  N   UNL     1       2.158   7.357  19.516  0.00  0.00    +0.000 NA
ATOM      3  C   UNL     1       1.636   8.625  19.373  0.00  0.00    +0.000 A 
ATOM      4  N   UNL     1       1.860   9.174  18.169  0.00  0.00    +0.000 NA
ATOM      5  O   UNL     1       2.563   8.186  17.485  0.00  0.00    +0.000 OA
ENDROOT
BRANCH   1  13
ATOM      6  O   UNL     1       7.763   7.041  16.686  0.00  0.00    +0.000 OA
ATOM      7  C   UNL     1       6.725   6.424  16.870  0.00  0.00    +0.000 A 
ATOM      8  N   UNL     1       6.535   5.096  16.581  0.00  0.00    +0.000 N 
ATOM      9  C   UNL     1       5.255   4.769  16.920  0.00  0.00    +0.000 A 
ATOM     10  C   UNL     1       4.590   3.570  16.817  0.00  0.00    +0.000 A 
ATOM     11  C   UNL     1       3.265   3.550  17.251  0.00  0.00    +0.000 A 
ATOM     12  C   UNL     1       2.658   4.719  17.760  0.00  0.00    +0.000 A 
ATOM     13  C   UNL     1       3.362   5.939  17.848  0.00  0.00    +0.000 A 
ATOM     14  C   UNL     1       4.676   5.920  17.419  0.00  0.00    +0.000 A 
ATOM     15  O   UNL     1       5.565   6.989  17.407  0.00  0.00    +0.000 OA
ATOM     16  H   UNL     1       7.246   4.505  16.180  0.00  0.00    +0.000 HD
ENDBRANCH   1  13
BRANCH   3  17
ATOM     17  C   UNL     1       0.875   9.263  20.436  0.00  0.00    +0.000 A 
ATOM     18  C   UNL     1       0.983   8.840  21.770  0.00  0.00    +0.000 A 
ATOM     19  C   UNL     1       0.275   9.496  22.781  0.00  0.00    +0.000 A 
ATOM     20  C   UNL     1      -0.549  10.575  22.463  0.00  0.00    +0.000 A 
ATOM     21  C   UNL     1      -0.656  11.004  21.138  0.00  0.00    +0.000 A 
ATOM     22  C   UNL     1       0.037  10.344  20.129  0.00  0.00    +0.000 A 
ATOM     23  O   UNL     1      -1.425  12.071  20.750  0.00  0.00    +0.000 OA
ATOM     24  C   UNL     1      -1.760  12.897  21.867  0.00  0.00    +0.000 C 
ATOM     25  C   UNL     1      -2.243  12.050  23.034  0.00  0.00    +0.000 C 
ATOM     26  O   UNL     1      -1.206  11.179  23.503  0.00  0.00    +0.000 OA
ENDBRANCH   3  17
TORSDOF 2
ENDMDL
MODEL 3
REMARK VINA RESULT:      -8.9      1.831      2.394
REMARK  Name = 
REMARK  2 active torsions:
REMARK  status: ('A' for Active; 'I' for Inactive)
REMARK    1  A    between atoms: C_8  and  C_9
REMARK    2  A    between atoms: C_11  and  C_12
REMARK                            x       y       z     vdW  Elec       q    Type
REMARK                         _______ _______ _______ _____ _____    ______ ____
ROOT
ATOM      1  C   UNL     1       2.754   7.308  18.210  0.00  0.00    +0.000 A 
ATOM      2  N   UNL     1       2.224   7.524  19.391  0.00  0.00    +0.000 NA
ATOM      3  C   UNL     1       1.661   8.775  19.247  0.00  0.00    +0.000 A 
ATOM      4  N   UNL     1       1.851   9.321  18.035  0.00  0.00    +0.000 NA
ATOM      5  O   UNL     1       2.574   8.350  17.348  0.00  0.00    +0.000 OA
ENDROOT
BRANCH   1  13
ATOM      6  O   UNL     1       0.725   2.385  18.420  0.00  0.00    +0.000 OA
ATOM      7  C   UNL     1       1.658   3.104  18.101  0.00  0.00    +0.000 A 
ATOM      8  N   UNL     1       2.830   2.671  17.535  0.00  0.00    +0.000 N 
ATOM      9  C   UNL     1       3.626   3.759  17.324  0.00  0.00    +0.000 A 
ATOM     10  C   UNL     1       4.890   3.841  16.789  0.00  0.00    +0.000 A 
ATOM     11  C   UNL     1       5.451   5.115  16.706  0.00  0.00    +0.000 A 
ATOM     12  C   UNL     1       4.739   6.246  17.163  0.00  0.00    +0.000 A 
ATOM     13  C   UNL     1       3.446   6.131  17.715  0.00  0.00    +0.000 A 
ATOM     14  C   UNL     1       2.916   4.856  17.773  0.00  0.00    +0.000 A 
ATOM     15  O   UNL     1       1.669   4.492  18.270  0.00  0.00    +0.000 OA
ATOM     16  H   UNL     1       3.028   1.704  17.333  0.00  0.00    +0.000 HD
ENDBRANCH   1  13
BRANCH   3  17
ATOM     17  C   UNL     1       0.897   9.397  20.316  0.00  0.00    +0.000 A 
ATOM     18  C   UNL     1       0.473   8.665  21.436  0.00  0.00    +0.000 A 
ATOM     19  C   UNL     1      -0.223   9.294  22.472  0.00  0.00    +0.000 A 
ATOM     20  C   UNL     1      -0.503  10.657  22.392  0.00  0.00    +0.000 A 
ATOM     21  C   UNL     1      -0.080  11.392  21.282  0.00  0.00    +0.000 A 
ATOM     22  C   UNL     1       0.601  10.765  20.244  0.00  0.00    +0.000 A 
ATOM     23  O   UNL     1      -0.296  12.739  21.142  0.00  0.00    +0.000 OA
ATOM     24  C   UNL     1      -0.629  13.340  22.395  0.00  0.00    +0.000 C 
ATOM     25  C   UNL     1      -1.680  12.516  23.122  0.00  0.00    +0.000 C 
ATOM     26  O   UNL     1      -1.180  11.213  23.446  0.00  0.00    +0.000 OA
ENDBRANCH   3  17
TORSDOF 2
ENDMDL
MODEL 4
REMARK VINA RESULT:      -8.9      1.297      1.302
REMARK  Name = 
REMARK  2 active torsions:
REMARK  status: ('A' for Active; 'I' for Inactive)
REMARK    1  A    between atoms: C_8  and  C_9
REMARK    2  A    between atoms: C_11  and  C_12
REMARK                            x       y       z     vdW  Elec       q    Type
REMARK                         _______ _______ _______ _____ _____    ______ ____
ROOT
ATOM      1  C   UNL     1       1.952   6.522  20.052  0.00  0.00    +0.000 A 
ATOM      2  N   UNL     1       1.339   7.163  21.019  0.00  0.00    +0.000 NA
ATOM      3  C   UNL     1       1.236   8.443  20.517  0.00  0.00    +0.000 A 
ATOM      4  N   UNL     1       1.780   8.596  19.299  0.00  0.00    +0.000 NA
ATOM      5  O   UNL     1       2.253   7.324  18.990  0.00  0.00    +0.000 OA
ENDROOT
BRANCH   1  13
ATOM      6  O   UNL     1       6.836   4.767  18.843  0.00  0.00    +0.000 OA
ATOM      7  C   UNL     1       5.679   4.492  19.119  0.00  0.00    +0.000 A 
ATOM      8  N   UNL     1       5.169   3.221  19.201  0.00  0.00    +0.000 N 
ATOM      9  C   UNL     1       3.848   3.316  19.529  0.00  0.00    +0.000 A 
ATOM     10  C   UNL     1       2.909   2.329  19.719  0.00  0.00    +0.000 A 
ATOM     11  C   UNL     1       1.621   2.749  20.049  0.00  0.00    +0.000 A 
ATOM     12  C   UNL     1       1.320   4.123  20.168  0.00  0.00    +0.000 A 
ATOM     13  C   UNL     1       2.301   5.115  19.959  0.00  0.00    +0.000 A 
ATOM     14  C   UNL     1       3.570   4.665  19.644  0.00  0.00    +0.000 A 
ATOM     15  O   UNL     1       4.695   5.444  19.396  0.00  0.00    +0.000 OA
ATOM     16  H   UNL     1       5.712   2.389  19.031  0.00  0.00    +0.000 HD
ENDBRANCH   1  13
BRANCH   3  17
ATOM     17  C   UNL     1       0.551   9.497  21.247  0.00  0.00    +0.000 A 
ATOM     18  C   UNL     1      -0.209   9.221  22.394  0.00  0.00    +0.000 A 
ATOM     19  C   UNL     1      -0.823  10.256  23.105  0.00  0.00    +0.000 A 
ATOM     20  C   UNL     1      -0.684  11.573  22.671  0.00  0.00    +0.000 A 
ATOM     21  C   UNL     1       0.076  11.856  21.533  0.00  0.00    +0.000 A 
ATOM     22  C   UNL     1       0.676  10.825  20.817  0.00  0.00    +0.000 A 
ATOM     23  O   UNL     1       0.280  13.126  21.058  0.00  0.00    +0.000 OA
ATOM     24  C   UNL     1      -0.027  14.103  22.055  0.00  0.00    +0.000 C 
ATOM     25  C   UNL     1      -1.357  13.790  22.721  0.00  0.00    +0.000 C 
ATOM     26  O   UNL     1      -1.303  12.540  23.418  0.00  0.00    +0.000 OA
ENDBRANCH   3  17
TORSDOF 2
ENDMDL
MODEL 5
REMARK VINA RESULT:      -8.8      0.862      1.616
REMARK  Name = 
REMARK  2 active torsions:
REMARK  status: ('A' for Active; 'I' for Inactive)
REMARK    1  A    between atoms: C_8  and  C_9
REMARK    2  A    between atoms: C_11  and  C_12
REMARK                            x       y       z     vdW  Elec       q    Type
REMARK                         _______ _______ _______ _____ _____    ______ ____
ROOT
ATOM      1  C   UNL     1       2.451   7.067  18.361  0.00  0.00    +0.000 A 
ATOM      2  N   UNL     1       1.849   7.714  19.332  0.00  0.00    +0.000 NA
ATOM      3  C   UNL     1       1.698   8.979  18.805  0.00  0.00    +0.000 A 
ATOM      4  N   UNL     1       2.203   9.119  17.569  0.00  0.00    +0.000 NA
ATOM      5  O   UNL     1       2.701   7.853  17.274  0.00  0.00    +0.000 OA
ENDROOT
BRANCH   1  13
ATOM      6  O   UNL     1       7.241   5.239  19.817  0.00  0.00    +0.000 OA
ATOM      7  C   UNL     1       6.132   4.989  19.371  0.00  0.00    +0.000 A 
ATOM      8  N   UNL     1       5.698   3.745  18.987  0.00  0.00    +0.000 N 
ATOM      9  C   UNL     1       4.413   3.864  18.543  0.00  0.00    +0.000 A 
ATOM     10  C   UNL     1       3.554   2.909  18.052  0.00  0.00    +0.000 A 
ATOM     11  C   UNL     1       2.287   3.347  17.671  0.00  0.00    +0.000 A 
ATOM     12  C   UNL     1       1.930   4.708  17.787  0.00  0.00    +0.000 A 
ATOM     13  C   UNL     1       2.834   5.668  18.288  0.00  0.00    +0.000 A 
ATOM     14  C   UNL     1       4.079   5.199  18.666  0.00  0.00    +0.000 A 
ATOM     15  O   UNL     1       5.131   5.947  19.185  0.00  0.00    +0.000 OA
ATOM     16  H   UNL     1       6.268   2.916  19.035  0.00  0.00    +0.000 HD
ENDBRANCH   1  13
BRANCH   3  17
ATOM     17  C   UNL     1       1.007  10.032  19.533  0.00  0.00    +0.000 A 
ATOM     18  C   UNL     1       0.765  11.287  18.953  0.00  0.00    +0.000 A 
ATOM     19  C   UNL     1       0.060  12.268  19.655  0.00  0.00    +0.000 A 
ATOM     20  C   UNL     1      -0.402  12.003  20.943  0.00  0.00    +0.000 A 
ATOM     21  C   UNL     1      -0.168  10.754  21.524  0.00  0.00    +0.000 A 
ATOM     22  C   UNL     1       0.544   9.780  20.832  0.00  0.00    +0.000 A 
ATOM     23  O   UNL     1      -0.611  10.409  22.775  0.00  0.00    +0.000 OA
ATOM     24  C   UNL     1      -1.639  11.297  23.220  0.00  0.00    +0.000 C 
ATOM     25  C   UNL     1      -1.241  12.744  22.973  0.00  0.00    +0.000 C 
ATOM     26  O   UNL     1      -1.093  13.005  21.572  0.00  0.00    +0.000 OA
ENDBRANCH   3  17
TORSDOF 2
ENDMDL
MODEL 6
REMARK VINA RESULT:      -8.7      2.959      8.751
REMARK  Name = 
REMARK  2 active torsions:
REMARK  status: ('A' for Active; 'I' for Inactive)
REMARK    1  A    between atoms: C_8  and  C_9
REMARK    2  A    between atoms: C_11  and  C_12
REMARK                            x       y       z     vdW  Elec       q    Type
REMARK                         _______ _______ _______ _____ _____    ______ ____
ROOT
ATOM      1  C   UNL     1       1.218   9.474  19.164  0.00  0.00    +0.000 A 
ATOM      2  N   UNL     1       1.881   8.817  18.242  0.00  0.00    +0.000 NA
ATOM      3  C   UNL     1       2.294   7.685  18.913  0.00  0.00    +0.000 A 
ATOM      4  N   UNL     1       1.920   7.650  20.202  0.00  0.00    +0.000 NA
ATOM      5  O   UNL     1       1.207   8.834  20.369  0.00  0.00    +0.000 OA
ENDROOT
BRANCH   1  13
ATOM      6  O   UNL     1      -3.116  10.120  16.132  0.00  0.00    +0.000 OA
ATOM      7  C   UNL     1      -2.312  10.619  16.903  0.00  0.00    +0.000 A 
ATOM      8  N   UNL     1      -2.318  11.930  17.310  0.00  0.00    +0.000 N 
ATOM      9  C   UNL     1      -1.270  12.111  18.165  0.00  0.00    +0.000 A 
ATOM     10  C   UNL     1      -0.854  13.242  18.829  0.00  0.00    +0.000 A 
ATOM     11  C   UNL     1       0.271  13.110  19.642  0.00  0.00    +0.000 A 
ATOM     12  C   UNL     1       0.935  11.869  19.755  0.00  0.00    +0.000 A 
ATOM     13  C   UNL     1       0.491  10.727  19.056  0.00  0.00    +0.000 A 
ATOM     14  C   UNL     1      -0.632  10.890  18.267  0.00  0.00    +0.000 A 
ATOM     15  O   UNL     1      -1.255   9.919  17.490  0.00  0.00    +0.000 OA
ATOM     16  H   UNL     1      -2.995  12.608  16.999  0.00  0.00    +0.000 HD
ENDBRANCH   1  13
BRANCH   3  17
ATOM     17  C   UNL     1       3.025   6.623  18.242  0.00  0.00    +0.000 A 
ATOM     18  C   UNL     1       2.664   5.275  18.393  0.00  0.00    +0.000 A 
ATOM     19  C   UNL     1       3.355   4.274  17.704  0.00  0.00    +0.000 A 
ATOM     20  C   UNL     1       4.414   4.615  16.863  0.00  0.00    +0.000 A 
ATOM     21  C   UNL     1       4.775   5.955  16.705  0.00  0.00    +0.000 A 
ATOM     22  C   UNL     1       4.097   6.951  17.401  0.00  0.00    +0.000 A 
ATOM     23  O   UNL     1       5.787   6.371  15.879  0.00  0.00    +0.000 OA
ATOM     24  C   UNL     1       6.136   5.352  14.940  0.00  0.00    +0.000 C 
ATOM     25  C   UNL     1       6.284   4.009  15.637  0.00  0.00    +0.000 C 
ATOM     26  O   UNL     1       5.042   3.586  16.211  0.00  0.00    +0.000 OA
ENDBRANCH   3  17
TORSDOF 2
ENDMDL
MODEL 7
REMARK VINA RESULT:      -8.7      1.456      1.990
REMARK  Name = 
REMARK  2 active torsions:
REMARK  status: ('A' for Active; 'I' for Inactive)
REMARK    1  A    between atoms: C_8  and  C_9
REMARK    2  A    between atoms: C_11  and  C_12
REMARK                            x       y       z     vdW  Elec       q    Type
REMARK                         _______ _______ _______ _____ _____    ______ ____
ROOT
ATOM      1  C   UNL     1       2.065   6.784  19.818  0.00  0.00    +0.000 A 
ATOM      2  N   UNL     1       1.525   7.627  20.665  0.00  0.00    +0.000 NA
ATOM      3  C   UNL     1       1.455   8.792  19.932  0.00  0.00    +0.000 A 
ATOM      4  N   UNL     1       1.951   8.684  18.689  0.00  0.00    +0.000 NA
ATOM      5  O   UNL     1       2.354   7.354  18.612  0.00  0.00    +0.000 OA
ENDROOT
BRANCH   1  13
ATOM      6  O   UNL     1       6.733   4.540  18.562  0.00  0.00    +0.000 OA
ATOM      7  C   UNL     1       5.599   4.394  18.990  0.00  0.00    +0.000 A 
ATOM      8  N   UNL     1       5.050   3.197  19.374  0.00  0.00    +0.000 N 
ATOM      9  C   UNL     1       3.772   3.432  19.792  0.00  0.00    +0.000 A 
ATOM     10  C   UNL     1       2.819   2.560  20.262  0.00  0.00    +0.000 A 
ATOM     11  C   UNL     1       1.587   3.111  20.612  0.00  0.00    +0.000 A 
ATOM     12  C   UNL     1       1.354   4.497  20.475  0.00  0.00    +0.000 A 
ATOM     13  C   UNL     1       2.348   5.369  19.982  0.00  0.00    +0.000 A 
ATOM     14  C   UNL     1       3.560   4.791  19.654  0.00  0.00    +0.000 A 
ATOM     15  O   UNL     1       4.685   5.438  19.154  0.00  0.00    +0.000 OA
ATOM     16  H   UNL     1       5.540   2.318  19.330  0.00  0.00    +0.000 HD
ENDBRANCH   1  13
BRANCH   3  17
ATOM     17  C   UNL     1       0.851  10.000  20.471  0.00  0.00    +0.000 A 
ATOM     18  C   UNL     1       1.068  11.255  19.882  0.00  0.00    +0.000 A 
ATOM     19  C   UNL     1       0.442  12.396  20.392  0.00  0.00    +0.000 A 
ATOM     20  C   UNL     1      -0.402  12.289  21.497  0.00  0.00    +0.000 A 
ATOM     21  C   UNL     1      -0.626  11.041  22.084  0.00  0.00    +0.000 A 
ATOM     22  C   UNL     1       0.007   9.907  21.586  0.00  0.00    +0.000 A 
ATOM     23  O   UNL     1      -1.460  10.851  23.156  0.00  0.00    +0.000 OA
ATOM     24  C   UNL     1      -2.340  11.965  23.327  0.00  0.00    +0.000 C 
ATOM     25  C   UNL     1      -1.571  13.273  23.239  0.00  0.00    +0.000 C 
ATOM     26  O   UNL     1      -0.991  13.444  21.940  0.00  0.00    +0.000 OA
ENDBRANCH   3  17
TORSDOF 2
ENDMDL
MODEL 8
REMARK VINA RESULT:      -8.6      1.652      2.503
REMARK  Name = 
REMARK  2 active torsions:
REMARK  status: ('A' for Active; 'I' for Inactive)
REMARK    1  A    between atoms: C_8  and  C_9
REMARK    2  A    between atoms: C_11  and  C_12
REMARK                            x       y       z     vdW  Elec       q    Type
REMARK                         _______ _______ _______ _____ _____    ______ ____
ROOT
ATOM      1  C   UNL     1       3.622   5.966  18.641  0.00  0.00    +0.000 A 
ATOM      2  N   UNL     1       3.142   7.187  18.608  0.00  0.00    +0.000 NA
ATOM      3  C   UNL     1       2.234   7.184  19.646  0.00  0.00    +0.000 A 
ATOM      4  N   UNL     1       2.140   6.006  20.284  0.00  0.00    +0.000 NA
ATOM      5  O   UNL     1       3.060   5.200  19.620  0.00  0.00    +0.000 OA
ENDROOT
BRANCH   1  13
ATOM      6  O   UNL     1       8.635   5.258  20.305  0.00  0.00    +0.000 OA
ATOM      7  C   UNL     1       7.819   5.135  19.405  0.00  0.00    +0.000 A 
ATOM      8  N   UNL     1       8.086   4.618  18.163  0.00  0.00    +0.000 N 
ATOM      9  C   UNL     1       6.931   4.644  17.437  0.00  0.00    +0.000 A 
ATOM     10  C   UNL     1       6.688   4.243  16.144  0.00  0.00    +0.000 A 
ATOM     11  C   UNL     1       5.384   4.402  15.676  0.00  0.00    +0.000 A 
ATOM     12  C   UNL     1       4.384   4.956  16.505  0.00  0.00    +0.000 A 
ATOM     13  C   UNL     1       4.663   5.366  17.825  0.00  0.00    +0.000 A 
ATOM     14  C   UNL     1       5.963   5.185  18.261  0.00  0.00    +0.000 A 
ATOM     15  O   UNL     1       6.476   5.509  19.513  0.00  0.00    +0.000 OA
ATOM     16  H   UNL     1       8.996   4.294  17.877  0.00  0.00    +0.000 HD
ENDBRANCH   1  13
BRANCH   3  17
ATOM     17  C   UNL     1       1.497   8.380  20.019  0.00  0.00    +0.000 A 
ATOM     18  C   UNL     1       1.169   9.364  19.074  0.00  0.00    +0.000 A 
ATOM     19  C   UNL     1       0.421  10.485  19.448  0.00  0.00    +0.000 A 
ATOM     20  C   UNL     1       0.002  10.630  20.769  0.00  0.00    +0.000 A 
ATOM     21  C   UNL     1       0.320   9.651  21.713  0.00  0.00    +0.000 A 
ATOM     22  C   UNL     1       1.075   8.542  21.346  0.00  0.00    +0.000 A 
ATOM     23  O   UNL     1      -0.076   9.710  23.024  0.00  0.00    +0.000 OA
ATOM     24  C   UNL     1      -1.146  10.643  23.197  0.00  0.00    +0.000 C 
ATOM     25  C   UNL     1      -0.839  11.948  22.480  0.00  0.00    +0.000 C 
ATOM     26  O   UNL     1      -0.735  11.747  21.065  0.00  0.00    +0.000 OA
ENDBRANCH   3  17
TORSDOF 2
ENDMDL
MODEL 9
REMARK VINA RESULT:      -8.5      1.696      1.977
REMARK  Name = 
REMARK  2 active torsions:
REMARK  status: ('A' for Active; 'I' for Inactive)
REMARK    1  A    between atoms: C_8  and  C_9
REMARK    2  A    between atoms: C_11  and  C_12
REMARK                            x       y       z     vdW  Elec       q    Type
REMARK                         _______ _______ _______ _____ _____    ______ ____
ROOT
ATOM      1  C   UNL     1       2.447   6.993  18.991  0.00  0.00    +0.000 A 
ATOM      2  N   UNL     1       1.903   7.414  20.108  0.00  0.00    +0.000 NA
ATOM      3  C   UNL     1       1.467   8.679  19.776  0.00  0.00    +0.000 A 
ATOM      4  N   UNL     1       1.745   9.037  18.512  0.00  0.00    +0.000 NA
ATOM      5  O   UNL     1       2.393   7.921  17.991  0.00  0.00    +0.000 OA
ENDROOT
BRANCH   1  13
ATOM      6  O   UNL     1       2.049   2.738  22.174  0.00  0.00    +0.000 OA
ATOM      7  C   UNL     1       2.483   3.215  21.137  0.00  0.00    +0.000 A 
ATOM      8  N   UNL     1       3.258   2.545  20.224  0.00  0.00    +0.000 N 
ATOM      9  C   UNL     1       3.547   3.403  19.204  0.00  0.00    +0.000 A 
ATOM     10  C   UNL     1       4.291   3.206  18.065  0.00  0.00    +0.000 A 
ATOM     11  C   UNL     1       4.409   4.293  17.200  0.00  0.00    +0.000 A 
ATOM     12  C   UNL     1       3.791   5.526  17.506  0.00  0.00    +0.000 A 
ATOM     13  C   UNL     1       3.039   5.703  18.686  0.00  0.00    +0.000 A 
ATOM     14  C   UNL     1       2.934   4.602  19.516  0.00  0.00    +0.000 A 
ATOM     15  O   UNL     1       2.251   4.530  20.725  0.00  0.00    +0.000 OA
ATOM     16  H   UNL     1       3.545   1.585  20.334  0.00  0.00    +0.000 HD
ENDBRANCH   1  13
BRANCH   3  17
ATOM     17  C   UNL     1       0.732   9.507  20.719  0.00  0.00    +0.000 A 
ATOM     18  C   UNL     1       0.121   8.956  21.857  0.00  0.00    +0.000 A 
ATOM     19  C   UNL     1      -0.543   9.777  22.773  0.00  0.00    +0.000 A 
ATOM     20  C   UNL     1      -0.604  11.152  22.554  0.00  0.00    +0.000 A 
ATOM     21  C   UNL     1       0.007  11.707  21.427  0.00  0.00    +0.000 A 
ATOM     22  C   UNL     1       0.657  10.890  20.507  0.00  0.00    +0.000 A 
ATOM     23  O   UNL     1       0.012  13.051  21.156  0.00  0.00    +0.000 OA
ATOM     24  C   UNL     1      -0.315  13.812  22.321  0.00  0.00    +0.000 C 
ATOM     25  C   UNL     1      -1.530  13.225  23.021  0.00  0.00    +0.000 C 
ATOM     26  O   UNL     1      -1.261  11.900  23.496  0.00  0.00    +0.000 OA
ENDBRANCH   3  17
TORSDOF 2
ENDMDL
