MODEL 1
REMARK VINA RESULT:      -9.4      0.000      0.000
REMARK  Name = 
REMARK  6 active torsions:
REMARK  status: ('A' for Active; 'I' for Inactive)
REMARK    1  A    between atoms: C_7  and  S_8
REMARK    2  A    between atoms: S_8  and  N_11
REMARK    3  A    between atoms: N_11  and  C_12
REMARK    4  A    between atoms: C_12  and  C_13
REMARK    5  A    between atoms: C_18  and  O_19
REMARK    6  A    between atoms: O_19  and  C_20
REMARK                            x       y       z     vdW  Elec       q    Type
REMARK                         _______ _______ _______ _____ _____    ______ ____
ROOT
ATOM      1  N   UNL     1       4.733   3.242  17.487  0.00  0.00    +0.000 NA
ATOM      2  H   UNL     1       4.764   3.763  16.613  0.00  0.00    +0.000 HD
ENDROOT
BRANCH   1   3
ATOM      3  S   UNL     1       3.129   2.874  17.950  0.00  0.00    +0.000 S 
ATOM      4  O   UNL     1       3.154   1.778  18.871  0.00  0.00    +0.000 OA
ATOM      5  O   UNL     1       2.344   2.839  16.730  0.00  0.00    +0.000 OA
BRANCH   3  12
ATOM      6  O   UNL     1       1.336   9.973  21.269  0.00  0.00    +0.000 OA
ATOM      7  C   UNL     1       1.428   8.988  20.553  0.00  0.00    +0.000 C 
ATOM      8  C   UNL     1       1.263   9.035  19.053  0.00  0.00    +0.000 C 
ATOM      9  C   UNL     1       2.279   8.118  18.381  0.00  0.00    +0.000 C 
ATOM     10  C   UNL     1       2.201   6.728  18.962  0.00  0.00    +0.000 A 
ATOM     11  C   UNL     1       2.607   5.592  18.239  0.00  0.00    +0.000 A 
ATOM     12  C   UNL     1       2.549   4.327  18.839  0.00  0.00    +0.000 A 
ATOM     13  C   UNL     1       1.971   4.181  20.107  0.00  0.00    +0.000 A 
ATOM     14  C   UNL     1       1.632   5.317  20.853  0.00  0.00    +0.000 A 
ATOM     15  C   UNL     1       1.787   6.584  20.290  0.00  0.00    +0.000 A 
ATOM     16  N   UNL     1       1.556   7.723  21.076  0.00  0.00    +0.000 N 
ATOM     17  H   UNL     1       1.524   7.655  22.085  0.00  0.00    +0.000 HD
ENDBRANCH   3  12
ENDBRANCH   1   3
BRANCH   1  18
ATOM     18  C   UNL     1       5.633   3.856  18.512  0.00  0.00    +0.000 C 
BRANCH  18  19
ATOM     19  C   UNL     1       6.349   5.125  18.035  0.00  0.00    +0.000 A 
ATOM     20  C   UNL     1       7.223   5.710  18.983  0.00  0.00    +0.000 A 
ATOM     21  C   UNL     1       7.937   6.878  18.712  0.00  0.00    +0.000 A 
ATOM     22  C   UNL     1       7.759   7.470  17.487  0.00  0.00    +0.000 A 
ATOM     23  N   UNL     1       6.932   6.969  16.556  0.00  0.00    +0.000 NA
ATOM     24  C   UNL     1       6.236   5.827  16.815  0.00  0.00    +0.000 A 
BRANCH  24  25
ATOM     25  O   UNL     1       5.573   5.513  15.666  0.00  0.00    +0.000 OA
BRANCH  25  26
ATOM     26  C   UNL     1       6.188   4.965  14.592  0.00  0.00    +0.000 A 
ATOM     27  C   UNL     1       7.433   5.371  14.123  0.00  0.00    +0.000 A 
ATOM     28  C   UNL     1       7.824   4.968  12.847  0.00  0.00    +0.000 A 
ATOM     29  C   UNL     1       7.016   4.090  12.122  0.00  0.00    +0.000 A 
ATOM     30  C   UNL     1       5.883   3.545  12.705  0.00  0.00    +0.000 A 
ATOM     31  F   UNL     1       5.144   2.650  12.035  0.00  0.00    +0.000 F 
ATOM     32  C   UNL     1       5.471   3.951  13.962  0.00  0.00    +0.000 A 
ENDBRANCH  25  26
ENDBRANCH  24  25
ENDBRANCH  18  19
ENDBRANCH   1  18
TORSDOF 6
ENDMDL
MODEL 2
REMARK VINA RESULT:      -9.1      0.956      1.089
REMARK  Name = 
REMARK  6 active torsions:
REMARK  status: ('A' for Active; 'I' for Inactive)
REMARK    1  A    between atoms: C_7  and  S_8
REMARK    2  A    between atoms: S_8  and  N_11
REMARK    3  A    between atoms: N_11  and  C_12
REMARK    4  A    between atoms: C_12  and  C_13
REMARK    5  A    between atoms: C_18  and  O_19
REMARK    6  A    between atoms: O_19  and  C_20
REMARK                            x       y       z     vdW  Elec       q    Type
REMARK                         _______ _______ _______ _____ _____    ______ ____
ROOT
ATOM      1  N   UNL     1       5.303   3.243  19.358  0.00  0.00    +0.000 NA
ATOM      2  H   UNL     1       5.923   2.509  19.694  0.00  0.00    +0.000 HD
ENDROOT
BRANCH   1   3
ATOM      3  S   UNL     1       3.684   2.974  19.836  0.00  0.00    +0.000 S 
ATOM      4  O   UNL     1       3.676   2.470  21.176  0.00  0.00    +0.000 OA
ATOM      5  O   UNL     1       3.041   2.270  18.743  0.00  0.00    +0.000 OA
BRANCH   3  12
ATOM      6  O   UNL     1       1.234  10.612  19.306  0.00  0.00    +0.000 OA
ATOM      7  C   UNL     1       1.491   9.433  19.118  0.00  0.00    +0.000 C 
ATOM      8  C   UNL     1       1.736   8.848  17.748  0.00  0.00    +0.000 C 
ATOM      9  C   UNL     1       2.873   7.833  17.802  0.00  0.00    +0.000 C 
ATOM     10  C   UNL     1       2.609   6.802  18.871  0.00  0.00    +0.000 A 
ATOM     11  C   UNL     1       3.167   5.512  18.818  0.00  0.00    +0.000 A 
ATOM     12  C   UNL     1       2.921   4.603  19.857  0.00  0.00    +0.000 A 
ATOM     13  C   UNL     1       2.021   4.937  20.878  0.00  0.00    +0.000 A 
ATOM     14  C   UNL     1       1.521   6.242  20.967  0.00  0.00    +0.000 A 
ATOM     15  C   UNL     1       1.852   7.177  19.985  0.00  0.00    +0.000 A 
ATOM     16  N   UNL     1       1.445   8.511  20.136  0.00  0.00    +0.000 N 
ATOM     17  H   UNL     1       1.142   8.859  21.036  0.00  0.00    +0.000 HD
ENDBRANCH   3  12
ENDBRANCH   1   3
BRANCH   1  18
ATOM     18  C   UNL     1       5.566   3.554  17.919  0.00  0.00    +0.000 C 
BRANCH  18  19
ATOM     19  C   UNL     1       6.274   4.894  17.688  0.00  0.00    +0.000 A 
ATOM     20  C   UNL     1       7.081   5.337  18.764  0.00  0.00    +0.000 A 
ATOM     21  C   UNL     1       7.778   6.544  18.720  0.00  0.00    +0.000 A 
ATOM     22  C   UNL     1       7.651   7.319  17.594  0.00  0.00    +0.000 A 
ATOM     23  N   UNL     1       6.889   6.957  16.552  0.00  0.00    +0.000 NA
ATOM     24  C   UNL     1       6.208   5.778  16.588  0.00  0.00    +0.000 A 
BRANCH  24  25
ATOM     25  O   UNL     1       5.616   5.637  15.369  0.00  0.00    +0.000 OA
BRANCH  25  26
ATOM     26  C   UNL     1       6.214   5.004  14.333  0.00  0.00    +0.000 A 
ATOM     27  C   UNL     1       7.475   5.335  13.847  0.00  0.00    +0.000 A 
ATOM     28  C   UNL     1       7.855   4.843  12.600  0.00  0.00    +0.000 A 
ATOM     29  C   UNL     1       7.017   3.953  11.924  0.00  0.00    +0.000 A 
ATOM     30  C   UNL     1       5.863   3.486  12.532  0.00  0.00    +0.000 A 
ATOM     31  F   UNL     1       5.093   2.581  11.913  0.00  0.00    +0.000 F 
ATOM     32  C   UNL     1       5.462   3.981  13.760  0.00  0.00    +0.000 A 
ENDBRANCH  25  26
ENDBRANCH  24  25
ENDBRANCH  18  19
ENDBRANCH   1  18
TORSDOF 6
ENDMDL
MODEL 3
REMARK VINA RESULT:      -8.7      1.253      1.866
REMARK  Name = 
REMARK  6 active torsions:
REMARK  status: ('A' for Active; 'I' for Inactive)
REMARK    1  A    between atoms: C_7  and  S_8
REMARK    2  A    between atoms: S_8  and  N_11
REMARK    3  A    between atoms: N_11  and  C_12
REMARK    4  A    between atoms: C_12  and  C_13
REMARK    5  A    between atoms: C_18  and  O_19
REMARK    6  A    between atoms: O_19  and  C_20
REMARK                            x       y       z     vdW  Elec       q    Type
REMARK                         _______ _______ _______ _____ _____    ______ ____
ROOT
ATOM      1  N   UNL     1       3.420   3.958  17.500  0.00  0.00    +0.000 NA
ATOM      2  H   UNL     1       3.245   4.751  16.887  0.00  0.00    +0.000 HD
ENDROOT
BRANCH   1   3
ATOM      3  S   UNL     1       2.657   4.149  19.018  0.00  0.00    +0.000 S 
ATOM      4  O   UNL     1       3.585   3.794  20.050  0.00  0.00    +0.000 OA
ATOM      5  O   UNL     1       1.352   3.525  18.907  0.00  0.00    +0.000 OA
BRANCH   3  12
ATOM      6  O   UNL     1       0.271  11.704  20.382  0.00  0.00    +0.000 OA
ATOM      7  C   UNL     1       0.771  10.591  20.431  0.00  0.00    +0.000 C 
ATOM      8  C   UNL     1       1.091   9.882  21.725  0.00  0.00    +0.000 C 
ATOM      9  C   UNL     1       0.756   8.399  21.612  0.00  0.00    +0.000 C 
ATOM     10  C   UNL     1       1.428   7.797  20.403  0.00  0.00    +0.000 A 
ATOM     11  C   UNL     1       1.733   6.426  20.323  0.00  0.00    +0.000 A 
ATOM     12  C   UNL     1       2.324   5.911  19.160  0.00  0.00    +0.000 A 
ATOM     13  C   UNL     1       2.723   6.780  18.136  0.00  0.00    +0.000 A 
ATOM     14  C   UNL     1       2.358   8.130  18.186  0.00  0.00    +0.000 A 
ATOM     15  C   UNL     1       1.677   8.621  19.301  0.00  0.00    +0.000 A 
ATOM     16  N   UNL     1       1.212   9.945  19.300  0.00  0.00    +0.000 N 
ATOM     17  H   UNL     1       1.137  10.465  18.435  0.00  0.00    +0.000 HD
ENDBRANCH   3  12
ENDBRANCH   1   3
BRANCH   1  18
ATOM     18  C   UNL     1       4.865   3.576  17.487  0.00  0.00    +0.000 C 
BRANCH  18  19
ATOM     19  C   UNL     1       5.827   4.770  17.495  0.00  0.00    +0.000 A 
ATOM     20  C   UNL     1       6.528   4.965  18.710  0.00  0.00    +0.000 A 
ATOM     21  C   UNL     1       7.428   6.016  18.886  0.00  0.00    +0.000 A 
ATOM     22  C   UNL     1       7.613   6.886  17.842  0.00  0.00    +0.000 A 
ATOM     23  N   UNL     1       6.965   6.760  16.674  0.00  0.00    +0.000 NA
ATOM     24  C   UNL     1       6.088   5.733  16.495  0.00  0.00    +0.000 A 
BRANCH  24  25
ATOM     25  O   UNL     1       5.671   5.804  15.200  0.00  0.00    +0.000 OA
BRANCH  25  26
ATOM     26  C   UNL     1       6.244   5.086  14.205  0.00  0.00    +0.000 A 
ATOM     27  C   UNL     1       7.498   5.369  13.671  0.00  0.00    +0.000 A 
ATOM     28  C   UNL     1       7.850   4.776  12.460  0.00  0.00    +0.000 A 
ATOM     29  C   UNL     1       6.994   3.843  11.872  0.00  0.00    +0.000 A 
ATOM     30  C   UNL     1       5.849   3.434  12.537  0.00  0.00    +0.000 A 
ATOM     31  F   UNL     1       5.061   2.489  12.006  0.00  0.00    +0.000 F 
ATOM     32  C   UNL     1       5.475   4.028  13.730  0.00  0.00    +0.000 A 
ENDBRANCH  25  26
ENDBRANCH  24  25
ENDBRANCH  18  19
ENDBRANCH   1  18
TORSDOF 6
ENDMDL
MODEL 4
REMARK VINA RESULT:      -8.7      3.060      5.259
REMARK  Name = 
REMARK  6 active torsions:
REMARK  status: ('A' for Active; 'I' for Inactive)
REMARK    1  A    between atoms: C_7  and  S_8
REMARK    2  A    between atoms: S_8  and  N_11
REMARK    3  A    between atoms: N_11  and  C_12
REMARK    4  A    between atoms: C_12  and  C_13
REMARK    5  A    between atoms: C_18  and  O_19
REMARK    6  A    between atoms: O_19  and  C_20
REMARK                            x       y       z     vdW  Elec       q    Type
REMARK                         _______ _______ _______ _____ _____    ______ ____
ROOT
ATOM      1  N   UNL     1       3.165   6.422  20.008  0.00  0.00    +0.000 NA
ATOM      2  H   UNL     1       3.347   7.101  20.743  0.00  0.00    +0.000 HD
ENDROOT
BRANCH   1   3
ATOM      3  S   UNL     1       2.628   7.174  18.569  0.00  0.00    +0.000 S 
ATOM      4  O   UNL     1       1.808   6.250  17.844  0.00  0.00    +0.000 OA
ATOM      5  O   UNL     1       3.790   7.806  17.974  0.00  0.00    +0.000 OA
BRANCH   3  12
ATOM      6  O   UNL     1      -2.483  12.472  21.798  0.00  0.00    +0.000 OA
ATOM      7  C   UNL     1      -1.537  11.746  21.533  0.00  0.00    +0.000 C 
ATOM      8  C   UNL     1      -0.599  11.193  22.579  0.00  0.00    +0.000 C 
ATOM      9  C   UNL     1      -0.236   9.749  22.253  0.00  0.00    +0.000 C 
ATOM     10  C   UNL     1       0.288   9.642  20.842  0.00  0.00    +0.000 A 
ATOM     11  C   UNL     1       1.151   8.606  20.442  0.00  0.00    +0.000 A 
ATOM     12  C   UNL     1       1.579   8.532  19.109  0.00  0.00    +0.000 A 
ATOM     13  C   UNL     1       1.250   9.556  18.212  0.00  0.00    +0.000 A 
ATOM     14  C   UNL     1       0.337  10.547  18.591  0.00  0.00    +0.000 A 
ATOM     15  C   UNL     1      -0.169  10.560  19.891  0.00  0.00    +0.000 A 
ATOM     16  N   UNL     1      -1.169  11.482  20.236  0.00  0.00    +0.000 N 
ATOM     17  H   UNL     1      -1.699  11.960  19.518  0.00  0.00    +0.000 HD
ENDBRANCH   3  12
ENDBRANCH   1   3
BRANCH   1  18
ATOM     18  C   UNL     1       2.376   5.263  20.527  0.00  0.00    +0.000 C 
BRANCH  18  19
ATOM     19  C   UNL     1       2.625   3.950  19.775  0.00  0.00    +0.000 A 
ATOM     20  C   UNL     1       1.457   3.226  19.435  0.00  0.00    +0.000 A 
ATOM     21  C   UNL     1       1.511   2.004  18.764  0.00  0.00    +0.000 A 
ATOM     22  C   UNL     1       2.747   1.499  18.448  0.00  0.00    +0.000 A 
ATOM     23  N   UNL     1       3.887   2.133  18.759  0.00  0.00    +0.000 NA
ATOM     24  C   UNL     1       3.840   3.328  19.410  0.00  0.00    +0.000 A 
BRANCH  24  25
ATOM     25  O   UNL     1       5.126   3.772  19.496  0.00  0.00    +0.000 OA
BRANCH  25  26
ATOM     26  C   UNL     1       5.650   4.669  18.627  0.00  0.00    +0.000 A 
ATOM     27  C   UNL     1       5.284   4.753  17.288  0.00  0.00    +0.000 A 
ATOM     28  C   UNL     1       6.098   5.483  16.423  0.00  0.00    +0.000 A 
ATOM     29  C   UNL     1       7.188   6.191  16.934  0.00  0.00    +0.000 A 
ATOM     30  C   UNL     1       7.400   6.249  18.302  0.00  0.00    +0.000 A 
ATOM     31  F   UNL     1       8.406   6.984  18.798  0.00  0.00    +0.000 F 
ATOM     32  C   UNL     1       6.614   5.514  19.171  0.00  0.00    +0.000 A 
ENDBRANCH  25  26
ENDBRANCH  24  25
ENDBRANCH  18  19
ENDBRANCH   1  18
TORSDOF 6
ENDMDL
MODEL 5
REMARK VINA RESULT:      -8.6      2.123      3.934
REMARK  Name = 
REMARK  6 active torsions:
REMARK  status: ('A' for Active; 'I' for Inactive)
REMARK    1  A    between atoms: C_7  and  S_8
REMARK    2  A    between atoms: S_8  and  N_11
REMARK    3  A    between atoms: N_11  and  C_12
REMARK    4  A    between atoms: C_12  and  C_13
REMARK    5  A    between atoms: C_18  and  O_19
REMARK    6  A    between atoms: O_19  and  C_20
REMARK                            x       y       z     vdW  Elec       q    Type
REMARK                         _______ _______ _______ _____ _____    ______ ____
ROOT
ATOM      1  N   UNL     1       5.041   3.543  17.395  0.00  0.00    +0.000 NA
ATOM      2  H   UNL     1       5.915   3.026  17.463  0.00  0.00    +0.000 HD
ENDROOT
BRANCH   1   3
ATOM      3  S   UNL     1       3.952   3.112  18.640  0.00  0.00    +0.000 S 
ATOM      4  O   UNL     1       4.702   2.679  19.781  0.00  0.00    +0.000 OA
ATOM      5  O   UNL     1       2.931   2.282  18.028  0.00  0.00    +0.000 OA
BRANCH   3  12
ATOM      6  O   UNL     1       1.059  10.490  19.991  0.00  0.00    +0.000 OA
ATOM      7  C   UNL     1       1.355   9.397  19.532  0.00  0.00    +0.000 C 
ATOM      8  C   UNL     1       1.471   9.125  18.051  0.00  0.00    +0.000 C 
ATOM      9  C   UNL     1       2.659   8.209  17.774  0.00  0.00    +0.000 C 
ATOM     10  C   UNL     1       2.574   6.963  18.622  0.00  0.00    +0.000 A 
ATOM     11  C   UNL     1       3.189   5.758  18.241  0.00  0.00    +0.000 A 
ATOM     12  C   UNL     1       3.112   4.640  19.083  0.00  0.00    +0.000 A 
ATOM     13  C   UNL     1       2.319   4.688  20.237  0.00  0.00    +0.000 A 
ATOM     14  C   UNL     1       1.765   5.906  20.650  0.00  0.00    +0.000 A 
ATOM     15  C   UNL     1       1.930   7.044  19.861  0.00  0.00    +0.000 A 
ATOM     16  N   UNL     1       1.474   8.285  20.331  0.00  0.00    +0.000 N 
ATOM     17  H   UNL     1       1.259   8.418  21.310  0.00  0.00    +0.000 HD
ENDBRANCH   3  12
ENDBRANCH   1   3
BRANCH   1  18
ATOM     18  C   UNL     1       4.529   3.555  15.990  0.00  0.00    +0.000 C 
BRANCH  18  19
ATOM     19  C   UNL     1       5.517   4.134  14.970  0.00  0.00    +0.000 A 
ATOM     20  C   UNL     1       5.723   3.336  13.819  0.00  0.00    +0.000 A 
ATOM     21  C   UNL     1       6.603   3.712  12.804  0.00  0.00    +0.000 A 
ATOM     22  C   UNL     1       7.292   4.890  12.955  0.00  0.00    +0.000 A 
ATOM     23  N   UNL     1       7.148   5.677  14.030  0.00  0.00    +0.000 NA
ATOM     24  C   UNL     1       6.287   5.317  15.023  0.00  0.00    +0.000 A 
BRANCH  24  25
ATOM     25  O   UNL     1       6.277   6.345  15.917  0.00  0.00    +0.000 OA
BRANCH  25  26
ATOM     26  C   UNL     1       7.115   6.400  16.979  0.00  0.00    +0.000 A 
ATOM     27  C   UNL     1       7.417   5.305  17.783  0.00  0.00    +0.000 A 
ATOM     28  C   UNL     1       8.027   5.536  19.015  0.00  0.00    +0.000 A 
ATOM     29  C   UNL     1       8.412   6.832  19.363  0.00  0.00    +0.000 A 
ATOM     30  C   UNL     1       8.280   7.866  18.450  0.00  0.00    +0.000 A 
ATOM     31  F   UNL     1       8.712   9.097  18.757  0.00  0.00    +0.000 F 
ATOM     32  C   UNL     1       7.658   7.656  17.231  0.00  0.00    +0.000 A 
ENDBRANCH  25  26
ENDBRANCH  24  25
ENDBRANCH  18  19
ENDBRANCH   1  18
TORSDOF 6
ENDMDL
MODEL 6
REMARK VINA RESULT:      -8.2      3.384      7.916
REMARK  Name = 
REMARK  6 active torsions:
REMARK  status: ('A' for Active; 'I' for Inactive)
REMARK    1  A    between atoms: C_7  and  S_8
REMARK    2  A    between atoms: S_8  and  N_11
REMARK    3  A    between atoms: N_11  and  C_12
REMARK    4  A    between atoms: C_12  and  C_13
REMARK    5  A    between atoms: C_18  and  O_19
REMARK    6  A    between atoms: O_19  and  C_20
REMARK                            x       y       z     vdW  Elec       q    Type
REMARK                         _______ _______ _______ _____ _____    ______ ____
ROOT
ATOM      1  N   UNL     1       2.081   6.056  21.250  0.00  0.00    +0.000 NA
ATOM      2  H   UNL     1       2.999   6.440  21.040  0.00  0.00    +0.000 HD
ENDROOT
BRANCH   1   3
ATOM      3  S   UNL     1       1.929   4.442  20.706  0.00  0.00    +0.000 S 
ATOM      4  O   UNL     1       0.610   4.255  20.179  0.00  0.00    +0.000 OA
ATOM      5  O   UNL     1       2.466   3.599  21.756  0.00  0.00    +0.000 OA
BRANCH   3  12
ATOM      6  O   UNL     1       7.635   4.763  15.053  0.00  0.00    +0.000 OA
ATOM      7  C   UNL     1       6.980   4.587  16.069  0.00  0.00    +0.000 C 
ATOM      8  C   UNL     1       7.589   4.542  17.450  0.00  0.00    +0.000 C 
ATOM      9  C   UNL     1       6.687   5.259  18.449  0.00  0.00    +0.000 C 
ATOM     10  C   UNL     1       5.283   4.710  18.380  0.00  0.00    +0.000 A 
ATOM     11  C   UNL     1       4.398   4.784  19.471  0.00  0.00    +0.000 A 
ATOM     12  C   UNL     1       3.091   4.293  19.342  0.00  0.00    +0.000 A 
ATOM     13  C   UNL     1       2.711   3.618  18.174  0.00  0.00    +0.000 A 
ATOM     14  C   UNL     1       3.567   3.606  17.066  0.00  0.00    +0.000 A 
ATOM     15  C   UNL     1       4.831   4.188  17.164  0.00  0.00    +0.000 A 
ATOM     16  N   UNL     1       5.642   4.277  16.022  0.00  0.00    +0.000 N 
ATOM     17  H   UNL     1       5.246   4.160  15.098  0.00  0.00    +0.000 HD
ENDBRANCH   3  12
ENDBRANCH   1   3
BRANCH   1  18
ATOM     18  C   UNL     1       0.998   7.021  20.889  0.00  0.00    +0.000 C 
BRANCH  18  19
ATOM     19  C   UNL     1       1.391   8.021  19.795  0.00  0.00    +0.000 A 
ATOM     20  C   UNL     1       2.332   7.536  18.853  0.00  0.00    +0.000 A 
ATOM     21  C   UNL     1       2.806   8.326  17.806  0.00  0.00    +0.000 A 
ATOM     22  C   UNL     1       2.345   9.615  17.714  0.00  0.00    +0.000 A 
ATOM     23  N   UNL     1       1.467  10.132  18.585  0.00  0.00    +0.000 NA
ATOM     24  C   UNL     1       0.997   9.364  19.608  0.00  0.00    +0.000 A 
BRANCH  24  25
ATOM     25  O   UNL     1       0.060  10.113  20.254  0.00  0.00    +0.000 OA
BRANCH  25  26
ATOM     26  C   UNL     1      -0.960  10.726  19.608  0.00  0.00    +0.000 A 
ATOM     27  C   UNL     1      -1.460  11.975  19.960  0.00  0.00    +0.000 A 
ATOM     28  C   UNL     1      -2.694  12.365  19.444  0.00  0.00    +0.000 A 
ATOM     29  C   UNL     1      -3.342  11.551  18.513  0.00  0.00    +0.000 A 
ATOM     30  C   UNL     1      -2.716  10.412  18.031  0.00  0.00    +0.000 A 
ATOM     31  F   UNL     1      -3.307   9.666  17.087  0.00  0.00    +0.000 F 
ATOM     32  C   UNL     1      -1.501  10.001  18.549  0.00  0.00    +0.000 A 
ENDBRANCH  25  26
ENDBRANCH  24  25
ENDBRANCH  18  19
ENDBRANCH   1  18
TORSDOF 6
ENDMDL
MODEL 7
REMARK VINA RESULT:      -8.2      3.080      5.264
REMARK  Name = 
REMARK  6 active torsions:
REMARK  status: ('A' for Active; 'I' for Inactive)
REMARK    1  A    between atoms: C_7  and  S_8
REMARK    2  A    between atoms: S_8  and  N_11
REMARK    3  A    between atoms: N_11  and  C_12
REMARK    4  A    between atoms: C_12  and  C_13
REMARK    5  A    between atoms: C_18  and  O_19
REMARK    6  A    between atoms: O_19  and  C_20
REMARK                            x       y       z     vdW  Elec       q    Type
REMARK                         _______ _______ _______ _____ _____    ______ ____
ROOT
ATOM      1  N   UNL     1       1.428   6.051  18.008  0.00  0.00    +0.000 NA
ATOM      2  H   UNL     1       0.898   6.425  17.224  0.00  0.00    +0.000 HD
ENDROOT
BRANCH   1   3
ATOM      3  S   UNL     1       2.568   7.179  18.600  0.00  0.00    +0.000 S 
ATOM      4  O   UNL     1       3.297   7.722  17.493  0.00  0.00    +0.000 OA
ATOM      5  O   UNL     1       3.231   6.546  19.724  0.00  0.00    +0.000 OA
BRANCH   3  12
ATOM      6  O   UNL     1      -2.363  12.247  22.424  0.00  0.00    +0.000 OA
ATOM      7  C   UNL     1      -1.460  11.495  22.092  0.00  0.00    +0.000 C 
ATOM      8  C   UNL     1      -0.670  10.664  23.074  0.00  0.00    +0.000 C 
ATOM      9  C   UNL     1      -0.399   9.278  22.497  0.00  0.00    +0.000 C 
ATOM     10  C   UNL     1       0.241   9.390  21.135  0.00  0.00    +0.000 A 
ATOM     11  C   UNL     1       1.049   8.369  20.604  0.00  0.00    +0.000 A 
ATOM     12  C   UNL     1       1.590   8.506  19.318  0.00  0.00    +0.000 A 
ATOM     13  C   UNL     1       1.429   9.709  18.618  0.00  0.00    +0.000 A 
ATOM     14  C   UNL     1       0.570  10.696  19.117  0.00  0.00    +0.000 A 
ATOM     15  C   UNL     1      -0.050  10.512  20.353  0.00  0.00    +0.000 A 
ATOM     16  N   UNL     1      -0.997  11.446  20.798  0.00  0.00    +0.000 N 
ATOM     17  H   UNL     1      -1.418  12.101  20.152  0.00  0.00    +0.000 HD
ENDBRANCH   3  12
ENDBRANCH   1   3
BRANCH   1  18
ATOM     18  C   UNL     1       1.901   4.661  17.724  0.00  0.00    +0.000 C 
BRANCH  18  19
ATOM     19  C   UNL     1       2.285   3.864  18.976  0.00  0.00    +0.000 A 
ATOM     20  C   UNL     1       1.249   3.713  19.930  0.00  0.00    +0.000 A 
ATOM     21  C   UNL     1       1.440   3.030  21.131  0.00  0.00    +0.000 A 
ATOM     22  C   UNL     1       2.684   2.508  21.382  0.00  0.00    +0.000 A 
ATOM     23  N   UNL     1       3.706   2.633  20.523  0.00  0.00    +0.000 NA
ATOM     24  C   UNL     1       3.524   3.296  19.347  0.00  0.00    +0.000 A 
BRANCH  24  25
ATOM     25  O   UNL     1       4.689   3.173  18.650  0.00  0.00    +0.000 OA
BRANCH  25  26
ATOM     26  C   UNL     1       5.327   4.230  18.096  0.00  0.00    +0.000 A 
ATOM     27  C   UNL     1       5.177   4.616  16.768  0.00  0.00    +0.000 A 
ATOM     28  C   UNL     1       6.104   5.505  16.227  0.00  0.00    +0.000 A 
ATOM     29  C   UNL     1       7.085   6.064  17.048  0.00  0.00    +0.000 A 
ATOM     30  C   UNL     1       7.076   5.815  18.411  0.00  0.00    +0.000 A 
ATOM     31  F   UNL     1       7.975   6.405  19.211  0.00  0.00    +0.000 F 
ATOM     32  C   UNL     1       6.175   4.918  18.959  0.00  0.00    +0.000 A 
ENDBRANCH  25  26
ENDBRANCH  24  25
ENDBRANCH  18  19
ENDBRANCH   1  18
TORSDOF 6
ENDMDL
MODEL 8
REMARK VINA RESULT:      -8.2      3.099      5.126
REMARK  Name = 
REMARK  6 active torsions:
REMARK  status: ('A' for Active; 'I' for Inactive)
REMARK    1  A    between atoms: C_7  and  S_8
REMARK    2  A    between atoms: S_8  and  N_11
REMARK    3  A    between atoms: N_11  and  C_12
REMARK    4  A    between atoms: C_12  and  C_13
REMARK    5  A    between atoms: C_18  and  O_19
REMARK    6  A    between atoms: O_19  and  C_20
REMARK                            x       y       z     vdW  Elec       q    Type
REMARK                         _______ _______ _______ _____ _____    ______ ____
ROOT
ATOM      1  N   UNL     1       3.305   6.312  20.003  0.00  0.00    +0.000 NA
ATOM      2  H   UNL     1       3.602   6.935  20.751  0.00  0.00    +0.000 HD
ENDROOT
BRANCH   1   3
ATOM      3  S   UNL     1       2.602   7.173  18.703  0.00  0.00    +0.000 S 
ATOM      4  O   UNL     1       1.752   6.285  17.967  0.00  0.00    +0.000 OA
ATOM      5  O   UNL     1       3.675   7.915  18.070  0.00  0.00    +0.000 OA
BRANCH   3  12
ATOM      6  O   UNL     1      -1.731  13.454  21.232  0.00  0.00    +0.000 OA
ATOM      7  C   UNL     1      -1.304  12.456  20.673  0.00  0.00    +0.000 C 
ATOM      8  C   UNL     1      -1.685  12.068  19.265  0.00  0.00    +0.000 C 
ATOM      9  C   UNL     1      -0.470  11.523  18.520  0.00  0.00    +0.000 C 
ATOM     10  C   UNL     1       0.177  10.411  19.308  0.00  0.00    +0.000 A 
ATOM     11  C   UNL     1       0.947   9.410  18.690  0.00  0.00    +0.000 A 
ATOM     12  C   UNL     1       1.559   8.420  19.473  0.00  0.00    +0.000 A 
ATOM     13  C   UNL     1       1.299   8.357  20.848  0.00  0.00    +0.000 A 
ATOM     14  C   UNL     1       0.590   9.392  21.471  0.00  0.00    +0.000 A 
ATOM     15  C   UNL     1       0.069  10.433  20.702  0.00  0.00    +0.000 A 
ATOM     16  N   UNL     1      -0.540  11.525  21.337  0.00  0.00    +0.000 N 
ATOM     17  H   UNL     1      -0.393  11.696  22.324  0.00  0.00    +0.000 HD
ENDBRANCH   3  12
ENDBRANCH   1   3
BRANCH   1  18
ATOM     18  C   UNL     1       2.561   5.134  20.545  0.00  0.00    +0.000 C 
BRANCH  18  19
ATOM     19  C   UNL     1       2.803   3.832  19.772  0.00  0.00    +0.000 A 
ATOM     20  C   UNL     1       1.634   3.096  19.462  0.00  0.00    +0.000 A 
ATOM     21  C   UNL     1       1.683   1.881  18.778  0.00  0.00    +0.000 A 
ATOM     22  C   UNL     1       2.915   1.396  18.417  0.00  0.00    +0.000 A 
ATOM     23  N   UNL     1       4.055   2.042  18.699  0.00  0.00    +0.000 NA
ATOM     24  C   UNL     1       4.013   3.230  19.363  0.00  0.00    +0.000 A 
BRANCH  24  25
ATOM     25  O   UNL     1       5.295   3.690  19.412  0.00  0.00    +0.000 OA
BRANCH  25  26
ATOM     26  C   UNL     1       5.755   4.667  18.595  0.00  0.00    +0.000 A 
ATOM     27  C   UNL     1       5.321   4.848  17.286  0.00  0.00    +0.000 A 
ATOM     28  C   UNL     1       6.074   5.667  16.445  0.00  0.00    +0.000 A 
ATOM     29  C   UNL     1       7.170   6.362  16.959  0.00  0.00    +0.000 A 
ATOM     30  C   UNL     1       7.449   6.317  18.316  0.00  0.00    +0.000 A 
ATOM     31  F   UNL     1       8.459   7.037  18.821  0.00  0.00    +0.000 F 
ATOM     32  C   UNL     1       6.724   5.493  19.159  0.00  0.00    +0.000 A 
ENDBRANCH  25  26
ENDBRANCH  24  25
ENDBRANCH  18  19
ENDBRANCH   1  18
TORSDOF 6
ENDMDL
MODEL 9
REMARK VINA RESULT:      -8.1      3.667      6.190
REMARK  Name = 
REMARK  6 active torsions:
REMARK  status: ('A' for Active; 'I' for Inactive)
REMARK    1  A    between atoms: C_7  and  S_8
REMARK    2  A    between atoms: S_8  and  N_11
REMARK    3  A    between atoms: N_11  and  C_12
REMARK    4  A    between atoms: C_12  and  C_13
REMARK    5  A    between atoms: C_18  and  O_19
REMARK    6  A    between atoms: O_19  and  C_20
REMARK                            x       y       z     vdW  Elec       q    Type
REMARK                         _______ _______ _______ _____ _____    ______ ____
ROOT
ATOM      1  N   UNL     1       1.906   8.012  20.901  0.00  0.00    +0.000 NA
ATOM      2  H   UNL     1       2.570   7.570  21.533  0.00  0.00    +0.000 HD
ENDROOT
BRANCH   1   3
ATOM      3  S   UNL     1       0.673   8.836  21.751  0.00  0.00    +0.000 S 
ATOM      4  O   UNL     1       1.191   9.265  23.016  0.00  0.00    +0.000 OA
ATOM      5  O   UNL     1      -0.521   8.019  21.644  0.00  0.00    +0.000 OA
BRANCH   3  12
ATOM      6  O   UNL     1      -0.499  16.019  18.337  0.00  0.00    +0.000 OA
ATOM      7  C   UNL     1      -0.044  14.972  18.771  0.00  0.00    +0.000 C 
ATOM      8  C   UNL     1       1.388  14.815  19.223  0.00  0.00    +0.000 C 
ATOM      9  C   UNL     1       1.454  13.952  20.479  0.00  0.00    +0.000 C 
ATOM     10  C   UNL     1       0.734  12.644  20.258  0.00  0.00    +0.000 A 
ATOM     11  C   UNL     1       1.050  11.486  20.991  0.00  0.00    +0.000 A 
ATOM     12  C   UNL     1       0.325  10.305  20.774  0.00  0.00    +0.000 A 
ATOM     13  C   UNL     1      -0.622  10.248  19.743  0.00  0.00    +0.000 A 
ATOM     14  C   UNL     1      -0.983  11.416  19.062  0.00  0.00    +0.000 A 
ATOM     15  C   UNL     1      -0.331  12.615  19.353  0.00  0.00    +0.000 A 
ATOM     16  N   UNL     1      -0.771  13.805  18.755  0.00  0.00    +0.000 N 
ATOM     17  H   UNL     1      -1.684  13.858  18.322  0.00  0.00    +0.000 HD
ENDBRANCH   3  12
ENDBRANCH   1   3
BRANCH   1  18
ATOM     18  C   UNL     1       1.498   7.077  19.808  0.00  0.00    +0.000 C 
BRANCH  18  19
ATOM     19  C   UNL     1       1.969   5.633  20.013  0.00  0.00    +0.000 A 
ATOM     20  C   UNL     1       0.947   4.712  20.349  0.00  0.00    +0.000 A 
ATOM     21  C   UNL     1       1.212   3.363  20.585  0.00  0.00    +0.000 A 
ATOM     22  C   UNL     1       2.514   2.940  20.500  0.00  0.00    +0.000 A 
ATOM     23  N   UNL     1       3.525   3.770  20.201  0.00  0.00    +0.000 NA
ATOM     24  C   UNL     1       3.271   5.087  19.966  0.00  0.00    +0.000 A 
BRANCH  24  25
ATOM     25  O   UNL     1       4.456   5.647  19.594  0.00  0.00    +0.000 OA
BRANCH  25  26
ATOM     26  C   UNL     1       5.058   5.372  18.412  0.00  0.00    +0.000 A 
ATOM     27  C   UNL     1       4.389   5.341  17.193  0.00  0.00    +0.000 A 
ATOM     28  C   UNL     1       5.023   4.746  16.104  0.00  0.00    +0.000 A 
ATOM     29  C   UNL     1       6.338   4.296  16.232  0.00  0.00    +0.000 A 
ATOM     30  C   UNL     1       7.042   4.530  17.402  0.00  0.00    +0.000 A 
ATOM     31  F   UNL     1       8.326   4.159  17.503  0.00  0.00    +0.000 F 
ATOM     32  C   UNL     1       6.420   5.100  18.499  0.00  0.00    +0.000 A 
ENDBRANCH  25  26
ENDBRANCH  24  25
ENDBRANCH  18  19
ENDBRANCH   1  18
TORSDOF 6
ENDMDL
