MODEL 1
REMARK VINA RESULT:      -7.7      0.000      0.000
REMARK  Name = 
REMARK  8 active torsions:
REMARK  status: ('A' for Active; 'I' for Inactive)
REMARK    1  A    between atoms: C_1  and  C_2
REMARK    2  A    between atoms: C_2  and  C_3
REMARK    3  A    between atoms: C_3  and  C_5
REMARK    4  A    between atoms: C_5  and  C_6
REMARK    5  A    between atoms: C_10  and  N_11
REMARK    6  A    between atoms: C_16  and  C_17
REMARK    7  A    between atoms: C_17  and  N_18
REMARK    8  A    between atoms: C_24  and  C_25
REMARK                            x       y       z     vdW  Elec       q    Type
REMARK                         _______ _______ _______ _____ _____    ______ ____
ROOT
ATOM      1  N   UNL     1       0.786   8.352  21.109  0.00  0.00    +0.000 N 
ATOM      2  C   UNL     1      -0.485   8.683  20.406  0.00  0.00    +0.000 C 
ATOM      3  C   UNL     1      -0.335  10.152  20.159  0.00  0.00    +0.000 A 
ATOM      4  C   UNL     1       0.509  10.648  21.152  0.00  0.00    +0.000 A 
ATOM      5  C   UNL     1       1.041  11.923  21.124  0.00  0.00    +0.000 A 
ATOM      6  C   UNL     1       0.695  12.748  20.047  0.00  0.00    +0.000 A 
ATOM      7  C   UNL     1      -0.177  12.257  19.043  0.00  0.00    +0.000 A 
ATOM      8  C   UNL     1      -0.703  10.946  19.074  0.00  0.00    +0.000 A 
ATOM      9  C   UNL     1       1.092   9.497  21.885  0.00  0.00    +0.000 C 
ATOM     10  O   UNL     1       1.852   9.598  22.829  0.00  0.00    +0.000 OA
ENDROOT
BRANCH   1  15
ATOM     11  C   UNL     1       2.510   5.937  19.056  0.00  0.00    +0.000 A 
ATOM     12  C   UNL     1       2.361   6.564  17.812  0.00  0.00    +0.000 A 
ATOM     13  C   UNL     1       2.108   7.931  17.744  0.00  0.00    +0.000 A 
ATOM     14  C   UNL     1       1.892   8.654  18.914  0.00  0.00    +0.000 A 
ATOM     15  C   UNL     1       1.809   7.972  20.140  0.00  0.00    +0.000 A 
ATOM     16  C   UNL     1       2.305   6.672  20.226  0.00  0.00    +0.000 A 
BRANCH  11  17
ATOM     17  C   UNL     1       2.817   4.468  19.135  0.00  0.00    +0.000 C 
BRANCH  17  18
ATOM     18  C   UNL     1       1.576   3.617  19.008  0.00  0.00    +0.000 C 
ATOM     19  O   UNL     1       1.201   3.221  17.898  0.00  0.00    +0.000 OA
BRANCH  18  21
ATOM     20  C   UNL     1       1.704   2.794  21.386  0.00  0.00    +0.000 C 
ATOM     21  C   UNL     1       0.806   3.325  20.284  0.00  0.00    +0.000 C 
ENDBRANCH  18  21
ENDBRANCH  17  18
ENDBRANCH  11  17
ENDBRANCH   1  15
BRANCH   8  22
ATOM     22  C   UNL     1      -1.508  10.448  17.901  0.00  0.00    +0.000 C 
ATOM     23  F   UNL     1      -2.683   9.854  18.248  0.00  0.00    +0.000 F 
ATOM     24  F   UNL     1      -1.842  11.449  17.044  0.00  0.00    +0.000 F 
ATOM     25  F   UNL     1      -0.834   9.525  17.159  0.00  0.00    +0.000 F 
ENDBRANCH   8  22
BRANCH   6  26
ATOM     26  C   UNL     1       1.307  14.129  19.932  0.00  0.00    +0.000 C 
BRANCH  26  27
ATOM     27  N   UNL     1       1.827  14.395  18.586  0.00  0.00    +0.000 NA
ATOM     28  C   UNL     1       2.144  15.804  18.380  0.00  0.00    +0.000 C 
ATOM     29  C   UNL     1       3.503  15.830  17.716  0.00  0.00    +0.000 C 
ATOM     30  N   UNL     1       4.090  14.510  17.923  0.00  0.00    +0.000 NA
ATOM     31  C   UNL     1       3.018  13.613  18.305  0.00  0.00    +0.000 C 
ATOM     32  H   UNL     1       4.765  14.558  18.682  0.00  0.00    +0.000 HD
ENDBRANCH  26  27
ENDBRANCH   6  26
TORSDOF 7
ENDMDL
MODEL 2
REMARK VINA RESULT:      -7.7      4.563      7.211
REMARK  Name = 
REMARK  8 active torsions:
REMARK  status: ('A' for Active; 'I' for Inactive)
REMARK    1  A    between atoms: C_1  and  C_2
REMARK    2  A    between atoms: C_2  and  C_3
REMARK    3  A    between atoms: C_3  and  C_5
REMARK    4  A    between atoms: C_5  and  C_6
REMARK    5  A    between atoms: C_10  and  N_11
REMARK    6  A    between atoms: C_16  and  C_17
REMARK    7  A    between atoms: C_17  and  N_18
REMARK    8  A    between atoms: C_24  and  C_25
REMARK                            x       y       z     vdW  Elec       q    Type
REMARK                         _______ _______ _______ _____ _____    ______ ____
ROOT
ATOM      1  N   UNL     1      -0.278  11.357  18.518  0.00  0.00    +0.000 N 
ATOM      2  C   UNL     1       0.473  10.596  19.554  0.00  0.00    +0.000 C 
ATOM      3  C   UNL     1       0.009  11.245  20.820  0.00  0.00    +0.000 A 
ATOM      4  C   UNL     1      -0.361  12.551  20.497  0.00  0.00    +0.000 A 
ATOM      5  C   UNL     1      -1.033  13.384  21.370  0.00  0.00    +0.000 A 
ATOM      6  C   UNL     1      -1.339  12.883  22.641  0.00  0.00    +0.000 A 
ATOM      7  C   UNL     1      -0.951  11.563  22.984  0.00  0.00    +0.000 A 
ATOM      8  C   UNL     1      -0.276  10.715  22.077  0.00  0.00    +0.000 A 
ATOM      9  C   UNL     1      -0.369  12.678  19.019  0.00  0.00    +0.000 C 
ATOM     10  O   UNL     1      -0.628  13.706  18.420  0.00  0.00    +0.000 OA
ENDROOT
BRANCH   1  15
ATOM     11  C   UNL     1      -3.832  11.425  17.892  0.00  0.00    +0.000 A 
ATOM     12  C   UNL     1      -3.853  10.709  16.688  0.00  0.00    +0.000 A 
ATOM     13  C   UNL     1      -2.798   9.862  16.359  0.00  0.00    +0.000 A 
ATOM     14  C   UNL     1      -1.671   9.813  17.174  0.00  0.00    +0.000 A 
ATOM     15  C   UNL     1      -1.558  10.709  18.250  0.00  0.00    +0.000 A 
ATOM     16  C   UNL     1      -2.702  11.360  18.711  0.00  0.00    +0.000 A 
BRANCH  11  17
ATOM     17  C   UNL     1      -4.983  12.315  18.268  0.00  0.00    +0.000 C 
BRANCH  17  18
ATOM     18  C   UNL     1      -5.942  11.639  19.217  0.00  0.00    +0.000 C 
ATOM     19  O   UNL     1      -5.920  11.905  20.425  0.00  0.00    +0.000 OA
BRANCH  18  21
ATOM     20  C   UNL     1      -6.920   9.327  19.451  0.00  0.00    +0.000 C 
ATOM     21  C   UNL     1      -6.881  10.600  18.626  0.00  0.00    +0.000 C 
ENDBRANCH  18  21
ENDBRANCH  17  18
ENDBRANCH  11  17
ENDBRANCH   1  15
BRANCH   8  22
ATOM     22  C   UNL     1      -0.023   9.280  22.462  0.00  0.00    +0.000 C 
ATOM     23  F   UNL     1      -0.813   8.384  21.809  0.00  0.00    +0.000 F 
ATOM     24  F   UNL     1       1.257   8.896  22.204  0.00  0.00    +0.000 F 
ATOM     25  F   UNL     1      -0.224   9.050  23.789  0.00  0.00    +0.000 F 
ENDBRANCH   8  22
BRANCH   6  26
ATOM     26  C   UNL     1      -2.137  13.730  23.611  0.00  0.00    +0.000 C 
BRANCH  26  27
ATOM     27  N   UNL     1      -3.476  14.044  23.102  0.00  0.00    +0.000 NA
ATOM     28  C   UNL     1      -4.415  12.942  23.286  0.00  0.00    +0.000 C 
ATOM     29  C   UNL     1      -5.679  13.563  23.839  0.00  0.00    +0.000 C 
ATOM     30  N   UNL     1      -5.311  14.889  24.326  0.00  0.00    +0.000 NA
ATOM     31  C   UNL     1      -4.030  15.227  23.739  0.00  0.00    +0.000 C 
ATOM     32  H   UNL     1      -5.211  14.859  25.338  0.00  0.00    +0.000 HD
ENDBRANCH  26  27
ENDBRANCH   6  26
TORSDOF 7
ENDMDL
MODEL 3
REMARK VINA RESULT:      -7.4      3.531      4.843
REMARK  Name = 
REMARK  8 active torsions:
REMARK  status: ('A' for Active; 'I' for Inactive)
REMARK    1  A    between atoms: C_1  and  C_2
REMARK    2  A    between atoms: C_2  and  C_3
REMARK    3  A    between atoms: C_3  and  C_5
REMARK    4  A    between atoms: C_5  and  C_6
REMARK    5  A    between atoms: C_10  and  N_11
REMARK    6  A    between atoms: C_16  and  C_17
REMARK    7  A    between atoms: C_17  and  N_18
REMARK    8  A    between atoms: C_24  and  C_25
REMARK                            x       y       z     vdW  Elec       q    Type
REMARK                         _______ _______ _______ _____ _____    ______ ____
ROOT
ATOM      1  N   UNL     1       2.547   7.346  19.425  0.00  0.00    +0.000 N 
ATOM      2  C   UNL     1       2.230   8.123  20.656  0.00  0.00    +0.000 C 
ATOM      3  C   UNL     1       1.193   9.084  20.163  0.00  0.00    +0.000 A 
ATOM      4  C   UNL     1       1.424   9.269  18.799  0.00  0.00    +0.000 A 
ATOM      5  C   UNL     1       0.540   9.926  17.966  0.00  0.00    +0.000 A 
ATOM      6  C   UNL     1      -0.633  10.436  18.535  0.00  0.00    +0.000 A 
ATOM      7  C   UNL     1      -0.866  10.269  19.924  0.00  0.00    +0.000 A 
ATOM      8  C   UNL     1       0.038   9.581  20.764  0.00  0.00    +0.000 A 
ATOM      9  C   UNL     1       2.431   8.271  18.360  0.00  0.00    +0.000 C 
ATOM     10  O   UNL     1       2.865   8.189  17.226  0.00  0.00    +0.000 OA
ENDROOT
BRANCH   1  15
ATOM     11  C   UNL     1       1.824   3.963  18.400  0.00  0.00    +0.000 A 
ATOM     12  C   UNL     1       1.465   3.431  19.646  0.00  0.00    +0.000 A 
ATOM     13  C   UNL     1       1.046   4.274  20.671  0.00  0.00    +0.000 A 
ATOM     14  C   UNL     1       1.090   5.654  20.494  0.00  0.00    +0.000 A 
ATOM     15  C   UNL     1       1.673   6.181  19.330  0.00  0.00    +0.000 A 
ATOM     16  C   UNL     1       1.853   5.349  18.226  0.00  0.00    +0.000 A 
BRANCH  11  17
ATOM     17  C   UNL     1       2.246   3.055  17.279  0.00  0.00    +0.000 C 
BRANCH  17  18
ATOM     18  C   UNL     1       3.666   2.569  17.441  0.00  0.00    +0.000 C 
ATOM     19  O   UNL     1       3.896   1.473  17.967  0.00  0.00    +0.000 OA
BRANCH  18  21
ATOM     20  C   UNL     1       5.388   4.276  18.127  0.00  0.00    +0.000 C 
ATOM     21  C   UNL     1       4.772   3.501  16.977  0.00  0.00    +0.000 C 
ENDBRANCH  18  21
ENDBRANCH  17  18
ENDBRANCH  11  17
ENDBRANCH   1  15
BRANCH   8  22
ATOM     22  C   UNL     1      -0.343   9.319  22.198  0.00  0.00    +0.000 C 
ATOM     23  F   UNL     1       0.710   9.317  23.060  0.00  0.00    +0.000 F 
ATOM     24  F   UNL     1      -1.209  10.251  22.679  0.00  0.00    +0.000 F 
ATOM     25  F   UNL     1      -0.957   8.114  22.364  0.00  0.00    +0.000 F 
ENDBRANCH   8  22
BRANCH   6  26
ATOM     26  C   UNL     1      -1.668  11.103  17.653  0.00  0.00    +0.000 C 
BRANCH  26  27
ATOM     27  N   UNL     1      -3.037  10.725  18.020  0.00  0.00    +0.000 NA
ATOM     28  C   UNL     1      -3.748  11.800  18.703  0.00  0.00    +0.000 C 
ATOM     29  C   UNL     1      -5.115  11.868  18.056  0.00  0.00    +0.000 C 
ATOM     30  N   UNL     1      -5.014  11.139  16.796  0.00  0.00    +0.000 NA
ATOM     31  C   UNL     1      -3.815  10.327  16.859  0.00  0.00    +0.000 C 
ATOM     32  H   UNL     1      -4.922  11.802  16.030  0.00  0.00    +0.000 HD
ENDBRANCH  26  27
ENDBRANCH   6  26
TORSDOF 7
ENDMDL
MODEL 4
REMARK VINA RESULT:      -7.4      4.632      7.432
REMARK  Name = 
REMARK  8 active torsions:
REMARK  status: ('A' for Active; 'I' for Inactive)
REMARK    1  A    between atoms: C_1  and  C_2
REMARK    2  A    between atoms: C_2  and  C_3
REMARK    3  A    between atoms: C_3  and  C_5
REMARK    4  A    between atoms: C_5  and  C_6
REMARK    5  A    between atoms: C_10  and  N_11
REMARK    6  A    between atoms: C_16  and  C_17
REMARK    7  A    between atoms: C_17  and  N_18
REMARK    8  A    between atoms: C_24  and  C_25
REMARK                            x       y       z     vdW  Elec       q    Type
REMARK                         _______ _______ _______ _____ _____    ______ ____
ROOT
ATOM      1  N   UNL     1      -0.285  11.229  18.419  0.00  0.00    +0.000 N 
ATOM      2  C   UNL     1       0.458  10.460  19.456  0.00  0.00    +0.000 C 
ATOM      3  C   UNL     1       0.035  11.145  20.718  0.00  0.00    +0.000 A 
ATOM      4  C   UNL     1      -0.299  12.456  20.379  0.00  0.00    +0.000 A 
ATOM      5  C   UNL     1      -0.930  13.324  21.249  0.00  0.00    +0.000 A 
ATOM      6  C   UNL     1      -1.232  12.854  22.532  0.00  0.00    +0.000 A 
ATOM      7  C   UNL     1      -0.880  11.527  22.891  0.00  0.00    +0.000 A 
ATOM      8  C   UNL     1      -0.248  10.644  21.988  0.00  0.00    +0.000 A 
ATOM      9  C   UNL     1      -0.326  12.560  18.899  0.00  0.00    +0.000 C 
ATOM     10  O   UNL     1      -0.561  13.586  18.288  0.00  0.00    +0.000 OA
ENDROOT
BRANCH   1  15
ATOM     11  C   UNL     1      -3.882  11.359  18.166  0.00  0.00    +0.000 A 
ATOM     12  C   UNL     1      -4.027  10.839  16.873  0.00  0.00    +0.000 A 
ATOM     13  C   UNL     1      -3.015  10.064  16.314  0.00  0.00    +0.000 A 
ATOM     14  C   UNL     1      -1.813   9.900  16.995  0.00  0.00    +0.000 A 
ATOM     15  C   UNL     1      -1.589  10.618  18.181  0.00  0.00    +0.000 A 
ATOM     16  C   UNL     1      -2.677  11.178  18.849  0.00  0.00    +0.000 A 
BRANCH  11  17
ATOM     17  C   UNL     1      -4.985  12.168  18.788  0.00  0.00    +0.000 C 
BRANCH  17  18
ATOM     18  C   UNL     1      -6.353  11.637  18.434  0.00  0.00    +0.000 C 
ATOM     19  O   UNL     1      -6.625  10.443  18.607  0.00  0.00    +0.000 OA
BRANCH  18  21
ATOM     20  C   UNL     1      -6.658  13.603  16.887  0.00  0.00    +0.000 C 
ATOM     21  C   UNL     1      -7.338  12.619  17.821  0.00  0.00    +0.000 C 
ENDBRANCH  18  21
ENDBRANCH  17  18
ENDBRANCH  11  17
ENDBRANCH   1  15
BRANCH   8  22
ATOM     22  C   UNL     1      -0.034   9.208  22.392  0.00  0.00    +0.000 C 
ATOM     23  F   UNL     1       1.196   8.719  22.070  0.00  0.00    +0.000 F 
ATOM     24  F   UNL     1      -0.160   9.026  23.734  0.00  0.00    +0.000 F 
ATOM     25  F   UNL     1      -0.930   8.362  21.812  0.00  0.00    +0.000 F 
ENDBRANCH   8  22
BRANCH   6  26
ATOM     26  C   UNL     1      -1.987  13.741  23.500  0.00  0.00    +0.000 C 
BRANCH  26  27
ATOM     27  N   UNL     1      -3.329  14.077  23.013  0.00  0.00    +0.000 NA
ATOM     28  C   UNL     1      -4.245  12.944  23.078  0.00  0.00    +0.000 C 
ATOM     29  C   UNL     1      -5.527  13.481  23.679  0.00  0.00    +0.000 C 
ATOM     30  N   UNL     1      -5.189  14.758  24.299  0.00  0.00    +0.000 NA
ATOM     31  C   UNL     1      -3.912  15.179  23.760  0.00  0.00    +0.000 C 
ATOM     32  H   UNL     1      -5.095  14.629  25.304  0.00  0.00    +0.000 HD
ENDBRANCH  26  27
ENDBRANCH   6  26
TORSDOF 7
ENDMDL
MODEL 5
REMARK VINA RESULT:      -7.2      1.143      1.623
REMARK  Name = 
REMARK  8 active torsions:
REMARK  status: ('A' for Active; 'I' for Inactive)
REMARK    1  A    between atoms: C_1  and  C_2
REMARK    2  A    between atoms: C_2  and  C_3
REMARK    3  A    between atoms: C_3  and  C_5
REMARK    4  A    between atoms: C_5  and  C_6
REMARK    5  A    between atoms: C_10  and  N_11
REMARK    6  A    between atoms: C_16  and  C_17
REMARK    7  A    between atoms: C_17  and  N_18
REMARK    8  A    between atoms: C_24  and  C_25
REMARK                            x       y       z     vdW  Elec       q    Type
REMARK                         _______ _______ _______ _____ _____    ______ ____
ROOT
ATOM      1  N   UNL     1       0.725   8.367  21.119  0.00  0.00    +0.000 N 
ATOM      2  C   UNL     1      -0.542   8.651  20.388  0.00  0.00    +0.000 C 
ATOM      3  C   UNL     1      -0.432  10.121  20.127  0.00  0.00    +0.000 A 
ATOM      4  C   UNL     1       0.377  10.654  21.131  0.00  0.00    +0.000 A 
ATOM      5  C   UNL     1       0.869  11.944  21.099  0.00  0.00    +0.000 A 
ATOM      6  C   UNL     1       0.519  12.746  20.006  0.00  0.00    +0.000 A 
ATOM      7  C   UNL     1      -0.318  12.218  18.991  0.00  0.00    +0.000 A 
ATOM      8  C   UNL     1      -0.803  10.891  19.027  0.00  0.00    +0.000 A 
ATOM      9  C   UNL     1       0.980   9.529  21.888  0.00  0.00    +0.000 C 
ATOM     10  O   UNL     1       1.718   9.664  22.845  0.00  0.00    +0.000 OA
ENDROOT
BRANCH   1  15
ATOM     11  C   UNL     1       2.507   6.001  19.057  0.00  0.00    +0.000 A 
ATOM     12  C   UNL     1       2.402   6.664  17.827  0.00  0.00    +0.000 A 
ATOM     13  C   UNL     1       2.158   8.034  17.790  0.00  0.00    +0.000 A 
ATOM     14  C   UNL     1       1.905   8.724  18.971  0.00  0.00    +0.000 A 
ATOM     15  C   UNL     1       1.779   8.009  20.174  0.00  0.00    +0.000 A 
ATOM     16  C   UNL     1       2.265   6.704  20.240  0.00  0.00    +0.000 A 
BRANCH  11  17
ATOM     17  C   UNL     1       2.804   4.529  19.104  0.00  0.00    +0.000 C 
BRANCH  17  18
ATOM     18  C   UNL     1       1.559   3.689  18.951  0.00  0.00    +0.000 C 
ATOM     19  O   UNL     1       1.195   3.310  17.831  0.00  0.00    +0.000 OA
BRANCH  18  21
ATOM     20  C   UNL     1       1.640   2.780  21.300  0.00  0.00    +0.000 C 
ATOM     21  C   UNL     1       0.770   3.386  20.213  0.00  0.00    +0.000 C 
ENDBRANCH  18  21
ENDBRANCH  17  18
ENDBRANCH  11  17
ENDBRANCH   1  15
BRANCH   8  22
ATOM     22  C   UNL     1      -1.569  10.355  17.845  0.00  0.00    +0.000 C 
ATOM     23  F   UNL     1      -2.722   9.713  18.177  0.00  0.00    +0.000 F 
ATOM     24  F   UNL     1      -1.934  11.339  16.979  0.00  0.00    +0.000 F 
ATOM     25  F   UNL     1      -0.846   9.461  17.115  0.00  0.00    +0.000 F 
ENDBRANCH   8  22
BRANCH   6  26
ATOM     26  C   UNL     1       1.089  14.144  19.887  0.00  0.00    +0.000 C 
BRANCH  26  27
ATOM     27  N   UNL     1       0.102  15.105  19.383  0.00  0.00    +0.000 NA
ATOM     28  C   UNL     1      -0.771  15.611  20.436  0.00  0.00    +0.000 C 
ATOM     29  C   UNL     1      -0.838  17.110  20.234  0.00  0.00    +0.000 C 
ATOM     30  N   UNL     1       0.278  17.461  19.362  0.00  0.00    +0.000 NA
ATOM     31  C   UNL     1       0.738  16.239  18.733  0.00  0.00    +0.000 C 
ATOM     32  H   UNL     1       1.034  17.846  19.923  0.00  0.00    +0.000 HD
ENDBRANCH  26  27
ENDBRANCH   6  26
TORSDOF 7
ENDMDL
MODEL 6
REMARK VINA RESULT:      -7.2      1.161      1.499
REMARK  Name = 
REMARK  8 active torsions:
REMARK  status: ('A' for Active; 'I' for Inactive)
REMARK    1  A    between atoms: C_1  and  C_2
REMARK    2  A    between atoms: C_2  and  C_3
REMARK    3  A    between atoms: C_3  and  C_5
REMARK    4  A    between atoms: C_5  and  C_6
REMARK    5  A    between atoms: C_10  and  N_11
REMARK    6  A    between atoms: C_16  and  C_17
REMARK    7  A    between atoms: C_17  and  N_18
REMARK    8  A    between atoms: C_24  and  C_25
REMARK                            x       y       z     vdW  Elec       q    Type
REMARK                         _______ _______ _______ _____ _____    ______ ____
ROOT
ATOM      1  N   UNL     1       0.324   8.511  21.381  0.00  0.00    +0.000 N 
ATOM      2  C   UNL     1      -0.844   8.811  20.506  0.00  0.00    +0.000 C 
ATOM      3  C   UNL     1      -0.712  10.288  20.302  0.00  0.00    +0.000 A 
ATOM      4  C   UNL     1      -0.038  10.795  21.413  0.00  0.00    +0.000 A 
ATOM      5  C   UNL     1       0.446  12.087  21.478  0.00  0.00    +0.000 A 
ATOM      6  C   UNL     1       0.230  12.919  20.373  0.00  0.00    +0.000 A 
ATOM      7  C   UNL     1      -0.470  12.417  19.247  0.00  0.00    +0.000 A 
ATOM      8  C   UNL     1      -0.948  11.088  19.185  0.00  0.00    +0.000 A 
ATOM      9  C   UNL     1       0.473   9.650  22.208  0.00  0.00    +0.000 C 
ATOM     10  O   UNL     1       1.085   9.761  23.254  0.00  0.00    +0.000 OA
ENDROOT
BRANCH   1  15
ATOM     11  C   UNL     1       2.545   6.167  19.770  0.00  0.00    +0.000 A 
ATOM     12  C   UNL     1       2.467   6.660  18.460  0.00  0.00    +0.000 A 
ATOM     13  C   UNL     1       2.064   7.973  18.231  0.00  0.00    +0.000 A 
ATOM     14  C   UNL     1       1.631   8.760  19.293  0.00  0.00    +0.000 A 
ATOM     15  C   UNL     1       1.489   8.182  20.566  0.00  0.00    +0.000 A 
ATOM     16  C   UNL     1       2.121   6.969  20.833  0.00  0.00    +0.000 A 
BRANCH  11  17
ATOM     17  C   UNL     1       3.011   4.762  20.026  0.00  0.00    +0.000 C 
BRANCH  17  18
ATOM     18  C   UNL     1       2.008   3.963  20.823  0.00  0.00    +0.000 C 
ATOM     19  O   UNL     1       2.264   3.616  21.982  0.00  0.00    +0.000 OA
BRANCH  18  21
ATOM     20  C   UNL     1       0.960   2.623  18.964  0.00  0.00    +0.000 C 
ATOM     21  C   UNL     1       0.718   3.576  20.120  0.00  0.00    +0.000 C 
ENDBRANCH  18  21
ENDBRANCH  17  18
ENDBRANCH  11  17
ENDBRANCH   1  15
BRANCH   8  22
ATOM     22  C   UNL     1      -1.556  10.584  17.902  0.00  0.00    +0.000 C 
ATOM     23  F   UNL     1      -0.775   9.693  17.232  0.00  0.00    +0.000 F 
ATOM     24  F   UNL     1      -2.742   9.950  18.109  0.00  0.00    +0.000 F 
ATOM     25  F   UNL     1      -1.815  11.586  17.016  0.00  0.00    +0.000 F 
ENDBRANCH   8  22
BRANCH   6  26
ATOM     26  C   UNL     1       0.802  14.321  20.365  0.00  0.00    +0.000 C 
BRANCH  26  27
ATOM     27  N   UNL     1       0.885  14.879  19.011  0.00  0.00    +0.000 NA
ATOM     28  C   UNL     1       0.279  16.202  18.915  0.00  0.00    +0.000 C 
ATOM     29  C   UNL     1       1.261  17.053  18.139  0.00  0.00    +0.000 C 
ATOM     30  N   UNL     1       2.535  16.341  18.164  0.00  0.00    +0.000 NA
ATOM     31  C   UNL     1       2.260  14.972  18.552  0.00  0.00    +0.000 C 
ATOM     32  H   UNL     1       3.142  16.765  18.862  0.00  0.00    +0.000 HD
ENDBRANCH  26  27
ENDBRANCH   6  26
TORSDOF 7
ENDMDL
MODEL 7
REMARK VINA RESULT:      -7.2      0.963      1.667
REMARK  Name = 
REMARK  8 active torsions:
REMARK  status: ('A' for Active; 'I' for Inactive)
REMARK    1  A    between atoms: C_1  and  C_2
REMARK    2  A    between atoms: C_2  and  C_3
REMARK    3  A    between atoms: C_3  and  C_5
REMARK    4  A    between atoms: C_5  and  C_6
REMARK    5  A    between atoms: C_10  and  N_11
REMARK    6  A    between atoms: C_16  and  C_17
REMARK    7  A    between atoms: C_17  and  N_18
REMARK    8  A    between atoms: C_24  and  C_25
REMARK                            x       y       z     vdW  Elec       q    Type
REMARK                         _______ _______ _______ _____ _____    ______ ____
ROOT
ATOM      1  N   UNL     1       0.759   8.311  21.183  0.00  0.00    +0.000 N 
ATOM      2  C   UNL     1      -0.502   8.627  20.455  0.00  0.00    +0.000 C 
ATOM      3  C   UNL     1      -0.345  10.090  20.176  0.00  0.00    +0.000 A 
ATOM      4  C   UNL     1       0.487  10.608  21.169  0.00  0.00    +0.000 A 
ATOM      5  C   UNL     1       1.021  11.881  21.117  0.00  0.00    +0.000 A 
ATOM      6  C   UNL     1       0.692  12.681  20.017  0.00  0.00    +0.000 A 
ATOM      7  C   UNL     1      -0.168  12.168  19.013  0.00  0.00    +0.000 A 
ATOM      8  C   UNL     1      -0.697  10.859  19.068  0.00  0.00    +0.000 A 
ATOM      9  C   UNL     1       1.057   9.473  21.936  0.00  0.00    +0.000 C 
ATOM     10  O   UNL     1       1.805   9.595  22.887  0.00  0.00    +0.000 OA
ENDROOT
BRANCH   1  15
ATOM     11  C   UNL     1       2.413   5.876  19.096  0.00  0.00    +0.000 A 
ATOM     12  C   UNL     1       2.351   6.560  17.874  0.00  0.00    +0.000 A 
ATOM     13  C   UNL     1       2.184   7.942  17.854  0.00  0.00    +0.000 A 
ATOM     14  C   UNL     1       1.967   8.629  19.044  0.00  0.00    +0.000 A 
ATOM     15  C   UNL     1       1.795   7.907  20.237  0.00  0.00    +0.000 A 
ATOM     16  C   UNL     1       2.207   6.576  20.287  0.00  0.00    +0.000 A 
BRANCH  11  17
ATOM     17  C   UNL     1       2.626   4.389  19.124  0.00  0.00    +0.000 C 
BRANCH  17  18
ATOM     18  C   UNL     1       3.915   3.983  18.450  0.00  0.00    +0.000 C 
ATOM     19  O   UNL     1       3.895   3.276  17.435  0.00  0.00    +0.000 OA
BRANCH  18  21
ATOM     20  C   UNL     1       6.263   4.820  18.081  0.00  0.00    +0.000 C 
ATOM     21  C   UNL     1       5.209   4.439  19.104  0.00  0.00    +0.000 C 
ENDBRANCH  18  21
ENDBRANCH  17  18
ENDBRANCH  11  17
ENDBRANCH   1  15
BRANCH   8  22
ATOM     22  C   UNL     1      -1.486  10.334  17.896  0.00  0.00    +0.000 C 
ATOM     23  F   UNL     1      -0.809   9.436  17.130  0.00  0.00    +0.000 F 
ATOM     24  F   UNL     1      -2.625   9.699  18.286  0.00  0.00    +0.000 F 
ATOM     25  F   UNL     1      -1.879  11.323  17.045  0.00  0.00    +0.000 F 
ENDBRANCH   8  22
BRANCH   6  26
ATOM     26  C   UNL     1       1.308  14.058  19.877  0.00  0.00    +0.000 C 
BRANCH  26  27
ATOM     27  N   UNL     1       1.858  14.287  18.537  0.00  0.00    +0.000 NA
ATOM     28  C   UNL     1       2.281  15.668  18.336  0.00  0.00    +0.000 C 
ATOM     29  C   UNL     1       3.644  15.593  17.683  0.00  0.00    +0.000 C 
ATOM     30  N   UNL     1       4.129  14.232  17.891  0.00  0.00    +0.000 NA
ATOM     31  C   UNL     1       2.989  13.418  18.263  0.00  0.00    +0.000 C 
ATOM     32  H   UNL     1       4.799  14.228  18.657  0.00  0.00    +0.000 HD
ENDBRANCH  26  27
ENDBRANCH   6  26
TORSDOF 7
ENDMDL
MODEL 8
REMARK VINA RESULT:      -7.2      4.766      7.553
REMARK  Name = 
REMARK  8 active torsions:
REMARK  status: ('A' for Active; 'I' for Inactive)
REMARK    1  A    between atoms: C_1  and  C_2
REMARK    2  A    between atoms: C_2  and  C_3
REMARK    3  A    between atoms: C_3  and  C_5
REMARK    4  A    between atoms: C_5  and  C_6
REMARK    5  A    between atoms: C_10  and  N_11
REMARK    6  A    between atoms: C_16  and  C_17
REMARK    7  A    between atoms: C_17  and  N_18
REMARK    8  A    between atoms: C_24  and  C_25
REMARK                            x       y       z     vdW  Elec       q    Type
REMARK                         _______ _______ _______ _____ _____    ______ ____
ROOT
ATOM      1  N   UNL     1      -0.329  11.699  18.807  0.00  0.00    +0.000 N 
ATOM      2  C   UNL     1       0.447  10.991  19.864  0.00  0.00    +0.000 C 
ATOM      3  C   UNL     1      -0.281  11.390  21.109  0.00  0.00    +0.000 A 
ATOM      4  C   UNL     1      -0.880  12.625  20.854  0.00  0.00    +0.000 A 
ATOM      5  C   UNL     1      -1.805  13.204  21.701  0.00  0.00    +0.000 A 
ATOM      6  C   UNL     1      -2.137  12.514  22.872  0.00  0.00    +0.000 A 
ATOM      7  C   UNL     1      -1.519  11.268  23.148  0.00  0.00    +0.000 A 
ATOM      8  C   UNL     1      -0.585  10.677  22.268  0.00  0.00    +0.000 A 
ATOM      9  C   UNL     1      -0.752  12.912  19.404  0.00  0.00    +0.000 C 
ATOM     10  O   UNL     1      -1.153  13.928  18.868  0.00  0.00    +0.000 OA
ENDROOT
BRANCH   1  15
ATOM     11  C   UNL     1      -3.529  11.169  17.224  0.00  0.00    +0.000 A 
ATOM     12  C   UNL     1      -3.126  10.289  16.212  0.00  0.00    +0.000 A 
ATOM     13  C   UNL     1      -1.947   9.561  16.346  0.00  0.00    +0.000 A 
ATOM     14  C   UNL     1      -1.112   9.793  17.434  0.00  0.00    +0.000 A 
ATOM     15  C   UNL     1      -1.407  10.844  18.319  0.00  0.00    +0.000 A 
ATOM     16  C   UNL     1      -2.691  11.386  18.321  0.00  0.00    +0.000 A 
BRANCH  11  17
ATOM     17  C   UNL     1      -4.818  11.932  17.100  0.00  0.00    +0.000 C 
BRANCH  17  18
ATOM     18  C   UNL     1      -5.912  11.350  17.962  0.00  0.00    +0.000 C 
ATOM     19  O   UNL     1      -5.754  10.258  18.520  0.00  0.00    +0.000 OA
BRANCH  18  21
ATOM     20  C   UNL     1      -7.302  12.924  19.356  0.00  0.00    +0.000 C 
ATOM     21  C   UNL     1      -7.207  12.139  18.060  0.00  0.00    +0.000 C 
ENDBRANCH  18  21
ENDBRANCH  17  18
ENDBRANCH  11  17
ENDBRANCH   1  15
BRANCH   8  22
ATOM     22  C   UNL     1      -0.079   9.287  22.556  0.00  0.00    +0.000 C 
ATOM     23  F   UNL     1       1.225   9.092  22.218  0.00  0.00    +0.000 F 
ATOM     24  F   UNL     1      -0.167   8.971  23.877  0.00  0.00    +0.000 F 
ATOM     25  F   UNL     1      -0.780   8.326  21.892  0.00  0.00    +0.000 F 
ENDBRANCH   8  22
BRANCH   6  26
ATOM     26  C   UNL     1      -3.197  13.072  23.799  0.00  0.00    +0.000 C 
BRANCH  26  27
ATOM     27  N   UNL     1      -4.509  12.453  23.579  0.00  0.00    +0.000 NA
ATOM     28  C   UNL     1      -5.372  12.544  24.751  0.00  0.00    +0.000 C 
ATOM     29  C   UNL     1      -6.723  12.992  24.237  0.00  0.00    +0.000 C 
ATOM     30  N   UNL     1      -6.501  13.522  22.896  0.00  0.00    +0.000 NA
ATOM     31  C   UNL     1      -5.204  13.051  22.452  0.00  0.00    +0.000 C 
ATOM     32  H   UNL     1      -6.485  14.539  22.935  0.00  0.00    +0.000 HD
ENDBRANCH  26  27
ENDBRANCH   6  26
TORSDOF 7
ENDMDL
MODEL 9
REMARK VINA RESULT:      -7.1      1.374      2.206
REMARK  Name = 
REMARK  8 active torsions:
REMARK  status: ('A' for Active; 'I' for Inactive)
REMARK    1  A    between atoms: C_1  and  C_2
REMARK    2  A    between atoms: C_2  and  C_3
REMARK    3  A    between atoms: C_3  and  C_5
REMARK    4  A    between atoms: C_5  and  C_6
REMARK    5  A    between atoms: C_10  and  N_11
REMARK    6  A    between atoms: C_16  and  C_17
REMARK    7  A    between atoms: C_17  and  N_18
REMARK    8  A    between atoms: C_24  and  C_25
REMARK                            x       y       z     vdW  Elec       q    Type
REMARK                         _______ _______ _______ _____ _____    ______ ____
ROOT
ATOM      1  N   UNL     1       0.710   8.342  21.159  0.00  0.00    +0.000 N 
ATOM      2  C   UNL     1      -0.548   8.629  20.415  0.00  0.00    +0.000 C 
ATOM      3  C   UNL     1      -0.433  10.100  20.158  0.00  0.00    +0.000 A 
ATOM      4  C   UNL     1       0.366  10.629  21.172  0.00  0.00    +0.000 A 
ATOM      5  C   UNL     1       0.861  11.918  21.148  0.00  0.00    +0.000 A 
ATOM      6  C   UNL     1       0.525  12.723  20.053  0.00  0.00    +0.000 A 
ATOM      7  C   UNL     1      -0.301  12.199  19.027  0.00  0.00    +0.000 A 
ATOM      8  C   UNL     1      -0.790  10.873  19.055  0.00  0.00    +0.000 A 
ATOM      9  C   UNL     1       0.958   9.501  21.933  0.00  0.00    +0.000 C 
ATOM     10  O   UNL     1       1.685   9.633  22.900  0.00  0.00    +0.000 OA
ENDROOT
BRANCH   1  15
ATOM     11  C   UNL     1       2.499   5.980  19.099  0.00  0.00    +0.000 A 
ATOM     12  C   UNL     1       2.418   6.657  17.874  0.00  0.00    +0.000 A 
ATOM     13  C   UNL     1       2.187   8.029  17.848  0.00  0.00    +0.000 A 
ATOM     14  C   UNL     1       1.924   8.709  19.033  0.00  0.00    +0.000 A 
ATOM     15  C   UNL     1       1.773   7.983  20.226  0.00  0.00    +0.000 A 
ATOM     16  C   UNL     1       2.247   6.673  20.285  0.00  0.00    +0.000 A 
BRANCH  11  17
ATOM     17  C   UNL     1       2.781   4.505  19.135  0.00  0.00    +0.000 C 
BRANCH  17  18
ATOM     18  C   UNL     1       1.530   3.678  18.961  0.00  0.00    +0.000 C 
ATOM     19  O   UNL     1       1.141   3.363  17.830  0.00  0.00    +0.000 OA
BRANCH  18  21
ATOM     20  C   UNL     1       1.693   2.932  21.362  0.00  0.00    +0.000 C 
ATOM     21  C   UNL     1       0.766   3.307  20.221  0.00  0.00    +0.000 C 
ENDBRANCH  18  21
ENDBRANCH  17  18
ENDBRANCH  11  17
ENDBRANCH   1  15
BRANCH   8  22
ATOM     22  C   UNL     1      -1.542  10.341  17.863  0.00  0.00    +0.000 C 
ATOM     23  F   UNL     1      -1.942  11.303  16.986  0.00  0.00    +0.000 F 
ATOM     24  F   UNL     1      -0.799   9.466  17.133  0.00  0.00    +0.000 F 
ATOM     25  F   UNL     1      -2.674   9.670  18.215  0.00  0.00    +0.000 F 
ENDBRANCH   8  22
BRANCH   6  26
ATOM     26  C   UNL     1       1.100  14.121  19.944  0.00  0.00    +0.000 C 
BRANCH  26  27
ATOM     27  N   UNL     1       0.371  15.087  20.773  0.00  0.00    +0.000 NA
ATOM     28  C   UNL     1      -1.036  14.736  20.933  0.00  0.00    +0.000 C 
ATOM     29  C   UNL     1      -1.340  14.906  22.405  0.00  0.00    +0.000 C 
ATOM     30  N   UNL     1      -0.054  14.951  23.092  0.00  0.00    +0.000 NA
ATOM     31  C   UNL     1       0.963  15.217  22.093  0.00  0.00    +0.000 C 
ATOM     32  H   UNL     1       0.132  14.045  23.517  0.00  0.00    +0.000 HD
ENDBRANCH  26  27
ENDBRANCH   6  26
TORSDOF 7
ENDMDL
