MODEL 1
REMARK VINA RESULT:      -9.2      0.000      0.000
REMARK  Name = 
REMARK  5 active torsions:
REMARK  status: ('A' for Active; 'I' for Inactive)
REMARK    1  A    between atoms: C_2  and  C_10
REMARK    2  A    between atoms: N_3  and  C_4
REMARK    3  A    between atoms: C_13  and  C_14
REMARK    4  A    between atoms: C_14  and  N_15
REMARK    5  A    between atoms: C_16  and  C_18
REMARK                            x       y       z     vdW  Elec       q    Type
REMARK                         _______ _______ _______ _____ _____    ______ ____
ROOT
ATOM      1  C   UNL     1       7.991   8.066  18.144  0.00  0.00    +0.000 A 
ATOM      2  C   UNL     1       7.112   7.796  17.089  0.00  0.00    +0.000 A 
ATOM      3  C   UNL     1       6.614   6.499  16.899  0.00  0.00    +0.000 A 
ATOM      4  C   UNL     1       6.975   5.464  17.774  0.00  0.00    +0.000 A 
ATOM      5  C   UNL     1       7.874   5.743  18.820  0.00  0.00    +0.000 A 
ATOM      6  C   UNL     1       8.371   7.036  19.011  0.00  0.00    +0.000 A 
ENDROOT
BRANCH   1   8
ATOM      7  O   UNL     1       8.055  10.319  17.537  0.00  0.00    +0.000 OA
ATOM      8  C   UNL     1       8.445   9.475  18.335  0.00  0.00    +0.000 C 
ATOM      9  N   UNL     1       9.329   9.675  19.382  0.00  0.00    +0.000 N 
ATOM     10  H   UNL     1       9.683   8.848  19.844  0.00  0.00    +0.000 HD
BRANCH   9  11
ATOM     11  C   UNL     1       9.934  10.902  19.742  0.00  0.00    +0.000 A 
ATOM     12  C   UNL     1       9.499  11.697  20.799  0.00  0.00    +0.000 A 
ATOM     13  C   UNL     1      10.147  12.899  21.036  0.00  0.00    +0.000 A 
ATOM     14  N   UNL     1      11.185  13.353  20.304  0.00  0.00    +0.000 NA
ATOM     15  C   UNL     1      11.600  12.560  19.296  0.00  0.00    +0.000 A 
ATOM     16  C   UNL     1      11.024  11.336  18.988  0.00  0.00    +0.000 A 
ENDBRANCH   9  11
ENDBRANCH   1   8
BRANCH   4  17
ATOM     17  C   UNL     1       6.391   4.077  17.622  0.00  0.00    +0.000 C 
BRANCH  17  18
ATOM     18  N   UNL     1       5.529   3.688  18.718  0.00  0.00    +0.000 N 
ATOM     19  C   UNL     1       4.285   3.133  18.513  0.00  0.00    +0.000 C 
ATOM     20  O   UNL     1       3.850   2.906  17.386  0.00  0.00    +0.000 OA
ATOM     21  H   UNL     1       5.814   3.960  19.646  0.00  0.00    +0.000 HD
BRANCH  19  22
ATOM     22  C   UNL     1       3.530   2.723  19.792  0.00  0.00    +0.000 C 
ATOM     23  C   UNL     1       2.278   1.882  19.472  0.00  0.00    +0.000 C 
ATOM     24  C   UNL     1       1.160   2.711  18.831  0.00  0.00    +0.000 C 
ATOM     25  C   UNL     1       0.820   3.963  19.634  0.00  0.00    +0.000 C 
ATOM     26  C   UNL     1       2.053   4.738  20.037  0.00  0.00    +0.000 C 
ATOM     27  C   UNL     1       3.123   3.898  20.692  0.00  0.00    +0.000 C 
ATOM     28  C   UNL     1       1.819   6.158  20.533  0.00  0.00    +0.000 C 
ATOM     29  C   UNL     1       2.499   5.917  19.241  0.00  0.00    +0.000 C 
ATOM     30  F   UNL     1       3.824   6.268  19.148  0.00  0.00    +0.000 F 
ATOM     31  F   UNL     1       1.893   6.251  18.054  0.00  0.00    +0.000 F 
ENDBRANCH  19  22
ENDBRANCH  17  18
ENDBRANCH   4  17
TORSDOF 5
ENDMDL
MODEL 2
REMARK VINA RESULT:      -9.1      5.870      8.206
REMARK  Name = 
REMARK  5 active torsions:
REMARK  status: ('A' for Active; 'I' for Inactive)
REMARK    1  A    between atoms: C_2  and  C_10
REMARK    2  A    between atoms: N_3  and  C_4
REMARK    3  A    between atoms: C_13  and  C_14
REMARK    4  A    between atoms: C_14  and  N_15
REMARK    5  A    between atoms: C_16  and  C_18
REMARK                            x       y       z     vdW  Elec       q    Type
REMARK                         _______ _______ _______ _____ _____    ______ ____
ROOT
ATOM      1  C   UNL     1       0.289   9.936  21.231  0.00  0.00    +0.000 A 
ATOM      2  C   UNL     1       1.045   8.787  21.490  0.00  0.00    +0.000 A 
ATOM      3  C   UNL     1       1.692   8.117  20.442  0.00  0.00    +0.000 A 
ATOM      4  C   UNL     1       1.605   8.600  19.128  0.00  0.00    +0.000 A 
ATOM      5  C   UNL     1       0.827   9.746  18.877  0.00  0.00    +0.000 A 
ATOM      6  C   UNL     1       0.181  10.415  19.921  0.00  0.00    +0.000 A 
ENDROOT
BRANCH   1   8
ATOM      7  O   UNL     1      -0.137  10.189  23.512  0.00  0.00    +0.000 OA
ATOM      8  C   UNL     1      -0.331  10.643  22.390  0.00  0.00    +0.000 C 
ATOM      9  N   UNL     1      -1.128  11.727  22.065  0.00  0.00    +0.000 N 
ATOM     10  H   UNL     1      -1.322  11.873  21.082  0.00  0.00    +0.000 HD
BRANCH   9  11
ATOM     11  C   UNL     1      -1.856  12.532  22.973  0.00  0.00    +0.000 A 
ATOM     12  C   UNL     1      -3.113  12.195  23.469  0.00  0.00    +0.000 A 
ATOM     13  C   UNL     1      -3.747  13.080  24.326  0.00  0.00    +0.000 A 
ATOM     14  N   UNL     1      -3.220  14.258  24.719  0.00  0.00    +0.000 NA
ATOM     15  C   UNL     1      -1.996  14.557  24.239  0.00  0.00    +0.000 A 
ATOM     16  C   UNL     1      -1.277  13.731  23.387  0.00  0.00    +0.000 A 
ENDBRANCH   9  11
ENDBRANCH   1   8
BRANCH   4  17
ATOM     17  C   UNL     1       2.354   7.928  18.000  0.00  0.00    +0.000 C 
BRANCH  17  18
ATOM     18  N   UNL     1       3.208   6.843  18.436  0.00  0.00    +0.000 N 
ATOM     19  C   UNL     1       2.885   5.521  18.222  0.00  0.00    +0.000 C 
ATOM     20  O   UNL     1       1.868   5.188  17.619  0.00  0.00    +0.000 OA
ATOM     21  H   UNL     1       3.991   7.083  19.025  0.00  0.00    +0.000 HD
BRANCH  19  22
ATOM     22  C   UNL     1       3.937   4.502  18.699  0.00  0.00    +0.000 C 
ATOM     23  C   UNL     1       4.090   3.331  17.708  0.00  0.00    +0.000 C 
ATOM     24  C   UNL     1       2.878   2.392  17.716  0.00  0.00    +0.000 C 
ATOM     25  C   UNL     1       2.512   1.913  19.118  0.00  0.00    +0.000 C 
ATOM     26  C   UNL     1       2.461   3.047  20.116  0.00  0.00    +0.000 C 
ATOM     27  C   UNL     1       3.682   3.935  20.103  0.00  0.00    +0.000 C 
ATOM     28  C   UNL     1       1.781   2.741  21.442  0.00  0.00    +0.000 C 
ATOM     29  C   UNL     1       1.159   3.676  20.479  0.00  0.00    +0.000 C 
ATOM     30  F   UNL     1       1.072   4.997  20.846  0.00  0.00    +0.000 F 
ATOM     31  F   UNL     1      -0.004   3.345  19.828  0.00  0.00    +0.000 F 
ENDBRANCH  19  22
ENDBRANCH  17  18
ENDBRANCH   4  17
TORSDOF 5
ENDMDL
MODEL 3
REMARK VINA RESULT:      -9.1      0.183      1.263
REMARK  Name = 
REMARK  5 active torsions:
REMARK  status: ('A' for Active; 'I' for Inactive)
REMARK    1  A    between atoms: C_2  and  C_10
REMARK    2  A    between atoms: N_3  and  C_4
REMARK    3  A    between atoms: C_13  and  C_14
REMARK    4  A    between atoms: C_14  and  N_15
REMARK    5  A    between atoms: C_16  and  C_18
REMARK                            x       y       z     vdW  Elec       q    Type
REMARK                         _______ _______ _______ _____ _____    ______ ____
ROOT
ATOM      1  C   UNL     1       7.836   8.185  18.076  0.00  0.00    +0.000 A 
ATOM      2  C   UNL     1       8.341   7.180  18.908  0.00  0.00    +0.000 A 
ATOM      3  C   UNL     1       7.893   5.858  18.772  0.00  0.00    +0.000 A 
ATOM      4  C   UNL     1       6.949   5.526  17.788  0.00  0.00    +0.000 A 
ATOM      5  C   UNL     1       6.434   6.548  16.969  0.00  0.00    +0.000 A 
ATOM      6  C   UNL     1       6.881   7.866  17.104  0.00  0.00    +0.000 A 
ENDROOT
BRANCH   1   8
ATOM      7  O   UNL     1       8.078  10.402  17.388  0.00  0.00    +0.000 OA
ATOM      8  C   UNL     1       8.389   9.563  18.225  0.00  0.00    +0.000 C 
ATOM      9  N   UNL     1       9.263   9.739  19.284  0.00  0.00    +0.000 N 
ATOM     10  H   UNL     1       9.547   8.906  19.785  0.00  0.00    +0.000 HD
BRANCH   9  11
ATOM     11  C   UNL     1       9.949  10.932  19.613  0.00  0.00    +0.000 A 
ATOM     12  C   UNL     1      11.062  11.400  18.919  0.00  0.00    +0.000 A 
ATOM     13  C   UNL     1      11.675  12.564  19.355  0.00  0.00    +0.000 A 
ATOM     14  N   UNL     1      11.257  13.284  20.417  0.00  0.00    +0.000 NA
ATOM     15  C   UNL     1      10.169  12.821  21.064  0.00  0.00    +0.000 A 
ATOM     16  C   UNL     1       9.481  11.674  20.697  0.00  0.00    +0.000 A 
ENDBRANCH   9  11
ENDBRANCH   1   8
BRANCH   4  17
ATOM     17  C   UNL     1       6.509   4.094  17.584  0.00  0.00    +0.000 C 
BRANCH  17  18
ATOM     18  N   UNL     1       5.624   3.606  18.621  0.00  0.00    +0.000 N 
ATOM     19  C   UNL     1       4.346   3.168  18.352  0.00  0.00    +0.000 C 
ATOM     20  O   UNL     1       3.896   3.136  17.209  0.00  0.00    +0.000 OA
ATOM     21  H   UNL     1       5.928   3.721  19.576  0.00  0.00    +0.000 HD
BRANCH  19  22
ATOM     22  C   UNL     1       3.568   2.627  19.566  0.00  0.00    +0.000 C 
ATOM     23  C   UNL     1       2.329   1.816  19.136  0.00  0.00    +0.000 C 
ATOM     24  C   UNL     1       1.218   2.701  18.559  0.00  0.00    +0.000 C 
ATOM     25  C   UNL     1       0.853   3.863  19.478  0.00  0.00    +0.000 C 
ATOM     26  C   UNL     1       2.072   4.599  19.984  0.00  0.00    +0.000 C 
ATOM     27  C   UNL     1       3.134   3.702  20.573  0.00  0.00    +0.000 C 
ATOM     28  C   UNL     1       1.818   5.960  20.617  0.00  0.00    +0.000 C 
ATOM     29  C   UNL     1       2.526   5.855  19.321  0.00  0.00    +0.000 C 
ATOM     30  F   UNL     1       3.850   6.220  19.293  0.00  0.00    +0.000 F 
ATOM     31  F   UNL     1       1.943   6.306  18.162  0.00  0.00    +0.000 F 
ENDBRANCH  19  22
ENDBRANCH  17  18
ENDBRANCH   4  17
TORSDOF 5
ENDMDL
MODEL 4
REMARK VINA RESULT:      -9.1      1.964      2.750
REMARK  Name = 
REMARK  5 active torsions:
REMARK  status: ('A' for Active; 'I' for Inactive)
REMARK    1  A    between atoms: C_2  and  C_10
REMARK    2  A    between atoms: N_3  and  C_4
REMARK    3  A    between atoms: C_13  and  C_14
REMARK    4  A    between atoms: C_14  and  N_15
REMARK    5  A    between atoms: C_16  and  C_18
REMARK                            x       y       z     vdW  Elec       q    Type
REMARK                         _______ _______ _______ _____ _____    ______ ____
ROOT
ATOM      1  C   UNL     1       8.428   8.577  18.457  0.00  0.00    +0.000 A 
ATOM      2  C   UNL     1       7.563   8.598  17.357  0.00  0.00    +0.000 A 
ATOM      3  C   UNL     1       6.855   7.443  16.993  0.00  0.00    +0.000 A 
ATOM      4  C   UNL     1       6.991   6.262  17.737  0.00  0.00    +0.000 A 
ATOM      5  C   UNL     1       7.878   6.247  18.830  0.00  0.00    +0.000 A 
ATOM      6  C   UNL     1       8.584   7.398  19.194  0.00  0.00    +0.000 A 
ENDROOT
BRANCH   1   8
ATOM      7  O   UNL     1       9.173  10.137  20.024  0.00  0.00    +0.000 OA
ATOM      8  C   UNL     1       9.112   9.848  18.835  0.00  0.00    +0.000 C 
ATOM      9  N   UNL     1       9.565  10.615  17.775  0.00  0.00    +0.000 N 
ATOM     10  H   UNL     1       9.291  10.318  16.847  0.00  0.00    +0.000 HD
BRANCH   9  11
ATOM     11  C   UNL     1      10.205  11.874  17.868  0.00  0.00    +0.000 A 
ATOM     12  C   UNL     1      11.581  12.032  18.006  0.00  0.00    +0.000 A 
ATOM     13  C   UNL     1      12.093  13.316  18.124  0.00  0.00    +0.000 A 
ATOM     14  N   UNL     1      11.337  14.433  18.109  0.00  0.00    +0.000 NA
ATOM     15  C   UNL     1      10.009  14.256  17.957  0.00  0.00    +0.000 A 
ATOM     16  C   UNL     1       9.405  13.015  17.820  0.00  0.00    +0.000 A 
ENDBRANCH   9  11
ENDBRANCH   1   8
BRANCH   4  17
ATOM     17  C   UNL     1       6.182   5.031  17.398  0.00  0.00    +0.000 C 
BRANCH  17  18
ATOM     18  N   UNL     1       4.753   5.264  17.374  0.00  0.00    +0.000 N 
ATOM     19  C   UNL     1       4.021   5.454  18.525  0.00  0.00    +0.000 C 
ATOM     20  O   UNL     1       4.544   5.470  19.636  0.00  0.00    +0.000 OA
ATOM     21  H   UNL     1       4.284   5.150  16.489  0.00  0.00    +0.000 HD
BRANCH  19  22
ATOM     22  C   UNL     1       2.524   5.749  18.309  0.00  0.00    +0.000 C 
ATOM     23  C   UNL     1       1.881   6.390  19.555  0.00  0.00    +0.000 C 
ATOM     24  C   UNL     1       1.729   5.398  20.714  0.00  0.00    +0.000 C 
ATOM     25  C   UNL     1       1.020   4.112  20.301  0.00  0.00    +0.000 C 
ATOM     26  C   UNL     1       1.581   3.534  19.022  0.00  0.00    +0.000 C 
ATOM     27  C   UNL     1       1.690   4.529  17.891  0.00  0.00    +0.000 C 
ATOM     28  C   UNL     1       1.190   2.097  18.709  0.00  0.00    +0.000 C 
ATOM     29  C   UNL     1       2.586   2.434  19.066  0.00  0.00    +0.000 C 
ATOM     30  F   UNL     1       3.541   2.288  18.090  0.00  0.00    +0.000 F 
ATOM     31  F   UNL     1       3.131   2.008  20.253  0.00  0.00    +0.000 F 
ENDBRANCH  19  22
ENDBRANCH  17  18
ENDBRANCH   4  17
TORSDOF 5
ENDMDL
MODEL 5
REMARK VINA RESULT:      -9.0      1.304      1.631
REMARK  Name = 
REMARK  5 active torsions:
REMARK  status: ('A' for Active; 'I' for Inactive)
REMARK    1  A    between atoms: C_2  and  C_10
REMARK    2  A    between atoms: N_3  and  C_4
REMARK    3  A    between atoms: C_13  and  C_14
REMARK    4  A    between atoms: C_14  and  N_15
REMARK    5  A    between atoms: C_16  and  C_18
REMARK                            x       y       z     vdW  Elec       q    Type
REMARK                         _______ _______ _______ _____ _____    ______ ____
ROOT
ATOM      1  C   UNL     1       8.298   8.474  18.466  0.00  0.00    +0.000 A 
ATOM      2  C   UNL     1       8.583   7.348  19.247  0.00  0.00    +0.000 A 
ATOM      3  C   UNL     1       8.025   6.103  18.921  0.00  0.00    +0.000 A 
ATOM      4  C   UNL     1       7.191   5.969  17.802  0.00  0.00    +0.000 A 
ATOM      5  C   UNL     1       6.896   7.112  17.035  0.00  0.00    +0.000 A 
ATOM      6  C   UNL     1       7.453   8.354  17.358  0.00  0.00    +0.000 A 
ENDROOT
BRANCH   1   8
ATOM      7  O   UNL     1       9.038  10.062  20.008  0.00  0.00    +0.000 OA
ATOM      8  C   UNL     1       8.964   9.761  18.823  0.00  0.00    +0.000 C 
ATOM      9  N   UNL     1       9.386  10.527  17.749  0.00  0.00    +0.000 N 
ATOM     10  H   UNL     1       9.102  10.217  16.829  0.00  0.00    +0.000 HD
BRANCH   9  11
ATOM     11  C   UNL     1      10.003  11.798  17.821  0.00  0.00    +0.000 A 
ATOM     12  C   UNL     1       9.298  12.999  17.850  0.00  0.00    +0.000 A 
ATOM     13  C   UNL     1      10.012  14.186  17.883  0.00  0.00    +0.000 A 
ATOM     14  N   UNL     1      11.359  14.257  17.893  0.00  0.00    +0.000 NA
ATOM     15  C   UNL     1      12.020  13.082  17.880  0.00  0.00    +0.000 A 
ATOM     16  C   UNL     1      11.396  11.843  17.858  0.00  0.00    +0.000 A 
ENDBRANCH   9  11
ENDBRANCH   1   8
BRANCH   4  17
ATOM     17  C   UNL     1       6.638   4.621  17.400  0.00  0.00    +0.000 C 
BRANCH  17  18
ATOM     18  N   UNL     1       5.816   4.004  18.420  0.00  0.00    +0.000 N 
ATOM     19  C   UNL     1       4.614   3.398  18.128  0.00  0.00    +0.000 C 
ATOM     20  O   UNL     1       4.186   3.319  16.979  0.00  0.00    +0.000 OA
ATOM     21  H   UNL     1       6.090   4.148  19.380  0.00  0.00    +0.000 HD
BRANCH  19  22
ATOM     22  C   UNL     1       3.902   2.741  19.326  0.00  0.00    +0.000 C 
ATOM     23  C   UNL     1       2.742   1.832  18.873  0.00  0.00    +0.000 C 
ATOM     24  C   UNL     1       1.547   2.627  18.335  0.00  0.00    +0.000 C 
ATOM     25  C   UNL     1       1.080   3.714  19.299  0.00  0.00    +0.000 C 
ATOM     26  C   UNL     1       2.228   4.544  19.825  0.00  0.00    +0.000 C 
ATOM     27  C   UNL     1       3.376   3.732  20.374  0.00  0.00    +0.000 C 
ATOM     28  C   UNL     1       1.851   5.851  20.509  0.00  0.00    +0.000 C 
ATOM     29  C   UNL     1       2.554   5.861  19.207  0.00  0.00    +0.000 C 
ATOM     30  F   UNL     1       3.837   6.352  19.185  0.00  0.00    +0.000 F 
ATOM     31  F   UNL     1       1.919   6.296  18.069  0.00  0.00    +0.000 F 
ENDBRANCH  19  22
ENDBRANCH  17  18
ENDBRANCH   4  17
TORSDOF 5
ENDMDL
MODEL 6
REMARK VINA RESULT:      -8.8      1.979      2.837
REMARK  Name = 
REMARK  5 active torsions:
REMARK  status: ('A' for Active; 'I' for Inactive)
REMARK    1  A    between atoms: C_2  and  C_10
REMARK    2  A    between atoms: N_3  and  C_4
REMARK    3  A    between atoms: C_13  and  C_14
REMARK    4  A    between atoms: C_14  and  N_15
REMARK    5  A    between atoms: C_16  and  C_18
REMARK                            x       y       z     vdW  Elec       q    Type
REMARK                         _______ _______ _______ _____ _____    ______ ____
ROOT
ATOM      1  C   UNL     1       8.359   8.763  18.444  0.00  0.00    +0.000 A 
ATOM      2  C   UNL     1       8.603   7.572  19.137  0.00  0.00    +0.000 A 
ATOM      3  C   UNL     1       7.923   6.398  18.784  0.00  0.00    +0.000 A 
ATOM      4  C   UNL     1       7.007   6.399  17.722  0.00  0.00    +0.000 A 
ATOM      5  C   UNL     1       6.756   7.606  17.044  0.00  0.00    +0.000 A 
ATOM      6  C   UNL     1       7.434   8.778  17.395  0.00  0.00    +0.000 A 
ENDROOT
BRANCH   1   8
ATOM      7  O   UNL     1       9.375  10.162  20.012  0.00  0.00    +0.000 OA
ATOM      8  C   UNL     1       9.152   9.970  18.822  0.00  0.00    +0.000 C 
ATOM      9  N   UNL     1       9.509  10.797  17.772  0.00  0.00    +0.000 N 
ATOM     10  H   UNL     1       9.106  10.587  16.868  0.00  0.00    +0.000 HD
BRANCH   9  11
ATOM     11  C   UNL     1      10.221  12.016  17.872  0.00  0.00    +0.000 A 
ATOM     12  C   UNL     1       9.615  13.269  17.846  0.00  0.00    +0.000 A 
ATOM     13  C   UNL     1      10.419  14.397  17.916  0.00  0.00    +0.000 A 
ATOM     14  N   UNL     1      11.764  14.359  18.012  0.00  0.00    +0.000 NA
ATOM     15  C   UNL     1      12.328  13.135  18.050  0.00  0.00    +0.000 A 
ATOM     16  C   UNL     1      11.609  11.950  17.999  0.00  0.00    +0.000 A 
ENDBRANCH   9  11
ENDBRANCH   1   8
BRANCH   4  17
ATOM     17  C   UNL     1       6.319   5.125  17.287  0.00  0.00    +0.000 C 
BRANCH  17  18
ATOM     18  N   UNL     1       4.875   5.233  17.239  0.00  0.00    +0.000 N 
ATOM     19  C   UNL     1       4.111   5.380  18.375  0.00  0.00    +0.000 C 
ATOM     20  O   UNL     1       4.614   5.462  19.493  0.00  0.00    +0.000 OA
ATOM     21  H   UNL     1       4.432   5.062  16.350  0.00  0.00    +0.000 HD
BRANCH  19  22
ATOM     22  C   UNL     1       2.598   5.539  18.132  0.00  0.00    +0.000 C 
ATOM     23  C   UNL     1       1.914   6.315  19.276  0.00  0.00    +0.000 C 
ATOM     24  C   UNL     1       1.828   5.501  20.571  0.00  0.00    +0.000 C 
ATOM     25  C   UNL     1       1.207   4.123  20.361  0.00  0.00    +0.000 C 
ATOM     26  C   UNL     1       1.805   3.399  19.177  0.00  0.00    +0.000 C 
ATOM     27  C   UNL     1       1.848   4.218  17.910  0.00  0.00    +0.000 C 
ATOM     28  C   UNL     1       1.511   1.908  19.086  0.00  0.00    +0.000 C 
ATOM     29  C   UNL     1       2.882   2.387  19.375  0.00  0.00    +0.000 C 
ATOM     30  F   UNL     1       3.845   2.159  18.423  0.00  0.00    +0.000 F 
ATOM     31  F   UNL     1       3.453   2.179  20.607  0.00  0.00    +0.000 F 
ENDBRANCH  19  22
ENDBRANCH  17  18
ENDBRANCH   4  17
TORSDOF 5
ENDMDL
MODEL 7
REMARK VINA RESULT:      -8.6      5.107      7.161
REMARK  Name = 
REMARK  5 active torsions:
REMARK  status: ('A' for Active; 'I' for Inactive)
REMARK    1  A    between atoms: C_2  and  C_10
REMARK    2  A    between atoms: N_3  and  C_4
REMARK    3  A    between atoms: C_13  and  C_14
REMARK    4  A    between atoms: C_14  and  N_15
REMARK    5  A    between atoms: C_16  and  C_18
REMARK                            x       y       z     vdW  Elec       q    Type
REMARK                         _______ _______ _______ _____ _____    ______ ____
ROOT
ATOM      1  C   UNL     1       0.903   9.318  19.372  0.00  0.00    +0.000 A 
ATOM      2  C   UNL     1       1.470   8.325  20.179  0.00  0.00    +0.000 A 
ATOM      3  C   UNL     1       2.463   7.479  19.665  0.00  0.00    +0.000 A 
ATOM      4  C   UNL     1       2.912   7.631  18.345  0.00  0.00    +0.000 A 
ATOM      5  C   UNL     1       2.322   8.620  17.537  0.00  0.00    +0.000 A 
ATOM      6  C   UNL     1       1.332   9.465  18.048  0.00  0.00    +0.000 A 
ENDROOT
BRANCH   1   8
ATOM      7  O   UNL     1      -1.155  10.419  19.378  0.00  0.00    +0.000 OA
ATOM      8  C   UNL     1      -0.108  10.228  19.986  0.00  0.00    +0.000 C 
ATOM      9  N   UNL     1       0.274  10.821  21.177  0.00  0.00    +0.000 N 
ATOM     10  H   UNL     1       1.236  10.690  21.464  0.00  0.00    +0.000 HD
BRANCH   9  11
ATOM     11  C   UNL     1      -0.484  11.749  21.930  0.00  0.00    +0.000 A 
ATOM     12  C   UNL     1      -0.270  13.124  21.902  0.00  0.00    +0.000 A 
ATOM     13  C   UNL     1      -1.053  13.934  22.712  0.00  0.00    +0.000 A 
ATOM     14  N   UNL     1      -2.020  13.472  23.530  0.00  0.00    +0.000 NA
ATOM     15  C   UNL     1      -2.220  12.139  23.529  0.00  0.00    +0.000 A 
ATOM     16  C   UNL     1      -1.498  11.249  22.747  0.00  0.00    +0.000 A 
ENDBRANCH   9  11
ENDBRANCH   1   8
BRANCH   4  17
ATOM     17  C   UNL     1       4.030   6.771  17.800  0.00  0.00    +0.000 C 
BRANCH  17  18
ATOM     18  N   UNL     1       3.684   5.370  17.688  0.00  0.00    +0.000 N 
ATOM     19  C   UNL     1       4.165   4.421  18.563  0.00  0.00    +0.000 C 
ATOM     20  O   UNL     1       4.891   4.716  19.509  0.00  0.00    +0.000 OA
ATOM     21  H   UNL     1       3.179   5.086  16.862  0.00  0.00    +0.000 HD
BRANCH  19  22
ATOM     22  C   UNL     1       3.644   2.990  18.331  0.00  0.00    +0.000 C 
ATOM     23  C   UNL     1       2.597   2.939  17.200  0.00  0.00    +0.000 C 
ATOM     24  C   UNL     1       1.264   3.579  17.604  0.00  0.00    +0.000 C 
ATOM     25  C   UNL     1       0.718   3.025  18.917  0.00  0.00    +0.000 C 
ATOM     26  C   UNL     1       1.770   2.979  20.001  0.00  0.00    +0.000 C 
ATOM     27  C   UNL     1       3.060   2.316  19.581  0.00  0.00    +0.000 C 
ATOM     28  C   UNL     1       1.260   2.774  21.420  0.00  0.00    +0.000 C 
ATOM     29  C   UNL     1       1.857   4.066  21.016  0.00  0.00    +0.000 C 
ATOM     30  F   UNL     1       3.051   4.420  21.597  0.00  0.00    +0.000 F 
ATOM     31  F   UNL     1       1.085   5.199  20.923  0.00  0.00    +0.000 F 
ENDBRANCH  19  22
ENDBRANCH  17  18
ENDBRANCH   4  17
TORSDOF 5
ENDMDL
MODEL 8
REMARK VINA RESULT:      -8.5      1.877      2.537
REMARK  Name = 
REMARK  5 active torsions:
REMARK  status: ('A' for Active; 'I' for Inactive)
REMARK    1  A    between atoms: C_2  and  C_10
REMARK    2  A    between atoms: N_3  and  C_4
REMARK    3  A    between atoms: C_13  and  C_14
REMARK    4  A    between atoms: C_14  and  N_15
REMARK    5  A    between atoms: C_16  and  C_18
REMARK                            x       y       z     vdW  Elec       q    Type
REMARK                         _______ _______ _______ _____ _____    ______ ____
ROOT
ATOM      1  C   UNL     1       8.319   8.543  18.445  0.00  0.00    +0.000 A 
ATOM      2  C   UNL     1       7.403   8.597  17.389  0.00  0.00    +0.000 A 
ATOM      3  C   UNL     1       6.670   7.456  17.032  0.00  0.00    +0.000 A 
ATOM      4  C   UNL     1       6.834   6.256  17.738  0.00  0.00    +0.000 A 
ATOM      5  C   UNL     1       7.772   6.208  18.786  0.00  0.00    +0.000 A 
ATOM      6  C   UNL     1       8.503   7.345  19.144  0.00  0.00    +0.000 A 
ENDROOT
BRANCH   1   8
ATOM      7  O   UNL     1       9.130  10.071  20.012  0.00  0.00    +0.000 OA
ATOM      8  C   UNL     1       9.030   9.801  18.821  0.00  0.00    +0.000 C 
ATOM      9  N   UNL     1       9.461  10.578  17.759  0.00  0.00    +0.000 N 
ATOM     10  H   UNL     1       9.155  10.298  16.836  0.00  0.00    +0.000 HD
BRANCH   9  11
ATOM     11  C   UNL     1      10.118  11.828  17.851  0.00  0.00    +0.000 A 
ATOM     12  C   UNL     1       9.452  13.045  17.962  0.00  0.00    +0.000 A 
ATOM     13  C   UNL     1      10.202  14.210  18.008  0.00  0.00    +0.000 A 
ATOM     14  N   UNL     1      11.549  14.242  17.955  0.00  0.00    +0.000 NA
ATOM     15  C   UNL     1      12.174  13.051  17.863  0.00  0.00    +0.000 A 
ATOM     16  C   UNL     1      11.513  11.832  17.823  0.00  0.00    +0.000 A 
ENDBRANCH   9  11
ENDBRANCH   1   8
BRANCH   4  17
ATOM     17  C   UNL     1       6.000   5.038  17.408  0.00  0.00    +0.000 C 
BRANCH  17  18
ATOM     18  N   UNL     1       4.574   5.264  17.517  0.00  0.00    +0.000 N 
ATOM     19  C   UNL     1       3.658   4.240  17.421  0.00  0.00    +0.000 C 
ATOM     20  O   UNL     1       4.001   3.070  17.271  0.00  0.00    +0.000 OA
ATOM     21  H   UNL     1       4.261   6.223  17.533  0.00  0.00    +0.000 HD
BRANCH  19  22
ATOM     22  C   UNL     1       2.187   4.655  17.621  0.00  0.00    +0.000 C 
ATOM     23  C   UNL     1       2.069   6.052  18.261  0.00  0.00    +0.000 C 
ATOM     24  C   UNL     1       2.486   6.061  19.736  0.00  0.00    +0.000 C 
ATOM     25  C   UNL     1       1.772   4.991  20.557  0.00  0.00    +0.000 C 
ATOM     26  C   UNL     1       1.798   3.639  19.883  0.00  0.00    +0.000 C 
ATOM     27  C   UNL     1       1.353   3.660  18.440  0.00  0.00    +0.000 C 
ATOM     28  C   UNL     1       1.425   2.449  20.756  0.00  0.00    +0.000 C 
ATOM     29  C   UNL     1       2.813   2.619  20.273  0.00  0.00    +0.000 C 
ATOM     30  F   UNL     1       3.289   1.694  19.376  0.00  0.00    +0.000 F 
ATOM     31  F   UNL     1       3.830   2.918  21.147  0.00  0.00    +0.000 F 
ENDBRANCH  19  22
ENDBRANCH  17  18
ENDBRANCH   4  17
TORSDOF 5
ENDMDL
MODEL 9
REMARK VINA RESULT:      -8.3      5.676      8.047
REMARK  Name = 
REMARK  5 active torsions:
REMARK  status: ('A' for Active; 'I' for Inactive)
REMARK    1  A    between atoms: C_2  and  C_10
REMARK    2  A    between atoms: N_3  and  C_4
REMARK    3  A    between atoms: C_13  and  C_14
REMARK    4  A    between atoms: C_14  and  N_15
REMARK    5  A    between atoms: C_16  and  C_18
REMARK                            x       y       z     vdW  Elec       q    Type
REMARK                         _______ _______ _______ _____ _____    ______ ____
ROOT
ATOM      1  C   UNL     1       0.337   9.718  20.591  0.00  0.00    +0.000 A 
ATOM      2  C   UNL     1       1.176   8.656  20.947  0.00  0.00    +0.000 A 
ATOM      3  C   UNL     1       1.951   8.012  19.973  0.00  0.00    +0.000 A 
ATOM      4  C   UNL     1       1.909   8.435  18.636  0.00  0.00    +0.000 A 
ATOM      5  C   UNL     1       1.047   9.491  18.286  0.00  0.00    +0.000 A 
ATOM      6  C   UNL     1       0.274  10.135  19.257  0.00  0.00    +0.000 A 
ENDROOT
BRANCH   1   8
ATOM      7  O   UNL     1      -0.534   9.832  22.753  0.00  0.00    +0.000 OA
ATOM      8  C   UNL     1      -0.422  10.406  21.676  0.00  0.00    +0.000 C 
ATOM      9  N   UNL     1      -0.986  11.621  21.326  0.00  0.00    +0.000 N 
ATOM     10  H   UNL     1      -0.943  11.879  20.349  0.00  0.00    +0.000 HD
BRANCH   9  11
ATOM     11  C   UNL     1      -1.783  12.444  22.158  0.00  0.00    +0.000 A 
ATOM     12  C   UNL     1      -1.266  13.265  23.156  0.00  0.00    +0.000 A 
ATOM     13  C   UNL     1      -2.147  14.000  23.933  0.00  0.00    +0.000 A 
ATOM     14  N   UNL     1      -3.487  13.974  23.782  0.00  0.00    +0.000 NA
ATOM     15  C   UNL     1      -3.965  13.184  22.800  0.00  0.00    +0.000 A 
ATOM     16  C   UNL     1      -3.164  12.421  21.963  0.00  0.00    +0.000 A 
ENDBRANCH   9  11
ENDBRANCH   1   8
BRANCH   4  17
ATOM     17  C   UNL     1       2.791   7.794  17.589  0.00  0.00    +0.000 C 
BRANCH  17  18
ATOM     18  N   UNL     1       3.514   6.635  18.069  0.00  0.00    +0.000 N 
ATOM     19  C   UNL     1       2.957   5.376  18.086  0.00  0.00    +0.000 C 
ATOM     20  O   UNL     1       1.824   5.158  17.662  0.00  0.00    +0.000 OA
ATOM     21  H   UNL     1       4.401   6.802  18.519  0.00  0.00    +0.000 HD
BRANCH  19  22
ATOM     22  C   UNL     1       3.891   4.251  18.573  0.00  0.00    +0.000 C 
ATOM     23  C   UNL     1       3.855   3.030  17.632  0.00  0.00    +0.000 C 
ATOM     24  C   UNL     1       2.535   2.255  17.725  0.00  0.00    +0.000 C 
ATOM     25  C   UNL     1       2.169   1.886  19.159  0.00  0.00    +0.000 C 
ATOM     26  C   UNL     1       2.302   3.057  20.105  0.00  0.00    +0.000 C 
ATOM     27  C   UNL     1       3.623   3.781  20.009  0.00  0.00    +0.000 C 
ATOM     28  C   UNL     1       1.643   2.896  21.467  0.00  0.00    +0.000 C 
ATOM     29  C   UNL     1       1.105   3.862  20.484  0.00  0.00    +0.000 C 
ATOM     30  F   UNL     1       1.200   5.197  20.792  0.00  0.00    +0.000 F 
ATOM     31  F   UNL     1      -0.116   3.655  19.889  0.00  0.00    +0.000 F 
ENDBRANCH  19  22
ENDBRANCH  17  18
ENDBRANCH   4  17
TORSDOF 5
ENDMDL
