MODEL 1
REMARK VINA RESULT:      -8.0      0.000      0.000
REMARK  Name = 
REMARK  10 active torsions:
REMARK  status: ('A' for Active; 'I' for Inactive)
REMARK    1  A    between atoms: C_1  and  N_2
REMARK    2  A    between atoms: C_6  and  C_7
REMARK    3  A    between atoms: C_7  and  C_8
REMARK    4  A    between atoms: C_8  and  C_9
REMARK    5  A    between atoms: C_13  and  N_14
REMARK    6  A    between atoms: C_18  and  C_19
REMARK    7  A    between atoms: C_19  and  C_20
REMARK    8  A    between atoms: C_20  and  C_21
REMARK    9  A    between atoms: N_23  and  C_24
REMARK   10  A    between atoms: C_24  and  C_25
REMARK                            x       y       z     vdW  Elec       q    Type
REMARK                         _______ _______ _______ _____ _____    ______ ____
ROOT
ATOM      1  C   UNL     1       2.299   5.804  19.261  0.00  0.00    +0.000 A 
ATOM      2  C   UNL     1       2.500   6.237  17.935  0.00  0.00    +0.000 A 
ATOM      3  C   UNL     1       2.361   7.575  17.573  0.00  0.00    +0.000 A 
ATOM      4  C   UNL     1       2.031   8.520  18.539  0.00  0.00    +0.000 A 
ATOM      5  C   UNL     1       1.855   8.157  19.880  0.00  0.00    +0.000 A 
ATOM      6  C   UNL     1       1.993   6.804  20.211  0.00  0.00    +0.000 A 
ENDROOT
BRANCH   5   7
ATOM      7  N   UNL     1       1.508   9.137  20.800  0.00  0.00    +0.000 N 
ATOM      8  C   UNL     1       1.226   8.836  22.205  0.00  0.00    +0.000 C 
ATOM      9  C   UNL     1      -0.173   9.374  22.480  0.00  0.00    +0.000 C 
ATOM     10  C   UNL     1      -0.355  10.423  21.430  0.00  0.00    +0.000 C 
ATOM     11  C   UNL     1      -1.202  11.462  21.529  0.00  0.00    +0.000 C 
ATOM     12  C   UNL     1       0.566  10.134  20.274  0.00  0.00    +0.000 C 
BRANCH  11  13
ATOM     13  C   UNL     1      -1.374  12.530  20.487  0.00  0.00    +0.000 C 
BRANCH  13  14
ATOM     14  C   UNL     1      -2.845  12.820  20.196  0.00  0.00    +0.000 C 
BRANCH  14  15
ATOM     15  C   UNL     1      -3.293  12.077  18.956  0.00  0.00    +0.000 C 
ATOM     16  O   UNL     1      -4.383  11.528  18.845  0.00  0.00    +0.000 OA
ATOM     17  N   UNL     1      -2.374  12.087  17.934  0.00  0.00    +0.000 N 
ATOM     18  H   UNL     1      -1.448  12.469  18.090  0.00  0.00    +0.000 HD
BRANCH  17  19
ATOM     19  C   UNL     1      -2.672  11.448  16.660  0.00  0.00    +0.000 C 
BRANCH  19  20
ATOM     20  C   UNL     1      -2.139  10.020  16.509  0.00  0.00    +0.000 C 
ATOM     21  F   UNL     1      -1.590   9.615  17.687  0.00  0.00    +0.000 F 
ATOM     22  F   UNL     1      -3.181   9.179  16.269  0.00  0.00    +0.000 F 
ENDBRANCH  19  20
ENDBRANCH  17  19
ENDBRANCH  14  15
ENDBRANCH  13  14
ENDBRANCH  11  13
ENDBRANCH   5   7
BRANCH   1  23
ATOM     23  C   UNL     1       2.392   4.254  19.670  0.00  0.00    +0.000 C 
ATOM     24  C   UNL     1       2.412   3.900  21.183  0.00  0.00    +0.000 C 
ATOM     25  O   UNL     1       1.185   3.144  21.088  0.00  0.00    +0.000 OA
ATOM     26  C   UNL     1       1.038   3.486  19.698  0.00  0.00    +0.000 C 
BRANCH  23  27
ATOM     27  C   UNL     1       3.437   3.523  18.807  0.00  0.00    +0.000 C 
BRANCH  27  33
ATOM     28  C   UNL     1       5.209   4.176  16.242  0.00  0.00    +0.000 C 
ATOM     29  N   UNL     1       5.539   4.401  17.624  0.00  0.00    +0.000 N 
ATOM     30  C   UNL     1       6.738   4.876  18.068  0.00  0.00    +0.000 A 
ATOM     31  N   UNL     1       6.714   4.980  19.373  0.00  0.00    +0.000 NA
ATOM     32  N   UNL     1       5.484   4.544  19.799  0.00  0.00    +0.000 NA
ATOM     33  C   UNL     1       4.782   4.174  18.746  0.00  0.00    +0.000 A 
ENDBRANCH  27  33
ENDBRANCH  23  27
ENDBRANCH   1  23
TORSDOF 9
ENDMDL
MODEL 2
REMARK VINA RESULT:      -8.0      2.110      2.899
REMARK  Name = 
REMARK  10 active torsions:
REMARK  status: ('A' for Active; 'I' for Inactive)
REMARK    1  A    between atoms: C_1  and  N_2
REMARK    2  A    between atoms: C_6  and  C_7
REMARK    3  A    between atoms: C_7  and  C_8
REMARK    4  A    between atoms: C_8  and  C_9
REMARK    5  A    between atoms: C_13  and  N_14
REMARK    6  A    between atoms: C_18  and  C_19
REMARK    7  A    between atoms: C_19  and  C_20
REMARK    8  A    between atoms: C_20  and  C_21
REMARK    9  A    between atoms: N_23  and  C_24
REMARK   10  A    between atoms: C_24  and  C_25
REMARK                            x       y       z     vdW  Elec       q    Type
REMARK                         _______ _______ _______ _____ _____    ______ ____
ROOT
ATOM      1  C   UNL     1       2.353   7.519  18.636  0.00  0.00    +0.000 A 
ATOM      2  C   UNL     1       2.036   8.351  17.543  0.00  0.00    +0.000 A 
ATOM      3  C   UNL     1       1.421   9.589  17.719  0.00  0.00    +0.000 A 
ATOM      4  C   UNL     1       1.120  10.032  19.003  0.00  0.00    +0.000 A 
ATOM      5  C   UNL     1       1.443   9.268  20.131  0.00  0.00    +0.000 A 
ATOM      6  C   UNL     1       2.053   8.025  19.921  0.00  0.00    +0.000 A 
ENDROOT
BRANCH   5   7
ATOM      7  N   UNL     1       1.103   9.749  21.388  0.00  0.00    +0.000 N 
ATOM      8  C   UNL     1       0.856   8.867  22.531  0.00  0.00    +0.000 C 
ATOM      9  C   UNL     1      -0.544   9.205  23.030  0.00  0.00    +0.000 C 
ATOM     10  C   UNL     1      -0.762  10.600  22.536  0.00  0.00    +0.000 C 
ATOM     11  C   UNL     1      -1.621  11.478  23.085  0.00  0.00    +0.000 C 
ATOM     12  C   UNL     1       0.137  10.855  21.355  0.00  0.00    +0.000 C 
BRANCH  11  13
ATOM     13  C   UNL     1      -1.828  12.886  22.605  0.00  0.00    +0.000 C 
BRANCH  13  14
ATOM     14  C   UNL     1      -2.892  12.971  21.512  0.00  0.00    +0.000 C 
BRANCH  14  15
ATOM     15  C   UNL     1      -2.243  12.980  20.145  0.00  0.00    +0.000 C 
ATOM     16  O   UNL     1      -1.398  13.796  19.796  0.00  0.00    +0.000 OA
ATOM     17  N   UNL     1      -2.665  11.967  19.318  0.00  0.00    +0.000 N 
ATOM     18  H   UNL     1      -3.430  11.366  19.603  0.00  0.00    +0.000 HD
BRANCH  17  19
ATOM     19  C   UNL     1      -2.106  11.817  17.981  0.00  0.00    +0.000 C 
BRANCH  19  20
ATOM     20  C   UNL     1      -2.627  10.613  17.191  0.00  0.00    +0.000 C 
ATOM     21  F   UNL     1      -1.835   9.533  17.435  0.00  0.00    +0.000 F 
ATOM     22  F   UNL     1      -3.865  10.284  17.648  0.00  0.00    +0.000 F 
ENDBRANCH  19  20
ENDBRANCH  17  19
ENDBRANCH  14  15
ENDBRANCH  13  14
ENDBRANCH  11  13
ENDBRANCH   5   7
BRANCH   1  23
ATOM     23  C   UNL     1       3.000   6.064  18.434  0.00  0.00    +0.000 C 
ATOM     24  C   UNL     1       4.215   5.935  17.474  0.00  0.00    +0.000 C 
ATOM     25  O   UNL     1       5.084   5.475  18.532  0.00  0.00    +0.000 OA
ATOM     26  C   UNL     1       4.042   5.638  19.510  0.00  0.00    +0.000 C 
BRANCH  23  27
ATOM     27  C   UNL     1       1.903   4.998  18.258  0.00  0.00    +0.000 C 
BRANCH  27  33
ATOM     28  C   UNL     1       3.175   2.086  18.483  0.00  0.00    +0.000 C 
ATOM     29  N   UNL     1       2.310   2.747  19.423  0.00  0.00    +0.000 N 
ATOM     30  C   UNL     1       1.823   2.178  20.563  0.00  0.00    +0.000 A 
ATOM     31  N   UNL     1       1.080   3.045  21.205  0.00  0.00    +0.000 NA
ATOM     32  N   UNL     1       1.059   4.200  20.464  0.00  0.00    +0.000 NA
ATOM     33  C   UNL     1       1.784   4.015  19.377  0.00  0.00    +0.000 A 
ENDBRANCH  27  33
ENDBRANCH  23  27
ENDBRANCH   1  23
TORSDOF 9
ENDMDL
MODEL 3
REMARK VINA RESULT:      -7.8      2.925      3.680
REMARK  Name = 
REMARK  10 active torsions:
REMARK  status: ('A' for Active; 'I' for Inactive)
REMARK    1  A    between atoms: C_1  and  N_2
REMARK    2  A    between atoms: C_6  and  C_7
REMARK    3  A    between atoms: C_7  and  C_8
REMARK    4  A    between atoms: C_8  and  C_9
REMARK    5  A    between atoms: C_13  and  N_14
REMARK    6  A    between atoms: C_18  and  C_19
REMARK    7  A    between atoms: C_19  and  C_20
REMARK    8  A    between atoms: C_20  and  C_21
REMARK    9  A    between atoms: N_23  and  C_24
REMARK   10  A    between atoms: C_24  and  C_25
REMARK                            x       y       z     vdW  Elec       q    Type
REMARK                         _______ _______ _______ _____ _____    ______ ____
ROOT
ATOM      1  C   UNL     1       2.323   7.398  18.717  0.00  0.00    +0.000 A 
ATOM      2  C   UNL     1       1.920   8.133  17.584  0.00  0.00    +0.000 A 
ATOM      3  C   UNL     1       1.270   9.359  17.701  0.00  0.00    +0.000 A 
ATOM      4  C   UNL     1       1.020   9.890  18.962  0.00  0.00    +0.000 A 
ATOM      5  C   UNL     1       1.428   9.224  20.125  0.00  0.00    +0.000 A 
ATOM      6  C   UNL     1       2.072   7.990  19.975  0.00  0.00    +0.000 A 
ENDROOT
BRANCH   5   7
ATOM      7  N   UNL     1       1.136   9.789  21.359  0.00  0.00    +0.000 N 
ATOM      8  C   UNL     1       1.060   8.999  22.590  0.00  0.00    +0.000 C 
ATOM      9  C   UNL     1      -0.324   9.255  23.171  0.00  0.00    +0.000 C 
ATOM     10  C   UNL     1      -0.713  10.572  22.578  0.00  0.00    +0.000 C 
ATOM     11  C   UNL     1      -1.610  11.417  23.117  0.00  0.00    +0.000 C 
ATOM     12  C   UNL     1       0.068  10.796  21.310  0.00  0.00    +0.000 C 
BRANCH  11  13
ATOM     13  C   UNL     1      -1.988  12.749  22.537  0.00  0.00    +0.000 C 
BRANCH  13  14
ATOM     14  C   UNL     1      -1.140  13.886  23.103  0.00  0.00    +0.000 C 
BRANCH  14  15
ATOM     15  C   UNL     1      -0.079  14.299  22.106  0.00  0.00    +0.000 C 
ATOM     16  O   UNL     1       1.101  14.464  22.393  0.00  0.00    +0.000 OA
ATOM     17  N   UNL     1      -0.547  14.453  20.823  0.00  0.00    +0.000 N 
ATOM     18  H   UNL     1      -1.542  14.399  20.637  0.00  0.00    +0.000 HD
BRANCH  17  19
ATOM     19  C   UNL     1       0.358  14.811  19.739  0.00  0.00    +0.000 C 
BRANCH  19  20
ATOM     20  C   UNL     1       0.412  13.812  18.580  0.00  0.00    +0.000 C 
ATOM     21  F   UNL     1       1.594  13.138  18.617  0.00  0.00    +0.000 F 
ATOM     22  F   UNL     1      -0.561  12.877  18.754  0.00  0.00    +0.000 F 
ENDBRANCH  19  20
ENDBRANCH  17  19
ENDBRANCH  14  15
ENDBRANCH  13  14
ENDBRANCH  11  13
ENDBRANCH   5   7
BRANCH   1  23
ATOM     23  C   UNL     1       3.012   5.953  18.589  0.00  0.00    +0.000 C 
ATOM     24  C   UNL     1       3.986   5.714  17.402  0.00  0.00    +0.000 C 
ATOM     25  O   UNL     1       5.101   5.463  18.285  0.00  0.00    +0.000 OA
ATOM     26  C   UNL     1       4.296   5.745  19.443  0.00  0.00    +0.000 C 
BRANCH  23  27
ATOM     27  C   UNL     1       1.984   4.834  18.834  0.00  0.00    +0.000 C 
BRANCH  27  33
ATOM     28  C   UNL     1       3.536   2.058  19.012  0.00  0.00    +0.000 C 
ATOM     29  N   UNL     1       2.875   2.770  20.074  0.00  0.00    +0.000 N 
ATOM     30  C   UNL     1       2.742   2.312  21.351  0.00  0.00    +0.000 A 
ATOM     31  N   UNL     1       2.106   3.200  22.073  0.00  0.00    +0.000 NA
ATOM     32  N   UNL     1       1.794   4.254  21.252  0.00  0.00    +0.000 NA
ATOM     33  C   UNL     1       2.239   3.987  20.039  0.00  0.00    +0.000 A 
ENDBRANCH  27  33
ENDBRANCH  23  27
ENDBRANCH   1  23
TORSDOF 9
ENDMDL
MODEL 4
REMARK VINA RESULT:      -7.6      1.012      1.333
REMARK  Name = 
REMARK  10 active torsions:
REMARK  status: ('A' for Active; 'I' for Inactive)
REMARK    1  A    between atoms: C_1  and  N_2
REMARK    2  A    between atoms: C_6  and  C_7
REMARK    3  A    between atoms: C_7  and  C_8
REMARK    4  A    between atoms: C_8  and  C_9
REMARK    5  A    between atoms: C_13  and  N_14
REMARK    6  A    between atoms: C_18  and  C_19
REMARK    7  A    between atoms: C_19  and  C_20
REMARK    8  A    between atoms: C_20  and  C_21
REMARK    9  A    between atoms: N_23  and  C_24
REMARK   10  A    between atoms: C_24  and  C_25
REMARK                            x       y       z     vdW  Elec       q    Type
REMARK                         _______ _______ _______ _____ _____    ______ ____
ROOT
ATOM      1  C   UNL     1       2.169   6.483  19.362  0.00  0.00    +0.000 A 
ATOM      2  C   UNL     1       2.298   6.992  18.055  0.00  0.00    +0.000 A 
ATOM      3  C   UNL     1       2.060   8.334  17.765  0.00  0.00    +0.000 A 
ATOM      4  C   UNL     1       1.699   9.206  18.787  0.00  0.00    +0.000 A 
ATOM      5  C   UNL     1       1.590   8.768  20.112  0.00  0.00    +0.000 A 
ATOM      6  C   UNL     1       1.828   7.413  20.370  0.00  0.00    +0.000 A 
ENDROOT
BRANCH   5   7
ATOM      7  N   UNL     1       1.207   9.676  21.090  0.00  0.00    +0.000 N 
ATOM      8  C   UNL     1       1.072   9.306  22.501  0.00  0.00    +0.000 C 
ATOM      9  C   UNL     1      -0.352   9.673  22.899  0.00  0.00    +0.000 C 
ATOM     10  C   UNL     1      -0.733  10.723  21.903  0.00  0.00    +0.000 C 
ATOM     11  C   UNL     1      -1.681  11.655  22.103  0.00  0.00    +0.000 C 
ATOM     12  C   UNL     1       0.122  10.573  20.672  0.00  0.00    +0.000 C 
BRANCH  11  13
ATOM     13  C   UNL     1      -2.051  12.724  21.115  0.00  0.00    +0.000 C 
BRANCH  13  14
ATOM     14  C   UNL     1      -3.544  12.717  20.792  0.00  0.00    +0.000 C 
BRANCH  14  15
ATOM     15  C   UNL     1      -3.774  12.260  19.368  0.00  0.00    +0.000 C 
ATOM     16  O   UNL     1      -4.878  12.197  18.840  0.00  0.00    +0.000 OA
ATOM     17  N   UNL     1      -2.621  11.937  18.692  0.00  0.00    +0.000 N 
ATOM     18  H   UNL     1      -1.736  11.910  19.184  0.00  0.00    +0.000 HD
BRANCH  17  19
ATOM     19  C   UNL     1      -2.671  11.515  17.298  0.00  0.00    +0.000 C 
BRANCH  19  20
ATOM     20  C   UNL     1      -2.444  10.019  17.064  0.00  0.00    +0.000 C 
ATOM     21  F   UNL     1      -1.150   9.706  17.351  0.00  0.00    +0.000 F 
ATOM     22  F   UNL     1      -3.205   9.311  17.941  0.00  0.00    +0.000 F 
ENDBRANCH  19  20
ENDBRANCH  17  19
ENDBRANCH  14  15
ENDBRANCH  13  14
ENDBRANCH  11  13
ENDBRANCH   5   7
BRANCH   1  23
ATOM     23  C   UNL     1       2.377   4.925  19.689  0.00  0.00    +0.000 C 
ATOM     24  C   UNL     1       1.534   4.303  20.837  0.00  0.00    +0.000 C 
ATOM     25  O   UNL     1       0.883   3.375  19.943  0.00  0.00    +0.000 OA
ATOM     26  C   UNL     1       1.558   3.939  18.805  0.00  0.00    +0.000 C 
BRANCH  23  27
ATOM     27  C   UNL     1       3.874   4.564  19.698  0.00  0.00    +0.000 C 
BRANCH  27  33
ATOM     28  C   UNL     1       6.010   6.321  18.119  0.00  0.00    +0.000 C 
ATOM     29  N   UNL     1       5.365   5.112  17.682  0.00  0.00    +0.000 N 
ATOM     30  C   UNL     1       5.517   4.553  16.447  0.00  0.00    +0.000 A 
ATOM     31  N   UNL     1       4.808   3.454  16.371  0.00  0.00    +0.000 NA
ATOM     32  N   UNL     1       4.159   3.297  17.570  0.00  0.00    +0.000 NA
ATOM     33  C   UNL     1       4.476   4.309  18.355  0.00  0.00    +0.000 A 
ENDBRANCH  27  33
ENDBRANCH  23  27
ENDBRANCH   1  23
TORSDOF 9
ENDMDL
MODEL 5
REMARK VINA RESULT:      -7.5      2.248      3.064
REMARK  Name = 
REMARK  10 active torsions:
REMARK  status: ('A' for Active; 'I' for Inactive)
REMARK    1  A    between atoms: C_1  and  N_2
REMARK    2  A    between atoms: C_6  and  C_7
REMARK    3  A    between atoms: C_7  and  C_8
REMARK    4  A    between atoms: C_8  and  C_9
REMARK    5  A    between atoms: C_13  and  N_14
REMARK    6  A    between atoms: C_18  and  C_19
REMARK    7  A    between atoms: C_19  and  C_20
REMARK    8  A    between atoms: C_20  and  C_21
REMARK    9  A    between atoms: N_23  and  C_24
REMARK   10  A    between atoms: C_24  and  C_25
REMARK                            x       y       z     vdW  Elec       q    Type
REMARK                         _______ _______ _______ _____ _____    ______ ____
ROOT
ATOM      1  C   UNL     1       2.258   7.472  19.074  0.00  0.00    +0.000 A 
ATOM      2  C   UNL     1       1.997   8.151  17.867  0.00  0.00    +0.000 A 
ATOM      3  C   UNL     1       1.395   9.407  17.850  0.00  0.00    +0.000 A 
ATOM      4  C   UNL     1       1.052  10.024  19.049  0.00  0.00    +0.000 A 
ATOM      5  C   UNL     1       1.319   9.417  20.281  0.00  0.00    +0.000 A 
ATOM      6  C   UNL     1       1.917   8.151  20.266  0.00  0.00    +0.000 A 
ENDROOT
BRANCH   5   7
ATOM      7  N   UNL     1       0.939  10.068  21.447  0.00  0.00    +0.000 N 
ATOM      8  C   UNL     1       0.889   9.395  22.747  0.00  0.00    +0.000 C 
ATOM      9  C   UNL     1      -0.532   9.581  23.264  0.00  0.00    +0.000 C 
ATOM     10  C   UNL     1      -1.011  10.798  22.537  0.00  0.00    +0.000 C 
ATOM     11  C   UNL     1      -1.994  11.607  22.968  0.00  0.00    +0.000 C 
ATOM     12  C   UNL     1      -0.209  10.968  21.273  0.00  0.00    +0.000 C 
BRANCH  11  13
ATOM     13  C   UNL     1      -2.464  12.840  22.251  0.00  0.00    +0.000 C 
BRANCH  13  14
ATOM     14  C   UNL     1      -3.967  12.809  21.977  0.00  0.00    +0.000 C 
BRANCH  14  15
ATOM     15  C   UNL     1      -4.230  12.797  20.487  0.00  0.00    +0.000 C 
ATOM     16  O   UNL     1      -5.104  13.462  19.942  0.00  0.00    +0.000 OA
ATOM     17  N   UNL     1      -3.379  11.986  19.775  0.00  0.00    +0.000 N 
ATOM     18  H   UNL     1      -2.730  11.380  20.263  0.00  0.00    +0.000 HD
BRANCH  17  19
ATOM     19  C   UNL     1      -3.479  11.895  18.324  0.00  0.00    +0.000 C 
BRANCH  19  20
ATOM     20  C   UNL     1      -4.129  10.612  17.797  0.00  0.00    +0.000 C 
ATOM     21  F   UNL     1      -5.286  10.379  18.475  0.00  0.00    +0.000 F 
ATOM     22  F   UNL     1      -4.484  10.796  16.497  0.00  0.00    +0.000 F 
ENDBRANCH  19  20
ENDBRANCH  17  19
ENDBRANCH  14  15
ENDBRANCH  13  14
ENDBRANCH  11  13
ENDBRANCH   5   7
BRANCH   1  23
ATOM     23  C   UNL     1       2.890   5.996  19.097  0.00  0.00    +0.000 C 
ATOM     24  C   UNL     1       3.092   5.270  17.738  0.00  0.00    +0.000 C 
ATOM     25  O   UNL     1       4.523   5.195  17.917  0.00  0.00    +0.000 OA
ATOM     26  C   UNL     1       4.444   5.933  19.150  0.00  0.00    +0.000 C 
BRANCH  23  27
ATOM     27  C   UNL     1       2.252   5.147  20.211  0.00  0.00    +0.000 C 
BRANCH  27  33
ATOM     28  C   UNL     1       3.912   2.431  20.072  0.00  0.00    +0.000 C 
ATOM     29  N   UNL     1       2.539   2.647  19.701  0.00  0.00    +0.000 N 
ATOM     30  C   UNL     1       1.729   1.704  19.140  0.00  0.00    +0.000 A 
ATOM     31  N   UNL     1       0.539   2.212  18.936  0.00  0.00    +0.000 NA
ATOM     32  N   UNL     1       0.571   3.520  19.349  0.00  0.00    +0.000 NA
ATOM     33  C   UNL     1       1.784   3.791  19.791  0.00  0.00    +0.000 A 
ENDBRANCH  27  33
ENDBRANCH  23  27
ENDBRANCH   1  23
TORSDOF 9
ENDMDL
MODEL 6
REMARK VINA RESULT:      -7.5      2.528      3.336
REMARK  Name = 
REMARK  10 active torsions:
REMARK  status: ('A' for Active; 'I' for Inactive)
REMARK    1  A    between atoms: C_1  and  N_2
REMARK    2  A    between atoms: C_6  and  C_7
REMARK    3  A    between atoms: C_7  and  C_8
REMARK    4  A    between atoms: C_8  and  C_9
REMARK    5  A    between atoms: C_13  and  N_14
REMARK    6  A    between atoms: C_18  and  C_19
REMARK    7  A    between atoms: C_19  and  C_20
REMARK    8  A    between atoms: C_20  and  C_21
REMARK    9  A    between atoms: N_23  and  C_24
REMARK   10  A    between atoms: C_24  and  C_25
REMARK                            x       y       z     vdW  Elec       q    Type
REMARK                         _______ _______ _______ _____ _____    ______ ____
ROOT
ATOM      1  C   UNL     1       2.254   7.483  18.796  0.00  0.00    +0.000 A 
ATOM      2  C   UNL     1       1.836   8.211  17.665  0.00  0.00    +0.000 A 
ATOM      3  C   UNL     1       1.172   9.430  17.783  0.00  0.00    +0.000 A 
ATOM      4  C   UNL     1       0.921   9.959  19.045  0.00  0.00    +0.000 A 
ATOM      5  C   UNL     1       1.344   9.300  20.206  0.00  0.00    +0.000 A 
ATOM      6  C   UNL     1       2.002   8.074  20.055  0.00  0.00    +0.000 A 
ENDROOT
BRANCH   5   7
ATOM      7  N   UNL     1       1.051   9.863  21.441  0.00  0.00    +0.000 N 
ATOM      8  C   UNL     1       0.760   9.055  22.628  0.00  0.00    +0.000 C 
ATOM      9  C   UNL     1      -0.608   9.509  23.122  0.00  0.00    +0.000 C 
ATOM     10  C   UNL     1      -0.740  10.890  22.563  0.00  0.00    +0.000 C 
ATOM     11  C   UNL     1      -1.532  11.848  23.076  0.00  0.00    +0.000 C 
ATOM     12  C   UNL     1       0.161  11.028  21.363  0.00  0.00    +0.000 C 
BRANCH  11  13
ATOM     13  C   UNL     1      -1.652  13.242  22.530  0.00  0.00    +0.000 C 
BRANCH  13  14
ATOM     14  C   UNL     1      -2.997  13.880  22.871  0.00  0.00    +0.000 C 
BRANCH  14  15
ATOM     15  C   UNL     1      -4.131  13.049  22.311  0.00  0.00    +0.000 C 
ATOM     16  O   UNL     1      -4.751  12.215  22.959  0.00  0.00    +0.000 OA
ATOM     17  N   UNL     1      -4.433  13.327  20.999  0.00  0.00    +0.000 N 
ATOM     18  H   UNL     1      -3.843  13.955  20.465  0.00  0.00    +0.000 HD
BRANCH  17  19
ATOM     19  C   UNL     1      -5.526  12.638  20.326  0.00  0.00    +0.000 C 
BRANCH  19  20
ATOM     20  C   UNL     1      -5.146  11.938  19.019  0.00  0.00    +0.000 C 
ATOM     21  F   UNL     1      -5.452  12.746  17.966  0.00  0.00    +0.000 F 
ATOM     22  F   UNL     1      -3.797  11.766  18.983  0.00  0.00    +0.000 F 
ENDBRANCH  19  20
ENDBRANCH  17  19
ENDBRANCH  14  15
ENDBRANCH  13  14
ENDBRANCH  11  13
ENDBRANCH   5   7
BRANCH   1  23
ATOM     23  C   UNL     1       2.960   6.046  18.667  0.00  0.00    +0.000 C 
ATOM     24  C   UNL     1       3.930   5.818  17.475  0.00  0.00    +0.000 C 
ATOM     25  O   UNL     1       5.053   5.582  18.351  0.00  0.00    +0.000 OA
ATOM     26  C   UNL     1       4.252   5.856  19.514  0.00  0.00    +0.000 C 
BRANCH  23  27
ATOM     27  C   UNL     1       1.947   4.915  18.921  0.00  0.00    +0.000 C 
BRANCH  27  33
ATOM     28  C   UNL     1       3.585   2.183  18.923  0.00  0.00    +0.000 C 
ATOM     29  N   UNL     1       2.938   2.826  20.036  0.00  0.00    +0.000 N 
ATOM     30  C   UNL     1       2.859   2.306  21.294  0.00  0.00    +0.000 A 
ATOM     31  N   UNL     1       2.220   3.140  22.076  0.00  0.00    +0.000 NA
ATOM     32  N   UNL     1       1.852   4.221  21.314  0.00  0.00    +0.000 NA
ATOM     33  C   UNL     1       2.265   4.023  20.077  0.00  0.00    +0.000 A 
ENDBRANCH  27  33
ENDBRANCH  23  27
ENDBRANCH   1  23
TORSDOF 9
ENDMDL
MODEL 7
REMARK VINA RESULT:      -7.5      3.032      3.842
REMARK  Name = 
REMARK  10 active torsions:
REMARK  status: ('A' for Active; 'I' for Inactive)
REMARK    1  A    between atoms: C_1  and  N_2
REMARK    2  A    between atoms: C_6  and  C_7
REMARK    3  A    between atoms: C_7  and  C_8
REMARK    4  A    between atoms: C_8  and  C_9
REMARK    5  A    between atoms: C_13  and  N_14
REMARK    6  A    between atoms: C_18  and  C_19
REMARK    7  A    between atoms: C_19  and  C_20
REMARK    8  A    between atoms: C_20  and  C_21
REMARK    9  A    between atoms: N_23  and  C_24
REMARK   10  A    between atoms: C_24  and  C_25
REMARK                            x       y       z     vdW  Elec       q    Type
REMARK                         _______ _______ _______ _____ _____    ______ ____
ROOT
ATOM      1  C   UNL     1       2.274   7.497  19.025  0.00  0.00    +0.000 A 
ATOM      2  C   UNL     1       1.971   8.194  17.838  0.00  0.00    +0.000 A 
ATOM      3  C   UNL     1       1.354   9.443  17.860  0.00  0.00    +0.000 A 
ATOM      4  C   UNL     1       1.038  10.035  19.079  0.00  0.00    +0.000 A 
ATOM      5  C   UNL     1       1.348   9.409  20.293  0.00  0.00    +0.000 A 
ATOM      6  C   UNL     1       1.960   8.152  20.238  0.00  0.00    +0.000 A 
ENDROOT
BRANCH   5   7
ATOM      7  N   UNL     1       0.993  10.036  21.480  0.00  0.00    +0.000 N 
ATOM      8  C   UNL     1       1.045   9.356  22.776  0.00  0.00    +0.000 C 
ATOM      9  C   UNL     1      -0.355   9.466  23.367  0.00  0.00    +0.000 C 
ATOM     10  C   UNL     1      -0.934  10.657  22.671  0.00  0.00    +0.000 C 
ATOM     11  C   UNL     1      -1.935  11.412  23.157  0.00  0.00    +0.000 C 
ATOM     12  C   UNL     1      -0.207  10.874  21.370  0.00  0.00    +0.000 C 
BRANCH  11  13
ATOM     13  C   UNL     1      -2.505  12.621  22.472  0.00  0.00    +0.000 C 
BRANCH  13  14
ATOM     14  C   UNL     1      -3.649  13.247  23.268  0.00  0.00    +0.000 C 
BRANCH  14  15
ATOM     15  C   UNL     1      -4.919  13.257  22.445  0.00  0.00    +0.000 C 
ATOM     16  O   UNL     1      -5.958  13.803  22.798  0.00  0.00    +0.000 OA
ATOM     17  N   UNL     1      -4.807  12.615  21.235  0.00  0.00    +0.000 N 
ATOM     18  H   UNL     1      -3.965  12.096  21.013  0.00  0.00    +0.000 HD
BRANCH  17  19
ATOM     19  C   UNL     1      -5.932  12.570  20.310  0.00  0.00    +0.000 C 
BRANCH  19  20
ATOM     20  C   UNL     1      -6.811  11.321  20.417  0.00  0.00    +0.000 C 
ATOM     21  F   UNL     1      -7.720  11.491  21.416  0.00  0.00    +0.000 F 
ATOM     22  F   UNL     1      -7.531  11.185  19.271  0.00  0.00    +0.000 F 
ENDBRANCH  19  20
ENDBRANCH  17  19
ENDBRANCH  14  15
ENDBRANCH  13  14
ENDBRANCH  11  13
ENDBRANCH   5   7
BRANCH   1  23
ATOM     23  C   UNL     1       2.924   6.029  19.004  0.00  0.00    +0.000 C 
ATOM     24  C   UNL     1       2.996   5.285  17.641  0.00  0.00    +0.000 C 
ATOM     25  O   UNL     1       4.438   5.229  17.675  0.00  0.00    +0.000 OA
ATOM     26  C   UNL     1       4.477   5.985  18.899  0.00  0.00    +0.000 C 
BRANCH  23  27
ATOM     27  C   UNL     1       2.414   5.190  20.189  0.00  0.00    +0.000 C 
BRANCH  27  33
ATOM     28  C   UNL     1       3.992   2.439  19.893  0.00  0.00    +0.000 C 
ATOM     29  N   UNL     1       2.592   2.682  19.669  0.00  0.00    +0.000 N 
ATOM     30  C   UNL     1       1.708   1.754  19.205  0.00  0.00    +0.000 A 
ATOM     31  N   UNL     1       0.513   2.286  19.125  0.00  0.00    +0.000 NA
ATOM     32  N   UNL     1       0.617   3.595  19.523  0.00  0.00    +0.000 NA
ATOM     33  C   UNL     1       1.875   3.842  19.831  0.00  0.00    +0.000 A 
ENDBRANCH  27  33
ENDBRANCH  23  27
ENDBRANCH   1  23
TORSDOF 9
ENDMDL
MODEL 8
REMARK VINA RESULT:      -7.4      2.216      3.370
REMARK  Name = 
REMARK  10 active torsions:
REMARK  status: ('A' for Active; 'I' for Inactive)
REMARK    1  A    between atoms: C_1  and  N_2
REMARK    2  A    between atoms: C_6  and  C_7
REMARK    3  A    between atoms: C_7  and  C_8
REMARK    4  A    between atoms: C_8  and  C_9
REMARK    5  A    between atoms: C_13  and  N_14
REMARK    6  A    between atoms: C_18  and  C_19
REMARK    7  A    between atoms: C_19  and  C_20
REMARK    8  A    between atoms: C_20  and  C_21
REMARK    9  A    between atoms: N_23  and  C_24
REMARK   10  A    between atoms: C_24  and  C_25
REMARK                            x       y       z     vdW  Elec       q    Type
REMARK                         _______ _______ _______ _____ _____    ______ ____
ROOT
ATOM      1  C   UNL     1       3.774   6.427  18.394  0.00  0.00    +0.000 A 
ATOM      2  C   UNL     1       3.350   5.856  19.611  0.00  0.00    +0.000 A 
ATOM      3  C   UNL     1       2.358   6.446  20.389  0.00  0.00    +0.000 A 
ATOM      4  C   UNL     1       1.751   7.622  19.959  0.00  0.00    +0.000 A 
ATOM      5  C   UNL     1       2.103   8.218  18.741  0.00  0.00    +0.000 A 
ATOM      6  C   UNL     1       3.109   7.606  17.985  0.00  0.00    +0.000 A 
ENDROOT
BRANCH   5   7
ATOM      7  N   UNL     1       1.479   9.401  18.368  0.00  0.00    +0.000 N 
ATOM      8  C   UNL     1       2.196  10.500  17.719  0.00  0.00    +0.000 C 
ATOM      9  C   UNL     1       1.970  11.727  18.594  0.00  0.00    +0.000 C 
ATOM     10  C   UNL     1       0.710  11.401  19.331  0.00  0.00    +0.000 C 
ATOM     11  C   UNL     1      -0.123  12.316  19.859  0.00  0.00    +0.000 C 
ATOM     12  C   UNL     1       0.527   9.907  19.366  0.00  0.00    +0.000 C 
BRANCH  11  13
ATOM     13  C   UNL     1      -1.399  11.994  20.582  0.00  0.00    +0.000 C 
BRANCH  13  14
ATOM     14  C   UNL     1      -2.573  12.830  20.076  0.00  0.00    +0.000 C 
BRANCH  14  15
ATOM     15  C   UNL     1      -3.322  12.085  18.992  0.00  0.00    +0.000 C 
ATOM     16  O   UNL     1      -4.453  11.634  19.129  0.00  0.00    +0.000 OA
ATOM     17  N   UNL     1      -2.630  11.974  17.810  0.00  0.00    +0.000 N 
ATOM     18  H   UNL     1      -1.663  12.275  17.758  0.00  0.00    +0.000 HD
BRANCH  17  19
ATOM     19  C   UNL     1      -3.230  11.317  16.656  0.00  0.00    +0.000 C 
BRANCH  19  20
ATOM     20  C   UNL     1      -2.891   9.831  16.506  0.00  0.00    +0.000 C 
ATOM     21  F   UNL     1      -1.589   9.626  16.848  0.00  0.00    +0.000 F 
ATOM     22  F   UNL     1      -3.632   9.114  17.392  0.00  0.00    +0.000 F 
ENDBRANCH  19  20
ENDBRANCH  17  19
ENDBRANCH  14  15
ENDBRANCH  13  14
ENDBRANCH  11  13
ENDBRANCH   5   7
BRANCH   1  23
ATOM     23  C   UNL     1       4.964   5.788  17.526  0.00  0.00    +0.000 C 
ATOM     24  C   UNL     1       4.982   6.068  15.997  0.00  0.00    +0.000 C 
ATOM     25  O   UNL     1       6.255   6.744  16.071  0.00  0.00    +0.000 OA
ATOM     26  C   UNL     1       6.290   6.603  17.503  0.00  0.00    +0.000 C 
BRANCH  23  27
ATOM     27  C   UNL     1       5.209   4.323  17.932  0.00  0.00    +0.000 C 
BRANCH  27  33
ATOM     28  C   UNL     1       4.349   2.211  20.156  0.00  0.00    +0.000 C 
ATOM     29  N   UNL     1       3.670   2.525  18.927  0.00  0.00    +0.000 N 
ATOM     30  C   UNL     1       2.553   1.889  18.473  0.00  0.00    +0.000 A 
ATOM     31  N   UNL     1       2.176   2.419  17.335  0.00  0.00    +0.000 NA
ATOM     32  N   UNL     1       3.074   3.409  17.024  0.00  0.00    +0.000 NA
ATOM     33  C   UNL     1       3.990   3.460  17.972  0.00  0.00    +0.000 A 
ENDBRANCH  27  33
ENDBRANCH  23  27
ENDBRANCH   1  23
TORSDOF 9
ENDMDL
MODEL 9
REMARK VINA RESULT:      -7.4      2.072      2.284
REMARK  Name = 
REMARK  10 active torsions:
REMARK  status: ('A' for Active; 'I' for Inactive)
REMARK    1  A    between atoms: C_1  and  N_2
REMARK    2  A    between atoms: C_6  and  C_7
REMARK    3  A    between atoms: C_7  and  C_8
REMARK    4  A    between atoms: C_8  and  C_9
REMARK    5  A    between atoms: C_13  and  N_14
REMARK    6  A    between atoms: C_18  and  C_19
REMARK    7  A    between atoms: C_19  and  C_20
REMARK    8  A    between atoms: C_20  and  C_21
REMARK    9  A    between atoms: N_23  and  C_24
REMARK   10  A    between atoms: C_24  and  C_25
REMARK                            x       y       z     vdW  Elec       q    Type
REMARK                         _______ _______ _______ _____ _____    ______ ____
ROOT
ATOM      1  C   UNL     1       2.167   6.816  19.167  0.00  0.00    +0.000 A 
ATOM      2  C   UNL     1       2.116   7.425  17.897  0.00  0.00    +0.000 A 
ATOM      3  C   UNL     1       1.761   8.763  17.740  0.00  0.00    +0.000 A 
ATOM      4  C   UNL     1       1.463   9.533  18.860  0.00  0.00    +0.000 A 
ATOM      5  C   UNL     1       1.532   8.995  20.151  0.00  0.00    +0.000 A 
ATOM      6  C   UNL     1       1.883   7.646  20.275  0.00  0.00    +0.000 A 
ENDROOT
BRANCH   5   7
ATOM      7  N   UNL     1       1.206   9.802  21.232  0.00  0.00    +0.000 N 
ATOM      8  C   UNL     1       1.030   9.274  22.587  0.00  0.00    +0.000 C 
ATOM      9  C   UNL     1      -0.368   9.690  23.025  0.00  0.00    +0.000 C 
ATOM     10  C   UNL     1      -0.663  10.879  22.165  0.00  0.00    +0.000 C 
ATOM     11  C   UNL     1      -1.544  11.845  22.476  0.00  0.00    +0.000 C 
ATOM     12  C   UNL     1       0.191  10.819  20.926  0.00  0.00    +0.000 C 
BRANCH  11  13
ATOM     13  C   UNL     1      -1.828  13.051  21.626  0.00  0.00    +0.000 C 
BRANCH  13  14
ATOM     14  C   UNL     1      -3.209  13.639  21.904  0.00  0.00    +0.000 C 
BRANCH  14  15
ATOM     15  C   UNL     1      -4.274  12.850  21.173  0.00  0.00    +0.000 C 
ATOM     16  O   UNL     1      -5.216  12.296  21.728  0.00  0.00    +0.000 OA
ATOM     17  N   UNL     1      -4.114  12.824  19.808  0.00  0.00    +0.000 N 
ATOM     18  H   UNL     1      -3.276  13.213  19.389  0.00  0.00    +0.000 HD
BRANCH  17  19
ATOM     19  C   UNL     1      -5.078  12.138  18.958  0.00  0.00    +0.000 C 
BRANCH  19  20
ATOM     20  C   UNL     1      -6.195  13.023  18.398  0.00  0.00    +0.000 C 
ATOM     21  F   UNL     1      -6.016  14.303  18.824  0.00  0.00    +0.000 F 
ATOM     22  F   UNL     1      -6.095  13.059  17.042  0.00  0.00    +0.000 F 
ENDBRANCH  19  20
ENDBRANCH  17  19
ENDBRANCH  14  15
ENDBRANCH  13  14
ENDBRANCH  11  13
ENDBRANCH   5   7
BRANCH   1  23
ATOM     23  C   UNL     1       2.509   5.258  19.347  0.00  0.00    +0.000 C 
ATOM     24  C   UNL     1       2.718   4.720  20.790  0.00  0.00    +0.000 C 
ATOM     25  O   UNL     1       1.603   3.809  20.681  0.00  0.00    +0.000 OA
ATOM     26  C   UNL     1       1.282   4.300  19.367  0.00  0.00    +0.000 C 
BRANCH  23  27
ATOM     27  C   UNL     1       3.559   4.807  18.315  0.00  0.00    +0.000 C 
BRANCH  27  33
ATOM     28  C   UNL     1       5.477   6.878  16.841  0.00  0.00    +0.000 C 
ATOM     29  N   UNL     1       5.788   6.031  17.961  0.00  0.00    +0.000 N 
ATOM     30  C   UNL     1       7.019   5.925  18.536  0.00  0.00    +0.000 A 
ATOM     31  N   UNL     1       6.965   5.083  19.539  0.00  0.00    +0.000 NA
ATOM     32  N   UNL     1       5.680   4.609  19.611  0.00  0.00    +0.000 NA
ATOM     33  C   UNL     1       4.972   5.163  18.646  0.00  0.00    +0.000 A 
ENDBRANCH  27  33
ENDBRANCH  23  27
ENDBRANCH   1  23
TORSDOF 9
ENDMDL
