MODEL 1
REMARK VINA RESULT:      -9.8      0.000      0.000
REMARK  Name = 
REMARK  4 active torsions:
REMARK  status: ('A' for Active; 'I' for Inactive)
REMARK    1  A    between atoms: C_1  and  C_2
REMARK    2  A    between atoms: C_2  and  C_3
REMARK    3  A    between atoms: C_5  and  C_6
REMARK    4  A    between atoms: C_8  and  C_9
REMARK                            x       y       z     vdW  Elec       q    Type
REMARK                         _______ _______ _______ _____ _____    ______ ____
ROOT
ATOM      1  C   UNL     1       2.454   7.275  19.213  0.00  0.00    +0.000 A 
ATOM      2  N   UNL     1       1.836   7.618  20.315  0.00  0.00    +0.000 NA
ATOM      3  C   UNL     1       1.209   8.785  19.946  0.00  0.00    +0.000 A 
ATOM      4  N   UNL     1       1.404   9.137  18.666  0.00  0.00    +0.000 NA
ATOM      5  O   UNL     1       2.223   8.128  18.173  0.00  0.00    +0.000 OA
ENDROOT
BRANCH   1  10
ATOM      6  C   UNL     1       5.351   5.404  15.737  0.00  0.00    +0.000 C 
ATOM      7  C   UNL     1       4.790   5.105  17.136  0.00  0.00    +0.000 C 
ATOM      8  C   UNL     1       5.937   4.621  18.034  0.00  0.00    +0.000 C 
ATOM      9  C   UNL     1       4.122   6.373  17.663  0.00  0.00    +0.000 C 
ATOM     10  C   UNL     1       3.360   6.121  18.968  0.00  0.00    +0.000 C 
ATOM     11  C   UNL     1       2.619   4.808  18.928  0.00  0.00    +0.000 A 
ATOM     12  C   UNL     1       1.645   4.500  19.898  0.00  0.00    +0.000 A 
ATOM     13  C   UNL     1       0.894   3.329  19.804  0.00  0.00    +0.000 A 
ATOM     14  C   UNL     1       1.127   2.441  18.759  0.00  0.00    +0.000 A 
ATOM     15  C   UNL     1       2.129   2.713  17.827  0.00  0.00    +0.000 A 
ATOM     16  C   UNL     1       2.883   3.882  17.917  0.00  0.00    +0.000 A 
ATOM     17  O   UNL     1       3.838   4.046  16.954  0.00  0.00    +0.000 OA
ENDBRANCH   1  10
BRANCH   3  18
ATOM     18  C   UNL     1       0.466   9.578  20.907  0.00  0.00    +0.000 A 
ATOM     19  C   UNL     1       0.388   9.184  22.253  0.00  0.00    +0.000 A 
ATOM     20  C   UNL     1      -0.375   9.897  23.184  0.00  0.00    +0.000 A 
ATOM     21  C   UNL     1      -1.056  11.014  22.701  0.00  0.00    +0.000 A 
ATOM     22  N   UNL     1      -1.905  11.909  23.299  0.00  0.00    +0.000 N 
ATOM     23  C   UNL     1      -2.310  12.804  22.350  0.00  0.00    +0.000 A 
ATOM     24  N   UNL     1      -1.767  12.557  21.183  0.00  0.00    +0.000 NA
ATOM     25  C   UNL     1      -0.990  11.442  21.380  0.00  0.00    +0.000 A 
ATOM     26  C   UNL     1      -0.211  10.727  20.466  0.00  0.00    +0.000 A 
ATOM     27  H   UNL     1      -2.193  11.897  24.264  0.00  0.00    +0.000 HD
ENDBRANCH   3  18
TORSDOF 2
ENDMDL
MODEL 2
REMARK VINA RESULT:      -9.7      0.996      1.587
REMARK  Name = 
REMARK  4 active torsions:
REMARK  status: ('A' for Active; 'I' for Inactive)
REMARK    1  A    between atoms: C_1  and  C_2
REMARK    2  A    between atoms: C_2  and  C_3
REMARK    3  A    between atoms: C_5  and  C_6
REMARK    4  A    between atoms: C_8  and  C_9
REMARK                            x       y       z     vdW  Elec       q    Type
REMARK                         _______ _______ _______ _____ _____    ______ ____
ROOT
ATOM      1  C   UNL     1       2.815   7.488  18.293  0.00  0.00    +0.000 A 
ATOM      2  N   UNL     1       1.983   7.872  19.227  0.00  0.00    +0.000 NA
ATOM      3  C   UNL     1       1.478   9.041  18.705  0.00  0.00    +0.000 A 
ATOM      4  N   UNL     1       1.953   9.353  17.490  0.00  0.00    +0.000 NA
ATOM      5  O   UNL     1       2.835   8.316  17.208  0.00  0.00    +0.000 OA
ENDROOT
BRANCH   1  10
ATOM      6  C   UNL     1       5.918   5.141  15.320  0.00  0.00    +0.000 C 
ATOM      7  C   UNL     1       5.264   5.044  16.707  0.00  0.00    +0.000 C 
ATOM      8  C   UNL     1       6.344   4.695  17.739  0.00  0.00    +0.000 C 
ATOM      9  C   UNL     1       4.574   6.375  17.002  0.00  0.00    +0.000 C 
ATOM     10  C   UNL     1       3.725   6.311  18.276  0.00  0.00    +0.000 C 
ATOM     11  C   UNL     1       2.976   5.006  18.375  0.00  0.00    +0.000 A 
ATOM     12  C   UNL     1       1.938   4.839  19.312  0.00  0.00    +0.000 A 
ATOM     13  C   UNL     1       1.183   3.666  19.336  0.00  0.00    +0.000 A 
ATOM     14  C   UNL     1       1.477   2.639  18.447  0.00  0.00    +0.000 A 
ATOM     15  C   UNL     1       2.541   2.775  17.554  0.00  0.00    +0.000 A 
ATOM     16  C   UNL     1       3.298   3.945  17.526  0.00  0.00    +0.000 A 
ATOM     17  O   UNL     1       4.315   3.970  16.615  0.00  0.00    +0.000 OA
ENDBRANCH   1  10
BRANCH   3  18
ATOM     18  C   UNL     1       0.565   9.873  19.465  0.00  0.00    +0.000 A 
ATOM     19  C   UNL     1      -0.297  10.770  18.814  0.00  0.00    +0.000 A 
ATOM     20  C   UNL     1      -1.140  11.629  19.529  0.00  0.00    +0.000 A 
ATOM     21  C   UNL     1      -1.071  11.548  20.920  0.00  0.00    +0.000 A 
ATOM     22  N   UNL     1      -1.706  12.239  21.918  0.00  0.00    +0.000 N 
ATOM     23  C   UNL     1      -1.246  11.768  23.116  0.00  0.00    +0.000 A 
ATOM     24  N   UNL     1      -0.370  10.807  22.957  0.00  0.00    +0.000 NA
ATOM     25  C   UNL     1      -0.241  10.662  21.598  0.00  0.00    +0.000 A 
ATOM     26  C   UNL     1       0.583   9.800  20.869  0.00  0.00    +0.000 A 
ATOM     27  H   UNL     1      -2.380  12.977  21.791  0.00  0.00    +0.000 HD
ENDBRANCH   3  18
TORSDOF 2
ENDMDL
MODEL 3
REMARK VINA RESULT:      -9.4      2.415      3.087
REMARK  Name = 
REMARK  4 active torsions:
REMARK  status: ('A' for Active; 'I' for Inactive)
REMARK    1  A    between atoms: C_1  and  C_2
REMARK    2  A    between atoms: C_2  and  C_3
REMARK    3  A    between atoms: C_5  and  C_6
REMARK    4  A    between atoms: C_8  and  C_9
REMARK                            x       y       z     vdW  Elec       q    Type
REMARK                         _______ _______ _______ _____ _____    ______ ____
ROOT
ATOM      1  C   UNL     1       2.126   7.806  19.292  0.00  0.00    +0.000 A 
ATOM      2  N   UNL     1       1.338   8.399  18.432  0.00  0.00    +0.000 NA
ATOM      3  C   UNL     1       0.610   9.244  19.238  0.00  0.00    +0.000 A 
ATOM      4  N   UNL     1       0.949   9.198  20.535  0.00  0.00    +0.000 NA
ATOM      5  O   UNL     1       1.965   8.250  20.573  0.00  0.00    +0.000 OA
ENDROOT
BRANCH   1  10
ATOM      6  C   UNL     1       5.133   6.119  15.816  0.00  0.00    +0.000 C 
ATOM      7  C   UNL     1       4.618   5.803  17.229  0.00  0.00    +0.000 C 
ATOM      8  C   UNL     1       5.813   5.441  18.119  0.00  0.00    +0.000 C 
ATOM      9  C   UNL     1       3.848   7.020  17.739  0.00  0.00    +0.000 C 
ATOM     10  C   UNL     1       3.127   6.730  19.058  0.00  0.00    +0.000 C 
ATOM     11  C   UNL     1       2.503   5.358  19.057  0.00  0.00    +0.000 A 
ATOM     12  C   UNL     1       1.571   4.986  20.046  0.00  0.00    +0.000 A 
ATOM     13  C   UNL     1       0.924   3.753  19.987  0.00  0.00    +0.000 A 
ATOM     14  C   UNL     1       1.221   2.866  18.957  0.00  0.00    +0.000 A 
ATOM     15  C   UNL     1       2.184   3.204  18.005  0.00  0.00    +0.000 A 
ATOM     16  C   UNL     1       2.834   4.436  18.061  0.00  0.00    +0.000 A 
ATOM     17  O   UNL     1       3.759   4.661  17.082  0.00  0.00    +0.000 OA
ENDBRANCH   1  10
BRANCH   3  18
ATOM     18  C   UNL     1      -0.472  10.048  18.704  0.00  0.00    +0.000 A 
ATOM     19  C   UNL     1      -0.951  11.164  19.409  0.00  0.00    +0.000 A 
ATOM     20  C   UNL     1      -2.037  11.915  18.945  0.00  0.00    +0.000 A 
ATOM     21  C   UNL     1      -2.618  11.491  17.749  0.00  0.00    +0.000 A 
ATOM     22  N   UNL     1      -3.690  11.950  17.029  0.00  0.00    +0.000 N 
ATOM     23  C   UNL     1      -3.840  11.144  15.937  0.00  0.00    +0.000 A 
ATOM     24  N   UNL     1      -2.926  10.207  15.893  0.00  0.00    +0.000 NA
ATOM     25  C   UNL     1      -2.161  10.401  17.017  0.00  0.00    +0.000 A 
ATOM     26  C   UNL     1      -1.067   9.671  17.487  0.00  0.00    +0.000 A 
ATOM     27  H   UNL     1      -4.276  12.733  17.274  0.00  0.00    +0.000 HD
ENDBRANCH   3  18
TORSDOF 2
ENDMDL
MODEL 4
REMARK VINA RESULT:      -9.4      1.432      3.200
REMARK  Name = 
REMARK  4 active torsions:
REMARK  status: ('A' for Active; 'I' for Inactive)
REMARK    1  A    between atoms: C_1  and  C_2
REMARK    2  A    between atoms: C_2  and  C_3
REMARK    3  A    between atoms: C_5  and  C_6
REMARK    4  A    between atoms: C_8  and  C_9
REMARK                            x       y       z     vdW  Elec       q    Type
REMARK                         _______ _______ _______ _____ _____    ______ ____
ROOT
ATOM      1  C   UNL     1       2.712   6.888  18.499  0.00  0.00    +0.000 A 
ATOM      2  N   UNL     1       2.098   7.149  19.625  0.00  0.00    +0.000 NA
ATOM      3  C   UNL     1       1.635   8.428  19.416  0.00  0.00    +0.000 A 
ATOM      4  N   UNL     1       1.925   8.929  18.206  0.00  0.00    +0.000 NA
ATOM      5  O   UNL     1       2.631   7.903  17.589  0.00  0.00    +0.000 OA
ENDROOT
BRANCH   1  10
ATOM      6  C   UNL     1       3.885   2.445  20.188  0.00  0.00    +0.000 C 
ATOM      7  C   UNL     1       4.158   3.408  19.022  0.00  0.00    +0.000 C 
ATOM      8  C   UNL     1       4.050   2.630  17.704  0.00  0.00    +0.000 C 
ATOM      9  C   UNL     1       3.159   4.560  19.111  0.00  0.00    +0.000 C 
ATOM     10  C   UNL     1       3.477   5.674  18.109  0.00  0.00    +0.000 C 
ATOM     11  C   UNL     1       4.959   5.933  18.024  0.00  0.00    +0.000 A 
ATOM     12  C   UNL     1       5.456   7.082  17.378  0.00  0.00    +0.000 A 
ATOM     13  C   UNL     1       6.821   7.369  17.385  0.00  0.00    +0.000 A 
ATOM     14  C   UNL     1       7.705   6.497  18.010  0.00  0.00    +0.000 A 
ATOM     15  C   UNL     1       7.227   5.328  18.604  0.00  0.00    +0.000 A 
ATOM     16  C   UNL     1       5.864   5.037  18.599  0.00  0.00    +0.000 A 
ATOM     17  O   UNL     1       5.506   3.867  19.205  0.00  0.00    +0.000 OA
ENDBRANCH   1  10
BRANCH   3  18
ATOM     18  C   UNL     1       0.959   9.166  20.466  0.00  0.00    +0.000 A 
ATOM     19  C   UNL     1       1.072   8.767  21.808  0.00  0.00    +0.000 A 
ATOM     20  C   UNL     1       0.377   9.424  22.830  0.00  0.00    +0.000 A 
ATOM     21  C   UNL     1      -0.436  10.490  22.440  0.00  0.00    +0.000 A 
ATOM     22  N   UNL     1      -1.268  11.322  23.143  0.00  0.00    +0.000 N 
ATOM     23  C   UNL     1      -1.848  12.184  22.256  0.00  0.00    +0.000 A 
ATOM     24  N   UNL     1      -1.432  11.977  21.031  0.00  0.00    +0.000 NA
ATOM     25  C   UNL     1      -0.560  10.920  21.124  0.00  0.00    +0.000 A 
ATOM     26  C   UNL     1       0.153  10.263  20.118  0.00  0.00    +0.000 A 
ATOM     27  H   UNL     1      -1.437  11.289  24.136  0.00  0.00    +0.000 HD
ENDBRANCH   3  18
TORSDOF 2
ENDMDL
MODEL 5
REMARK VINA RESULT:      -9.4      0.969      1.097
REMARK  Name = 
REMARK  4 active torsions:
REMARK  status: ('A' for Active; 'I' for Inactive)
REMARK    1  A    between atoms: C_1  and  C_2
REMARK    2  A    between atoms: C_2  and  C_3
REMARK    3  A    between atoms: C_5  and  C_6
REMARK    4  A    between atoms: C_8  and  C_9
REMARK                            x       y       z     vdW  Elec       q    Type
REMARK                         _______ _______ _______ _____ _____    ______ ____
ROOT
ATOM      1  C   UNL     1       2.779   7.475  18.364  0.00  0.00    +0.000 A 
ATOM      2  N   UNL     1       2.043   7.885  19.365  0.00  0.00    +0.000 NA
ATOM      3  C   UNL     1       1.487   9.040  18.865  0.00  0.00    +0.000 A 
ATOM      4  N   UNL     1       1.840   9.320  17.602  0.00  0.00    +0.000 NA
ATOM      5  O   UNL     1       2.690   8.274  17.261  0.00  0.00    +0.000 OA
ENDROOT
BRANCH   1  10
ATOM      6  C   UNL     1       5.746   5.174  15.221  0.00  0.00    +0.000 C 
ATOM      7  C   UNL     1       5.151   5.054  16.633  0.00  0.00    +0.000 C 
ATOM      8  C   UNL     1       6.273   4.684  17.612  0.00  0.00    +0.000 C 
ATOM      9  C   UNL     1       4.478   6.381  16.980  0.00  0.00    +0.000 C 
ATOM     10  C   UNL     1       3.684   6.296  18.287  0.00  0.00    +0.000 C 
ATOM     11  C   UNL     1       2.936   4.992  18.395  0.00  0.00    +0.000 A 
ATOM     12  C   UNL     1       1.938   4.810  19.372  0.00  0.00    +0.000 A 
ATOM     13  C   UNL     1       1.182   3.639  19.408  0.00  0.00    +0.000 A 
ATOM     14  C   UNL     1       1.435   2.626  18.489  0.00  0.00    +0.000 A 
ATOM     15  C   UNL     1       2.460   2.776  17.554  0.00  0.00    +0.000 A 
ATOM     16  C   UNL     1       3.218   3.945  17.515  0.00  0.00    +0.000 A 
ATOM     17  O   UNL     1       4.197   3.984  16.563  0.00  0.00    +0.000 OA
ENDBRANCH   1  10
BRANCH   3  18
ATOM     18  C   UNL     1       0.653   9.893  19.690  0.00  0.00    +0.000 A 
ATOM     19  C   UNL     1       0.793   9.897  21.087  0.00  0.00    +0.000 A 
ATOM     20  C   UNL     1      -0.044  10.663  21.907  0.00  0.00    +0.000 A 
ATOM     21  C   UNL     1      -1.026  11.415  21.260  0.00  0.00    +0.000 A 
ATOM     22  N   UNL     1      -2.019  12.235  21.728  0.00  0.00    +0.000 N 
ATOM     23  C   UNL     1      -2.718  12.705  20.652  0.00  0.00    +0.000 A 
ATOM     24  N   UNL     1      -2.232  12.257  19.521  0.00  0.00    +0.000 NA
ATOM     25  C   UNL     1      -1.183  11.446  19.879  0.00  0.00    +0.000 A 
ATOM     26  C   UNL     1      -0.330  10.687  19.074  0.00  0.00    +0.000 A 
ATOM     27  H   UNL     1      -2.211  12.439  22.696  0.00  0.00    +0.000 HD
ENDBRANCH   3  18
TORSDOF 2
ENDMDL
MODEL 6
REMARK VINA RESULT:      -9.2      1.638      3.557
REMARK  Name = 
REMARK  4 active torsions:
REMARK  status: ('A' for Active; 'I' for Inactive)
REMARK    1  A    between atoms: C_1  and  C_2
REMARK    2  A    between atoms: C_2  and  C_3
REMARK    3  A    between atoms: C_5  and  C_6
REMARK    4  A    between atoms: C_8  and  C_9
REMARK                            x       y       z     vdW  Elec       q    Type
REMARK                         _______ _______ _______ _____ _____    ______ ____
ROOT
ATOM      1  C   UNL     1       2.853   7.150  18.005  0.00  0.00    +0.000 A 
ATOM      2  N   UNL     1       2.142   7.558  19.025  0.00  0.00    +0.000 NA
ATOM      3  C   UNL     1       1.768   8.823  18.634  0.00  0.00    +0.000 A 
ATOM      4  N   UNL     1       2.203   9.174  17.414  0.00  0.00    +0.000 NA
ATOM      5  O   UNL     1       2.916   8.059  16.989  0.00  0.00    +0.000 OA
ENDROOT
BRANCH   1  10
ATOM      6  C   UNL     1       3.479   2.809  20.181  0.00  0.00    +0.000 C 
ATOM      7  C   UNL     1       3.985   3.657  19.003  0.00  0.00    +0.000 C 
ATOM      8  C   UNL     1       4.030   2.779  17.746  0.00  0.00    +0.000 C 
ATOM      9  C   UNL     1       3.057   4.861  18.850  0.00  0.00    +0.000 C 
ATOM     10  C   UNL     1       3.592   5.871  17.830  0.00  0.00    +0.000 C 
ATOM     11  C   UNL     1       5.083   6.048  17.959  0.00  0.00    +0.000 A 
ATOM     12  C   UNL     1       5.742   7.114  17.316  0.00  0.00    +0.000 A 
ATOM     13  C   UNL     1       7.105   7.332  17.515  0.00  0.00    +0.000 A 
ATOM     14  C   UNL     1       7.829   6.472  18.333  0.00  0.00    +0.000 A 
ATOM     15  C   UNL     1       7.195   5.381  18.929  0.00  0.00    +0.000 A 
ATOM     16  C   UNL     1       5.833   5.159  18.733  0.00  0.00    +0.000 A 
ATOM     17  O   UNL     1       5.316   4.062  19.360  0.00  0.00    +0.000 OA
ENDBRANCH   1  10
BRANCH   3  18
ATOM     18  C   UNL     1       1.027   9.699  19.521  0.00  0.00    +0.000 A 
ATOM     19  C   UNL     1       0.887  11.065  19.226  0.00  0.00    +0.000 A 
ATOM     20  C   UNL     1       0.232  11.941  20.099  0.00  0.00    +0.000 A 
ATOM     21  C   UNL     1      -0.266  11.384  21.278  0.00  0.00    +0.000 A 
ATOM     22  N   UNL     1      -0.916  11.928  22.354  0.00  0.00    +0.000 N 
ATOM     23  C   UNL     1      -1.159  10.926  23.251  0.00  0.00    +0.000 A 
ATOM     24  N   UNL     1      -0.725   9.769  22.817  0.00  0.00    +0.000 NA
ATOM     25  C   UNL     1      -0.158  10.035  21.595  0.00  0.00    +0.000 A 
ATOM     26  C   UNL     1       0.485   9.170  20.705  0.00  0.00    +0.000 A 
ATOM     27  H   UNL     1      -1.156  12.900  22.472  0.00  0.00    +0.000 HD
ENDBRANCH   3  18
TORSDOF 2
ENDMDL
MODEL 7
REMARK VINA RESULT:      -9.1      2.995      8.414
REMARK  Name = 
REMARK  4 active torsions:
REMARK  status: ('A' for Active; 'I' for Inactive)
REMARK    1  A    between atoms: C_1  and  C_2
REMARK    2  A    between atoms: C_2  and  C_3
REMARK    3  A    between atoms: C_5  and  C_6
REMARK    4  A    between atoms: C_8  and  C_9
REMARK                            x       y       z     vdW  Elec       q    Type
REMARK                         _______ _______ _______ _____ _____    ______ ____
ROOT
ATOM      1  C   UNL     1       1.368   9.508  18.726  0.00  0.00    +0.000 A 
ATOM      2  N   UNL     1       1.979   8.784  17.823  0.00  0.00    +0.000 NA
ATOM      3  C   UNL     1       2.341   7.668  18.541  0.00  0.00    +0.000 A 
ATOM      4  N   UNL     1       1.949   7.685  19.824  0.00  0.00    +0.000 NA
ATOM      5  O   UNL     1       1.292   8.904  19.947  0.00  0.00    +0.000 OA
ENDROOT
BRANCH   1  10
ATOM      6  C   UNL     1       0.490  13.525  21.384  0.00  0.00    +0.000 C 
ATOM      7  C   UNL     1       0.249  12.917  19.993  0.00  0.00    +0.000 C 
ATOM      8  C   UNL     1       0.584  13.970  18.929  0.00  0.00    +0.000 C 
ATOM      9  C   UNL     1       1.104  11.658  19.869  0.00  0.00    +0.000 C 
ATOM     10  C   UNL     1       0.784  10.870  18.595  0.00  0.00    +0.000 C 
ATOM     11  C   UNL     1      -0.699  10.834  18.327  0.00  0.00    +0.000 A 
ATOM     12  C   UNL     1      -1.240   9.950  17.373  0.00  0.00    +0.000 A 
ATOM     13  C   UNL     1      -2.619   9.850  17.196  0.00  0.00    +0.000 A 
ATOM     14  C   UNL     1      -3.471  10.652  17.947  0.00  0.00    +0.000 A 
ATOM     15  C   UNL     1      -2.941  11.571  18.854  0.00  0.00    +0.000 A 
ATOM     16  C   UNL     1      -1.563  11.674  19.034  0.00  0.00    +0.000 A 
ATOM     17  O   UNL     1      -1.153  12.607  19.944  0.00  0.00    +0.000 OA
ENDBRANCH   1  10
BRANCH   3  18
ATOM     18  C   UNL     1       3.141   6.615  17.945  0.00  0.00    +0.000 A 
ATOM     19  C   UNL     1       2.736   5.273  18.027  0.00  0.00    +0.000 A 
ATOM     20  C   UNL     1       3.523   4.235  17.516  0.00  0.00    +0.000 A 
ATOM     21  C   UNL     1       4.733   4.607  16.928  0.00  0.00    +0.000 A 
ATOM     22  N   UNL     1       5.749   3.879  16.367  0.00  0.00    +0.000 N 
ATOM     23  C   UNL     1       6.718   4.752  15.962  0.00  0.00    +0.000 A 
ATOM     24  N   UNL     1       6.388   5.996  16.207  0.00  0.00    +0.000 NA
ATOM     25  C   UNL     1       5.159   5.925  16.816  0.00  0.00    +0.000 A 
ATOM     26  C   UNL     1       4.354   6.951  17.318  0.00  0.00    +0.000 A 
ATOM     27  H   UNL     1       5.784   2.875  16.286  0.00  0.00    +0.000 HD
ENDBRANCH   3  18
TORSDOF 2
ENDMDL
MODEL 8
REMARK VINA RESULT:      -9.1      2.076      2.449
REMARK  Name = 
REMARK  4 active torsions:
REMARK  status: ('A' for Active; 'I' for Inactive)
REMARK    1  A    between atoms: C_1  and  C_2
REMARK    2  A    between atoms: C_2  and  C_3
REMARK    3  A    between atoms: C_5  and  C_6
REMARK    4  A    between atoms: C_8  and  C_9
REMARK                            x       y       z     vdW  Elec       q    Type
REMARK                         _______ _______ _______ _____ _____    ______ ____
ROOT
ATOM      1  C   UNL     1       2.375   7.173  19.680  0.00  0.00    +0.000 A 
ATOM      2  N   UNL     1       2.069   8.236  18.981  0.00  0.00    +0.000 NA
ATOM      3  C   UNL     1       1.197   8.895  19.817  0.00  0.00    +0.000 A 
ATOM      4  N   UNL     1       0.992   8.283  20.993  0.00  0.00    +0.000 NA
ATOM      5  O   UNL     1       1.783   7.142  20.909  0.00  0.00    +0.000 OA
ENDROOT
BRANCH   1  10
ATOM      6  C   UNL     1       5.128   5.555  15.969  0.00  0.00    +0.000 C 
ATOM      7  C   UNL     1       4.596   5.143  17.350  0.00  0.00    +0.000 C 
ATOM      8  C   UNL     1       5.752   4.551  18.167  0.00  0.00    +0.000 C 
ATOM      9  C   UNL     1       3.978   6.375  18.009  0.00  0.00    +0.000 C 
ATOM     10  C   UNL     1       3.243   6.024  19.306  0.00  0.00    +0.000 C 
ATOM     11  C   UNL     1       2.465   4.740  19.169  0.00  0.00    +0.000 A 
ATOM     12  C   UNL     1       1.508   4.368  20.134  0.00  0.00    +0.000 A 
ATOM     13  C   UNL     1       0.722   3.230  19.955  0.00  0.00    +0.000 A 
ATOM     14  C   UNL     1       0.903   2.436  18.829  0.00  0.00    +0.000 A 
ATOM     15  C   UNL     1       1.888   2.766  17.896  0.00  0.00    +0.000 A 
ATOM     16  C   UNL     1       2.676   3.903  18.071  0.00  0.00    +0.000 A 
ATOM     17  O   UNL     1       3.610   4.130  17.100  0.00  0.00    +0.000 OA
ENDBRANCH   1  10
BRANCH   3  18
ATOM     18  C   UNL     1       0.522  10.108  19.397  0.00  0.00    +0.000 A 
ATOM     19  C   UNL     1      -0.628  10.046  18.594  0.00  0.00    +0.000 A 
ATOM     20  C   UNL     1      -1.258  11.204  18.124  0.00  0.00    +0.000 A 
ATOM     21  C   UNL     1      -0.678  12.418  18.492  0.00  0.00    +0.000 A 
ATOM     22  N   UNL     1      -0.992  13.719  18.198  0.00  0.00    +0.000 N 
ATOM     23  C   UNL     1      -0.071  14.523  18.806  0.00  0.00    +0.000 A 
ATOM     24  N   UNL     1       0.807  13.829  19.489  0.00  0.00    +0.000 NA
ATOM     25  C   UNL     1       0.450  12.517  19.298  0.00  0.00    +0.000 A 
ATOM     26  C   UNL     1       1.059  11.352  19.772  0.00  0.00    +0.000 A 
ATOM     27  H   UNL     1      -1.757  14.027  17.618  0.00  0.00    +0.000 HD
ENDBRANCH   3  18
TORSDOF 2
ENDMDL
MODEL 9
REMARK VINA RESULT:      -8.8      2.901      8.221
REMARK  Name = 
REMARK  4 active torsions:
REMARK  status: ('A' for Active; 'I' for Inactive)
REMARK    1  A    between atoms: C_1  and  C_2
REMARK    2  A    between atoms: C_2  and  C_3
REMARK    3  A    between atoms: C_5  and  C_6
REMARK    4  A    between atoms: C_8  and  C_9
REMARK                            x       y       z     vdW  Elec       q    Type
REMARK                         _______ _______ _______ _____ _____    ______ ____
ROOT
ATOM      1  C   UNL     1       1.099   9.544  19.446  0.00  0.00    +0.000 A 
ATOM      2  N   UNL     1       1.757   8.660  18.739  0.00  0.00    +0.000 NA
ATOM      3  C   UNL     1       1.957   7.648  19.649  0.00  0.00    +0.000 A 
ATOM      4  N   UNL     1       1.425   7.880  20.858  0.00  0.00    +0.000 NA
ATOM      5  O   UNL     1       0.844   9.136  20.723  0.00  0.00    +0.000 OA
ENDROOT
BRANCH   1  10
ATOM      6  C   UNL     1       0.136  13.936  21.384  0.00  0.00    +0.000 C 
ATOM      7  C   UNL     1       0.046  13.147  20.068  0.00  0.00    +0.000 C 
ATOM      8  C   UNL     1       0.592  14.020  18.931  0.00  0.00    +0.000 C 
ATOM      9  C   UNL     1       0.826  11.844  20.239  0.00  0.00    +0.000 C 
ATOM     10  C   UNL     1       0.630  10.899  19.050  0.00  0.00    +0.000 C 
ATOM     11  C   UNL     1      -0.802  10.894  18.579  0.00  0.00    +0.000 A 
ATOM     12  C   UNL     1      -1.265   9.908  17.685  0.00  0.00    +0.000 A 
ATOM     13  C   UNL     1      -2.611   9.849  17.327  0.00  0.00    +0.000 A 
ATOM     14  C   UNL     1      -3.502  10.789  17.832  0.00  0.00    +0.000 A 
ATOM     15  C   UNL     1      -3.041  11.802  18.674  0.00  0.00    +0.000 A 
ATOM     16  C   UNL     1      -1.696  11.866  19.034  0.00  0.00    +0.000 A 
ATOM     17  O   UNL     1      -1.353  12.899  19.859  0.00  0.00    +0.000 OA
ENDBRANCH   1  10
BRANCH   3  18
ATOM     18  C   UNL     1       2.744   6.477  19.313  0.00  0.00    +0.000 A 
ATOM     19  C   UNL     1       3.566   6.469  18.175  0.00  0.00    +0.000 A 
ATOM     20  C   UNL     1       4.284   5.329  17.795  0.00  0.00    +0.000 A 
ATOM     21  C   UNL     1       4.132   4.203  18.606  0.00  0.00    +0.000 A 
ATOM     22  N   UNL     1       4.640   2.933  18.526  0.00  0.00    +0.000 N 
ATOM     23  C   UNL     1       4.145   2.215  19.578  0.00  0.00    +0.000 A 
ATOM     24  N   UNL     1       3.366   2.942  20.341  0.00  0.00    +0.000 NA
ATOM     25  C   UNL     1       3.339   4.180  19.747  0.00  0.00    +0.000 A 
ATOM     26  C   UNL     1       2.641   5.331  20.121  0.00  0.00    +0.000 A 
ATOM     27  H   UNL     1       5.254   2.585  17.807  0.00  0.00    +0.000 HD
ENDBRANCH   3  18
TORSDOF 2
ENDMDL
