MODEL 1
REMARK VINA RESULT:      -8.5      0.000      0.000
REMARK  Name = 
REMARK  5 active torsions:
REMARK  status: ('A' for Active; 'I' for Inactive)
REMARK    1  A    between atoms: C_1  and  C_2
REMARK    2  A    between atoms: C_4  and  C_5
REMARK    3  A    between atoms: C_9  and  N_10
REMARK    4  A    between atoms: C_19  and  O_20
REMARK    5  A    between atoms: C_26  and  C_27
REMARK                            x       y       z     vdW  Elec       q    Type
REMARK                         _______ _______ _______ _____ _____    ______ ____
ROOT
ATOM      1  N   UNL     1       3.979   7.104  17.131  0.00  0.00    +0.000 N 
ATOM      2  C   UNL     1       3.327   7.034  18.351  0.00  0.00    +0.000 C 
ATOM      3  O   UNL     1       3.482   6.117  19.158  0.00  0.00    +0.000 OA
ATOM      4  N   UNL     1       2.496   8.099  18.699  0.00  0.00    +0.000 N 
ATOM      5  C   UNL     1       2.073   9.195  17.831  0.00  0.00    +0.000 C 
ATOM      6  C   UNL     1       1.436  10.423  18.499  0.00  0.00    +0.000 C 
ATOM      7  C   UNL     1       0.697  10.162  19.779  0.00  0.00    +0.000 A 
ATOM      8  C   UNL     1      -0.198  11.115  20.294  0.00  0.00    +0.000 A 
ATOM      9  C   UNL     1      -0.833  10.910  21.522  0.00  0.00    +0.000 A 
ATOM     10  C   UNL     1      -0.572   9.748  22.235  0.00  0.00    +0.000 A 
ATOM     11  C   UNL     1       0.327   8.809  21.749  0.00  0.00    +0.000 A 
ATOM     12  C   UNL     1       0.977   9.016  20.519  0.00  0.00    +0.000 A 
ATOM     13  C   UNL     1       2.066   8.073  20.100  0.00  0.00    +0.000 C 
ATOM     14  H   UNL     1       3.775   7.879  16.525  0.00  0.00    +0.000 HD
ENDROOT
BRANCH   1  19
ATOM     15  C   UNL     1       5.913   4.682  14.999  0.00  0.00    +0.000 A 
ATOM     16  C   UNL     1       7.088   4.556  15.758  0.00  0.00    +0.000 A 
ATOM     17  C   UNL     1       7.228   5.222  16.963  0.00  0.00    +0.000 A 
ATOM     18  C   UNL     1       6.199   6.038  17.423  0.00  0.00    +0.000 A 
ATOM     19  C   UNL     1       5.016   6.219  16.696  0.00  0.00    +0.000 A 
ATOM     20  C   UNL     1       4.876   5.517  15.477  0.00  0.00    +0.000 A 
BRANCH  15  24
ATOM     21  C   UNL     1       7.186   2.103  10.999  0.00  0.00    +0.000 C 
ATOM     22  C   UNL     1       6.353   2.841  11.971  0.00  0.00    +0.000 A 
ATOM     23  N   UNL     1       6.874   3.313  13.147  0.00  0.00    +0.000 NA
ATOM     24  C   UNL     1       5.877   3.937  13.737  0.00  0.00    +0.000 A 
ATOM     25  O   UNL     1       4.700   3.896  13.035  0.00  0.00    +0.000 OA
ATOM     26  C   UNL     1       5.021   3.198  11.897  0.00  0.00    +0.000 A 
ATOM     27  C   UNL     1       3.969   3.004  10.885  0.00  0.00    +0.000 C 
ENDBRANCH  15  24
ENDBRANCH   1  19
BRANCH  10  28
ATOM     28  O   UNL     1      -1.161   9.506  23.442  0.00  0.00    +0.000 OA
ATOM     29  H   UNL     1      -0.688  10.010  24.125  0.00  0.00    +0.000 HD
ENDBRANCH  10  28
TORSDOF 3
ENDMDL
MODEL 2
REMARK VINA RESULT:      -8.5      2.820      4.844
REMARK  Name = 
REMARK  5 active torsions:
REMARK  status: ('A' for Active; 'I' for Inactive)
REMARK    1  A    between atoms: C_1  and  C_2
REMARK    2  A    between atoms: C_4  and  C_5
REMARK    3  A    between atoms: C_9  and  N_10
REMARK    4  A    between atoms: C_19  and  O_20
REMARK    5  A    between atoms: C_26  and  C_27
REMARK                            x       y       z     vdW  Elec       q    Type
REMARK                         _______ _______ _______ _____ _____    ______ ____
ROOT
ATOM      1  N   UNL     1       1.321   6.977  21.155  0.00  0.00    +0.000 N 
ATOM      2  C   UNL     1       1.270   8.228  20.561  0.00  0.00    +0.000 C 
ATOM      3  O   UNL     1       1.702   8.468  19.434  0.00  0.00    +0.000 OA
ATOM      4  N   UNL     1       0.637   9.251  21.268  0.00  0.00    +0.000 N 
ATOM      5  C   UNL     1       0.195   9.206  22.659  0.00  0.00    +0.000 C 
ATOM      6  C   UNL     1      -0.764  10.308  23.134  0.00  0.00    +0.000 C 
ATOM      7  C   UNL     1      -0.636  11.631  22.438  0.00  0.00    +0.000 A 
ATOM      8  C   UNL     1      -1.202  12.790  22.997  0.00  0.00    +0.000 A 
ATOM      9  C   UNL     1      -1.150  14.011  22.318  0.00  0.00    +0.000 A 
ATOM     10  C   UNL     1      -0.530  14.072  21.078  0.00  0.00    +0.000 A 
ATOM     11  C   UNL     1       0.013  12.930  20.504  0.00  0.00    +0.000 A 
ATOM     12  C   UNL     1      -0.047  11.697  21.178  0.00  0.00    +0.000 A 
ATOM     13  C   UNL     1       0.392  10.452  20.465  0.00  0.00    +0.000 C 
ATOM     14  H   UNL     1       0.963   6.878  22.088  0.00  0.00    +0.000 HD
ENDROOT
BRANCH   1  19
ATOM     15  C   UNL     1       3.386   4.569  19.132  0.00  0.00    +0.000 A 
ATOM     16  C   UNL     1       2.651   3.387  19.317  0.00  0.00    +0.000 A 
ATOM     17  C   UNL     1       1.483   3.386  20.058  0.00  0.00    +0.000 A 
ATOM     18  C   UNL     1       1.035   4.568  20.640  0.00  0.00    +0.000 A 
ATOM     19  C   UNL     1       1.740   5.772  20.508  0.00  0.00    +0.000 A 
ATOM     20  C   UNL     1       2.921   5.764  19.731  0.00  0.00    +0.000 A 
BRANCH  15  24
ATOM     21  C   UNL     1       8.097   4.502  17.694  0.00  0.00    +0.000 C 
ATOM     22  C   UNL     1       6.622   4.428  17.631  0.00  0.00    +0.000 A 
ATOM     23  N   UNL     1       5.853   4.521  18.761  0.00  0.00    +0.000 NA
ATOM     24  C   UNL     1       4.610   4.452  18.334  0.00  0.00    +0.000 A 
ATOM     25  O   UNL     1       4.493   4.294  16.977  0.00  0.00    +0.000 OA
ATOM     26  C   UNL     1       5.794   4.291  16.535  0.00  0.00    +0.000 A 
ATOM     27  C   UNL     1       6.031   4.177  15.087  0.00  0.00    +0.000 C 
ENDBRANCH  15  24
ENDBRANCH   1  19
BRANCH  10  28
ATOM     28  O   UNL     1      -0.460  15.237  20.373  0.00  0.00    +0.000 OA
ATOM     29  H   UNL     1       0.474  15.441  20.200  0.00  0.00    +0.000 HD
ENDBRANCH  10  28
TORSDOF 3
ENDMDL
MODEL 3
REMARK VINA RESULT:      -8.4      3.374      9.767
REMARK  Name = 
REMARK  5 active torsions:
REMARK  status: ('A' for Active; 'I' for Inactive)
REMARK    1  A    between atoms: C_1  and  C_2
REMARK    2  A    between atoms: C_4  and  C_5
REMARK    3  A    between atoms: C_9  and  N_10
REMARK    4  A    between atoms: C_19  and  O_20
REMARK    5  A    between atoms: C_26  and  C_27
REMARK                            x       y       z     vdW  Elec       q    Type
REMARK                         _______ _______ _______ _____ _____    ______ ____
ROOT
ATOM      1  N   UNL     1       1.478   8.454  19.396  0.00  0.00    +0.000 N 
ATOM      2  C   UNL     1       2.282   8.302  18.278  0.00  0.00    +0.000 C 
ATOM      3  O   UNL     1       2.208   9.021  17.281  0.00  0.00    +0.000 OA
ATOM      4  N   UNL     1       3.264   7.314  18.321  0.00  0.00    +0.000 N 
ATOM      5  C   UNL     1       3.415   6.277  19.339  0.00  0.00    +0.000 C 
ATOM      6  C   UNL     1       4.744   5.506  19.373  0.00  0.00    +0.000 C 
ATOM      7  C   UNL     1       5.453   5.365  18.059  0.00  0.00    +0.000 A 
ATOM      8  C   UNL     1       6.475   4.413  17.897  0.00  0.00    +0.000 A 
ATOM      9  C   UNL     1       7.189   4.327  16.698  0.00  0.00    +0.000 A 
ATOM     10  C   UNL     1       6.879   5.194  15.660  0.00  0.00    +0.000 A 
ATOM     11  C   UNL     1       5.887   6.153  15.814  0.00  0.00    +0.000 A 
ATOM     12  C   UNL     1       5.174   6.252  17.022  0.00  0.00    +0.000 A 
ATOM     13  C   UNL     1       4.231   7.402  17.223  0.00  0.00    +0.000 C 
ATOM     14  H   UNL     1       1.592   7.807  20.157  0.00  0.00    +0.000 HD
ENDROOT
BRANCH   1  19
ATOM     15  C   UNL     1      -1.429  10.795  18.922  0.00  0.00    +0.000 A 
ATOM     16  C   UNL     1      -1.319  11.575  20.084  0.00  0.00    +0.000 A 
ATOM     17  C   UNL     1      -0.292  11.363  20.987  0.00  0.00    +0.000 A 
ATOM     18  C   UNL     1       0.638  10.355  20.749  0.00  0.00    +0.000 A 
ATOM     19  C   UNL     1       0.563   9.532  19.617  0.00  0.00    +0.000 A 
ATOM     20  C   UNL     1      -0.478   9.772  18.693  0.00  0.00    +0.000 A 
BRANCH  15  24
ATOM     21  C   UNL     1      -5.787  12.289  17.179  0.00  0.00    +0.000 C 
ATOM     22  C   UNL     1      -4.431  11.704  17.216  0.00  0.00    +0.000 A 
ATOM     23  N   UNL     1      -3.670  11.733  18.355  0.00  0.00    +0.000 NA
ATOM     24  C   UNL     1      -2.559  11.103  18.040  0.00  0.00    +0.000 A 
ATOM     25  O   UNL     1      -2.514  10.666  16.742  0.00  0.00    +0.000 OA
ATOM     26  C   UNL     1      -3.727  11.049  16.225  0.00  0.00    +0.000 A 
ATOM     27  C   UNL     1      -4.028  10.690  14.829  0.00  0.00    +0.000 C 
ENDBRANCH  15  24
ENDBRANCH   1  19
BRANCH  10  28
ATOM     28  O   UNL     1       7.552   5.154  14.474  0.00  0.00    +0.000 OA
ATOM     29  H   UNL     1       7.475   4.260  14.102  0.00  0.00    +0.000 HD
ENDBRANCH  10  28
TORSDOF 3
ENDMDL
MODEL 4
REMARK VINA RESULT:      -8.4      2.726      4.850
REMARK  Name = 
REMARK  5 active torsions:
REMARK  status: ('A' for Active; 'I' for Inactive)
REMARK    1  A    between atoms: C_1  and  C_2
REMARK    2  A    between atoms: C_4  and  C_5
REMARK    3  A    between atoms: C_9  and  N_10
REMARK    4  A    between atoms: C_19  and  O_20
REMARK    5  A    between atoms: C_26  and  C_27
REMARK                            x       y       z     vdW  Elec       q    Type
REMARK                         _______ _______ _______ _____ _____    ______ ____
ROOT
ATOM      1  N   UNL     1       1.390   7.129  21.055  0.00  0.00    +0.000 N 
ATOM      2  C   UNL     1       1.116   8.309  20.384  0.00  0.00    +0.000 C 
ATOM      3  O   UNL     1       1.324   8.476  19.183  0.00  0.00    +0.000 OA
ATOM      4  N   UNL     1       0.516   9.338  21.110  0.00  0.00    +0.000 N 
ATOM      5  C   UNL     1       0.325   9.388  22.557  0.00  0.00    +0.000 C 
ATOM      6  C   UNL     1      -0.643  10.447  23.108  0.00  0.00    +0.000 C 
ATOM      7  C   UNL     1      -0.767  11.704  22.299  0.00  0.00    +0.000 A 
ATOM      8  C   UNL     1      -1.339  12.860  22.858  0.00  0.00    +0.000 A 
ATOM      9  C   UNL     1      -1.524  14.011  22.086  0.00  0.00    +0.000 A 
ATOM     10  C   UNL     1      -1.134  14.006  20.755  0.00  0.00    +0.000 A 
ATOM     11  C   UNL     1      -0.588  12.864  20.184  0.00  0.00    +0.000 A 
ATOM     12  C   UNL     1      -0.410  11.699  20.953  0.00  0.00    +0.000 A 
ATOM     13  C   UNL     1       0.020  10.433  20.272  0.00  0.00    +0.000 C 
ATOM     14  H   UNL     1       1.208   7.089  22.043  0.00  0.00    +0.000 HD
ENDROOT
BRANCH   1  19
ATOM     15  C   UNL     1       3.358   4.706  18.955  0.00  0.00    +0.000 A 
ATOM     16  C   UNL     1       2.729   3.499  19.302  0.00  0.00    +0.000 A 
ATOM     17  C   UNL     1       1.658   3.484  20.178  0.00  0.00    +0.000 A 
ATOM     18  C   UNL     1       1.205   4.676  20.734  0.00  0.00    +0.000 A 
ATOM     19  C   UNL     1       1.809   5.906  20.441  0.00  0.00    +0.000 A 
ATOM     20  C   UNL     1       2.889   5.912  19.529  0.00  0.00    +0.000 A 
BRANCH  15  24
ATOM     21  C   UNL     1       6.106   4.000  14.928  0.00  0.00    +0.000 C 
ATOM     22  C   UNL     1       5.743   4.293  16.330  0.00  0.00    +0.000 A 
ATOM     23  N   UNL     1       4.434   4.366  16.730  0.00  0.00    +0.000 NA
ATOM     24  C   UNL     1       4.485   4.603  18.023  0.00  0.00    +0.000 A 
ATOM     25  O   UNL     1       5.757   4.717  18.520  0.00  0.00    +0.000 OA
ATOM     26  C   UNL     1       6.557   4.505  17.424  0.00  0.00    +0.000 A 
ATOM     27  C   UNL     1       8.016   4.520  17.621  0.00  0.00    +0.000 C 
ENDBRANCH  15  24
ENDBRANCH   1  19
BRANCH  10  28
ATOM     28  O   UNL     1      -1.301  15.101  19.959  0.00  0.00    +0.000 OA
ATOM     29  H   UNL     1      -1.064  14.863  19.047  0.00  0.00    +0.000 HD
ENDBRANCH  10  28
TORSDOF 3
ENDMDL
MODEL 5
REMARK VINA RESULT:      -8.2      4.563      7.244
REMARK  Name = 
REMARK  5 active torsions:
REMARK  status: ('A' for Active; 'I' for Inactive)
REMARK    1  A    between atoms: C_1  and  C_2
REMARK    2  A    between atoms: C_4  and  C_5
REMARK    3  A    between atoms: C_9  and  N_10
REMARK    4  A    between atoms: C_19  and  O_20
REMARK    5  A    between atoms: C_26  and  C_27
REMARK                            x       y       z     vdW  Elec       q    Type
REMARK                         _______ _______ _______ _____ _____    ______ ____
ROOT
ATOM      1  N   UNL     1       0.052  10.245  21.104  0.00  0.00    +0.000 N 
ATOM      2  C   UNL     1       0.321  11.533  21.538  0.00  0.00    +0.000 C 
ATOM      3  O   UNL     1       1.341  12.155  21.242  0.00  0.00    +0.000 OA
ATOM      4  N   UNL     1      -0.655  12.171  22.304  0.00  0.00    +0.000 N 
ATOM      5  C   UNL     1      -1.852  11.561  22.875  0.00  0.00    +0.000 C 
ATOM      6  C   UNL     1      -2.947  12.504  23.397  0.00  0.00    +0.000 C 
ATOM      7  C   UNL     1      -2.478  13.835  23.905  0.00  0.00    +0.000 A 
ATOM      8  C   UNL     1      -3.316  14.631  24.705  0.00  0.00    +0.000 A 
ATOM      9  C   UNL     1      -2.912  15.903  25.120  0.00  0.00    +0.000 A 
ATOM     10  C   UNL     1      -1.667  16.380  24.734  0.00  0.00    +0.000 A 
ATOM     11  C   UNL     1      -0.839  15.613  23.925  0.00  0.00    +0.000 A 
ATOM     12  C   UNL     1      -1.245  14.337  23.496  0.00  0.00    +0.000 A 
ATOM     13  C   UNL     1      -0.409  13.604  22.488  0.00  0.00    +0.000 C 
ATOM     14  H   UNL     1      -0.798   9.806  21.413  0.00  0.00    +0.000 HD
ENDROOT
BRANCH   1  19
ATOM     15  C   UNL     1       2.057   7.473  19.540  0.00  0.00    +0.000 A 
ATOM     16  C   UNL     1       2.269   8.004  18.257  0.00  0.00    +0.000 A 
ATOM     17  C   UNL     1       1.796   9.261  17.923  0.00  0.00    +0.000 A 
ATOM     18  C   UNL     1       1.090  10.005  18.864  0.00  0.00    +0.000 A 
ATOM     19  C   UNL     1       0.830   9.514  20.151  0.00  0.00    +0.000 A 
ATOM     20  C   UNL     1       1.335   8.238  20.487  0.00  0.00    +0.000 A 
BRANCH  15  24
ATOM     21  C   UNL     1       4.664   3.305  19.225  0.00  0.00    +0.000 C 
ATOM     22  C   UNL     1       3.667   4.290  19.694  0.00  0.00    +0.000 A 
ATOM     23  N   UNL     1       3.605   5.552  19.165  0.00  0.00    +0.000 NA
ATOM     24  C   UNL     1       2.596   6.131  19.781  0.00  0.00    +0.000 A 
ATOM     25  O   UNL     1       1.983   5.338  20.716  0.00  0.00    +0.000 OA
ATOM     26  C   UNL     1       2.674   4.153  20.643  0.00  0.00    +0.000 A 
ATOM     27  C   UNL     1       2.236   3.044  21.508  0.00  0.00    +0.000 C 
ENDBRANCH  15  24
ENDBRANCH   1  19
BRANCH  10  28
ATOM     28  O   UNL     1      -1.231  17.617  25.107  0.00  0.00    +0.000 OA
ATOM     29  H   UNL     1      -0.439  17.514  25.660  0.00  0.00    +0.000 HD
ENDBRANCH  10  28
TORSDOF 3
ENDMDL
MODEL 6
REMARK VINA RESULT:      -8.2      3.272     10.433
REMARK  Name = 
REMARK  5 active torsions:
REMARK  status: ('A' for Active; 'I' for Inactive)
REMARK    1  A    between atoms: C_1  and  C_2
REMARK    2  A    between atoms: C_4  and  C_5
REMARK    3  A    between atoms: C_9  and  N_10
REMARK    4  A    between atoms: C_19  and  O_20
REMARK    5  A    between atoms: C_26  and  C_27
REMARK                            x       y       z     vdW  Elec       q    Type
REMARK                         _______ _______ _______ _____ _____    ______ ____
ROOT
ATOM      1  N   UNL     1       1.152   9.068  19.460  0.00  0.00    +0.000 N 
ATOM      2  C   UNL     1       1.991   8.900  18.371  0.00  0.00    +0.000 C 
ATOM      3  O   UNL     1       2.169   9.759  17.507  0.00  0.00    +0.000 OA
ATOM      4  N   UNL     1       2.713   7.709  18.291  0.00  0.00    +0.000 N 
ATOM      5  C   UNL     1       2.534   6.524  19.125  0.00  0.00    +0.000 C 
ATOM      6  C   UNL     1       3.642   5.460  19.089  0.00  0.00    +0.000 C 
ATOM      7  C   UNL     1       4.408   5.354  17.803  0.00  0.00    +0.000 A 
ATOM      8  C   UNL     1       5.193   4.221  17.530  0.00  0.00    +0.000 A 
ATOM      9  C   UNL     1       5.967   4.150  16.367  0.00  0.00    +0.000 A 
ATOM     10  C   UNL     1       5.953   5.214  15.477  0.00  0.00    +0.000 A 
ATOM     11  C   UNL     1       5.199   6.349  15.746  0.00  0.00    +0.000 A 
ATOM     12  C   UNL     1       4.429   6.431  16.920  0.00  0.00    +0.000 A 
ATOM     13  C   UNL     1       3.762   7.729  17.268  0.00  0.00    +0.000 C 
ATOM     14  H   UNL     1       1.050   8.304  20.105  0.00  0.00    +0.000 HD
ENDROOT
BRANCH   1  19
ATOM     15  C   UNL     1      -1.531  11.680  19.815  0.00  0.00    +0.000 A 
ATOM     16  C   UNL     1      -0.860  12.629  20.604  0.00  0.00    +0.000 A 
ATOM     17  C   UNL     1       0.457  12.434  20.982  0.00  0.00    +0.000 A 
ATOM     18  C   UNL     1       1.123  11.277  20.587  0.00  0.00    +0.000 A 
ATOM     19  C   UNL     1       0.495  10.287  19.819  0.00  0.00    +0.000 A 
ATOM     20  C   UNL     1      -0.843  10.508  19.422  0.00  0.00    +0.000 A 
BRANCH  15  24
ATOM     21  C   UNL     1      -6.228  13.149  20.040  0.00  0.00    +0.000 C 
ATOM     22  C   UNL     1      -4.973  12.579  19.507  0.00  0.00    +0.000 A 
ATOM     23  N   UNL     1      -3.812  12.602  20.234  0.00  0.00    +0.000 NA
ATOM     24  C   UNL     1      -2.925  11.988  19.480  0.00  0.00    +0.000 A 
ATOM     25  O   UNL     1      -3.415  11.568  18.271  0.00  0.00    +0.000 OA
ATOM     26  C   UNL     1      -4.735  11.944  18.304  0.00  0.00    +0.000 A 
ATOM     27  C   UNL     1      -5.581  11.600  17.149  0.00  0.00    +0.000 C 
ENDBRANCH  15  24
ENDBRANCH   1  19
BRANCH  10  28
ATOM     28  O   UNL     1       6.696   5.196  14.334  0.00  0.00    +0.000 OA
ATOM     29  H   UNL     1       7.622   5.017  14.568  0.00  0.00    +0.000 HD
ENDBRANCH  10  28
TORSDOF 3
ENDMDL
MODEL 7
REMARK VINA RESULT:      -8.2      3.167     10.508
REMARK  Name = 
REMARK  5 active torsions:
REMARK  status: ('A' for Active; 'I' for Inactive)
REMARK    1  A    between atoms: C_1  and  C_2
REMARK    2  A    between atoms: C_4  and  C_5
REMARK    3  A    between atoms: C_9  and  N_10
REMARK    4  A    between atoms: C_19  and  O_20
REMARK    5  A    between atoms: C_26  and  C_27
REMARK                            x       y       z     vdW  Elec       q    Type
REMARK                         _______ _______ _______ _____ _____    ______ ____
ROOT
ATOM      1  N   UNL     1       1.135   9.102  19.460  0.00  0.00    +0.000 N 
ATOM      2  C   UNL     1       1.969   8.921  18.369  0.00  0.00    +0.000 C 
ATOM      3  O   UNL     1       2.120   9.757  17.478  0.00  0.00    +0.000 OA
ATOM      4  N   UNL     1       2.718   7.746  18.319  0.00  0.00    +0.000 N 
ATOM      5  C   UNL     1       2.574   6.582  19.190  0.00  0.00    +0.000 C 
ATOM      6  C   UNL     1       3.707   5.544  19.177  0.00  0.00    +0.000 C 
ATOM      7  C   UNL     1       4.465   5.417  17.888  0.00  0.00    +0.000 A 
ATOM      8  C   UNL     1       5.274   4.295  17.642  0.00  0.00    +0.000 A 
ATOM      9  C   UNL     1       6.040   4.207  16.476  0.00  0.00    +0.000 A 
ATOM     10  C   UNL     1       5.993   5.243  15.554  0.00  0.00    +0.000 A 
ATOM     11  C   UNL     1       5.215   6.367  15.795  0.00  0.00    +0.000 A 
ATOM     12  C   UNL     1       4.452   6.466  16.972  0.00  0.00    +0.000 A 
ATOM     13  C   UNL     1       3.758   7.759  17.287  0.00  0.00    +0.000 C 
ATOM     14  H   UNL     1       1.057   8.356  20.129  0.00  0.00    +0.000 HD
ENDROOT
BRANCH   1  19
ATOM     15  C   UNL     1      -1.607  11.660  19.761  0.00  0.00    +0.000 A 
ATOM     16  C   UNL     1      -0.952  12.648  20.513  0.00  0.00    +0.000 A 
ATOM     17  C   UNL     1       0.373  12.496  20.884  0.00  0.00    +0.000 A 
ATOM     18  C   UNL     1       1.062  11.344  20.518  0.00  0.00    +0.000 A 
ATOM     19  C   UNL     1       0.452  10.316  19.787  0.00  0.00    +0.000 A 
ATOM     20  C   UNL     1      -0.895  10.493  19.397  0.00  0.00    +0.000 A 
BRANCH  15  24
ATOM     21  C   UNL     1      -5.916  12.017  17.399  0.00  0.00    +0.000 C 
ATOM     22  C   UNL     1      -4.902  12.132  18.468  0.00  0.00    +0.000 A 
ATOM     23  N   UNL     1      -3.643  11.611  18.320  0.00  0.00    +0.000 NA
ATOM     24  C   UNL     1      -3.011  11.924  19.430  0.00  0.00    +0.000 A 
ATOM     25  O   UNL     1      -3.777  12.612  20.335  0.00  0.00    +0.000 OA
ATOM     26  C   UNL     1      -4.988  12.750  19.700  0.00  0.00    +0.000 A 
ATOM     27  C   UNL     1      -6.051  13.493  20.395  0.00  0.00    +0.000 C 
ENDBRANCH  15  24
ENDBRANCH   1  19
BRANCH  10  28
ATOM     28  O   UNL     1       6.728   5.207  14.405  0.00  0.00    +0.000 OA
ATOM     29  H   UNL     1       7.659   5.053  14.636  0.00  0.00    +0.000 HD
ENDBRANCH  10  28
TORSDOF 3
ENDMDL
MODEL 8
REMARK VINA RESULT:      -8.2      1.567      2.216
REMARK  Name = 
REMARK  5 active torsions:
REMARK  status: ('A' for Active; 'I' for Inactive)
REMARK    1  A    between atoms: C_1  and  C_2
REMARK    2  A    between atoms: C_4  and  C_5
REMARK    3  A    between atoms: C_9  and  N_10
REMARK    4  A    between atoms: C_19  and  O_20
REMARK    5  A    between atoms: C_26  and  C_27
REMARK                            x       y       z     vdW  Elec       q    Type
REMARK                         _______ _______ _______ _____ _____    ______ ____
ROOT
ATOM      1  N   UNL     1       2.783   7.515  18.299  0.00  0.00    +0.000 N 
ATOM      2  C   UNL     1       2.061   7.757  19.457  0.00  0.00    +0.000 C 
ATOM      3  O   UNL     1       2.039   6.992  20.421  0.00  0.00    +0.000 OA
ATOM      4  N   UNL     1       1.373   8.966  19.545  0.00  0.00    +0.000 N 
ATOM      5  C   UNL     1       1.159   9.929  18.467  0.00  0.00    +0.000 C 
ATOM      6  C   UNL     1       0.667  11.331  18.857  0.00  0.00    +0.000 C 
ATOM      7  C   UNL     1      -0.171  11.409  20.099  0.00  0.00    +0.000 A 
ATOM      8  C   UNL     1      -0.948  12.550  20.366  0.00  0.00    +0.000 A 
ATOM      9  C   UNL     1      -1.673  12.658  21.557  0.00  0.00    +0.000 A 
ATOM     10  C   UNL     1      -1.621  11.624  22.480  0.00  0.00    +0.000 A 
ATOM     11  C   UNL     1      -0.839  10.502  22.239  0.00  0.00    +0.000 A 
ATOM     12  C   UNL     1      -0.099  10.393  21.048  0.00  0.00    +0.000 A 
ATOM     13  C   UNL     1       0.867   9.255  20.889  0.00  0.00    +0.000 C 
ATOM     14  H   UNL     1       2.726   8.185  17.553  0.00  0.00    +0.000 HD
ENDROOT
BRANCH   1  19
ATOM     15  C   UNL     1       5.276   5.226  16.657  0.00  0.00    +0.000 A 
ATOM     16  C   UNL     1       5.610   4.395  17.739  0.00  0.00    +0.000 A 
ATOM     17  C   UNL     1       5.003   4.557  18.972  0.00  0.00    +0.000 A 
ATOM     18  C   UNL     1       4.060   5.565  19.148  0.00  0.00    +0.000 A 
ATOM     19  C   UNL     1       3.706   6.437  18.110  0.00  0.00    +0.000 A 
ATOM     20  C   UNL     1       4.317   6.248  16.850  0.00  0.00    +0.000 A 
BRANCH  15  24
ATOM     21  C   UNL     1       8.390   5.499  12.850  0.00  0.00    +0.000 C 
ATOM     22  C   UNL     1       7.282   5.034  13.709  0.00  0.00    +0.000 A 
ATOM     23  N   UNL     1       7.052   5.587  14.941  0.00  0.00    +0.000 NA
ATOM     24  C   UNL     1       5.986   4.967  15.400  0.00  0.00    +0.000 A 
ATOM     25  O   UNL     1       5.491   4.007  14.556  0.00  0.00    +0.000 OA
ATOM     26  C   UNL     1       6.326   4.067  13.467  0.00  0.00    +0.000 A 
ATOM     27  C   UNL     1       6.045   3.174  12.331  0.00  0.00    +0.000 C 
ENDBRANCH  15  24
ENDBRANCH   1  19
BRANCH  10  28
ATOM     28  O   UNL     1      -2.304  11.687  23.659  0.00  0.00    +0.000 OA
ATOM     29  H   UNL     1      -1.940  11.019  24.265  0.00  0.00    +0.000 HD
ENDBRANCH  10  28
TORSDOF 3
ENDMDL
MODEL 9
REMARK VINA RESULT:      -8.0      4.557      7.313
REMARK  Name = 
REMARK  5 active torsions:
REMARK  status: ('A' for Active; 'I' for Inactive)
REMARK    1  A    between atoms: C_1  and  C_2
REMARK    2  A    between atoms: C_4  and  C_5
REMARK    3  A    between atoms: C_9  and  N_10
REMARK    4  A    between atoms: C_19  and  O_20
REMARK    5  A    between atoms: C_26  and  C_27
REMARK                            x       y       z     vdW  Elec       q    Type
REMARK                         _______ _______ _______ _____ _____    ______ ____
ROOT
ATOM      1  N   UNL     1       0.030  10.264  21.164  0.00  0.00    +0.000 N 
ATOM      2  C   UNL     1       0.290  11.561  21.574  0.00  0.00    +0.000 C 
ATOM      3  O   UNL     1       1.305  12.185  21.265  0.00  0.00    +0.000 OA
ATOM      4  N   UNL     1      -0.689  12.206  22.329  0.00  0.00    +0.000 N 
ATOM      5  C   UNL     1      -1.882  11.598  22.913  0.00  0.00    +0.000 C 
ATOM      6  C   UNL     1      -2.983  12.543  23.419  0.00  0.00    +0.000 C 
ATOM      7  C   UNL     1      -2.523  13.887  23.902  0.00  0.00    +0.000 A 
ATOM      8  C   UNL     1      -3.366  14.691  24.688  0.00  0.00    +0.000 A 
ATOM      9  C   UNL     1      -2.971  15.973  25.079  0.00  0.00    +0.000 A 
ATOM     10  C   UNL     1      -1.730  16.451  24.683  0.00  0.00    +0.000 A 
ATOM     11  C   UNL     1      -0.897  15.676  23.887  0.00  0.00    +0.000 A 
ATOM     12  C   UNL     1      -1.294  14.389  23.481  0.00  0.00    +0.000 A 
ATOM     13  C   UNL     1      -0.454  13.644  22.486  0.00  0.00    +0.000 C 
ATOM     14  H   UNL     1      -0.816   9.824  21.482  0.00  0.00    +0.000 HD
ENDROOT
BRANCH   1  19
ATOM     15  C   UNL     1       1.957   7.436  19.603  0.00  0.00    +0.000 A 
ATOM     16  C   UNL     1       2.257   7.993  18.349  0.00  0.00    +0.000 A 
ATOM     17  C   UNL     1       1.868   9.283  18.035  0.00  0.00    +0.000 A 
ATOM     18  C   UNL     1       1.158  10.035  18.967  0.00  0.00    +0.000 A 
ATOM     19  C   UNL     1       0.812   9.521  20.224  0.00  0.00    +0.000 A 
ATOM     20  C   UNL     1       1.234   8.210  20.540  0.00  0.00    +0.000 A 
BRANCH  15  24
ATOM     21  C   UNL     1       2.500   2.865  21.359  0.00  0.00    +0.000 C 
ATOM     22  C   UNL     1       2.723   4.078  20.545  0.00  0.00    +0.000 A 
ATOM     23  N   UNL     1       1.907   5.173  20.653  0.00  0.00    +0.000 NA
ATOM     24  C   UNL     1       2.414   6.060  19.824  0.00  0.00    +0.000 A 
ATOM     25  O   UNL     1       3.518   5.619  19.141  0.00  0.00    +0.000 OA
ATOM     26  C   UNL     1       3.714   4.348  19.621  0.00  0.00    +0.000 A 
ATOM     27  C   UNL     1       4.868   3.588  19.114  0.00  0.00    +0.000 C 
ENDBRANCH  15  24
ENDBRANCH   1  19
BRANCH  10  28
ATOM     28  O   UNL     1      -1.302  17.699  25.031  0.00  0.00    +0.000 OA
ATOM     29  H   UNL     1      -0.549  17.938  24.467  0.00  0.00    +0.000 HD
ENDBRANCH  10  28
TORSDOF 3
ENDMDL
