MODEL 1
REMARK VINA RESULT:      -7.7      0.000      0.000
REMARK  Name = 
REMARK  4 active torsions:
REMARK  status: ('A' for Active; 'I' for Inactive)
REMARK    1  A    between atoms: C_6  and  N_7
REMARK    2  A    between atoms: N_7  and  C_8
REMARK    3  A    between atoms: N_11  and  C_12
REMARK    4  A    between atoms: C_17  and  C_18
REMARK                            x       y       z     vdW  Elec       q    Type
REMARK                         _______ _______ _______ _____ _____    ______ ____
ROOT
ATOM      1  C   UNL     1       6.401   6.230  17.667  0.00  0.00    +0.000 C 
ATOM      2  C   UNL     1       5.334   6.885  16.780  0.00  0.00    +0.000 C 
ATOM      3  C   UNL     1       4.051   6.766  17.578  0.00  0.00    +0.000 C 
ATOM      4  N   UNL     1       4.226   5.562  18.343  0.00  0.00    +0.000 N 
ATOM      5  C   UNL     1       5.578   5.234  18.507  0.00  0.00    +0.000 C 
ATOM      6  O   UNL     1       6.020   4.330  19.202  0.00  0.00    +0.000 OA
ENDROOT
BRANCH   4   7
ATOM      7  C   UNL     1       3.161   4.956  19.033  0.00  0.00    +0.000 A 
ATOM      8  C   UNL     1       2.723   5.599  20.202  0.00  0.00    +0.000 A 
ATOM      9  C   UNL     1       1.614   5.132  20.909  0.00  0.00    +0.000 A 
ATOM     10  C   UNL     1       0.930   4.009  20.460  0.00  0.00    +0.000 A 
ATOM     11  C   UNL     1       1.377   3.340  19.321  0.00  0.00    +0.000 A 
ATOM     12  C   UNL     1       2.507   3.790  18.599  0.00  0.00    +0.000 A 
BRANCH  12  13
ATOM     13  C   UNL     1       2.998   2.903  17.481  0.00  0.00    +0.000 C 
ATOM     14  F   UNL     1       4.209   2.309  17.684  0.00  0.00    +0.000 F 
ATOM     15  F   UNL     1       2.138   1.856  17.279  0.00  0.00    +0.000 F 
ATOM     16  F   UNL     1       3.072   3.536  16.280  0.00  0.00    +0.000 F 
ENDBRANCH  12  13
ENDBRANCH   4   7
BRANCH   1  17
ATOM     17  N   UNL     1       7.409   5.562  16.833  0.00  0.00    +0.000 N 
ATOM     18  H   UNL     1       8.026   4.936  17.344  0.00  0.00    +0.000 HD
BRANCH  17  24
ATOM     19  O   UNL     1       4.707   2.371  10.932  0.00  0.00    +0.000 OA
ATOM     20  C   UNL     1       5.262   2.996  11.822  0.00  0.00    +0.000 C 
ATOM     21  C   UNL     1       4.810   3.110  13.283  0.00  0.00    +0.000 C 
ATOM     22  C   UNL     1       5.889   3.966  13.883  0.00  0.00    +0.000 A 
ATOM     23  C   UNL     1       6.076   4.390  15.192  0.00  0.00    +0.000 A 
ATOM     24  C   UNL     1       7.182   5.206  15.506  0.00  0.00    +0.000 A 
ATOM     25  C   UNL     1       8.075   5.546  14.466  0.00  0.00    +0.000 A 
ATOM     26  C   UNL     1       7.892   5.103  13.148  0.00  0.00    +0.000 A 
ATOM     27  C   UNL     1       6.796   4.316  12.892  0.00  0.00    +0.000 A 
ATOM     28  N   UNL     1       6.426   3.740  11.686  0.00  0.00    +0.000 N 
ATOM     29  H   UNL     1       6.931   3.816  10.816  0.00  0.00    +0.000 HD
ENDBRANCH  17  24
ENDBRANCH   1  17
TORSDOF 4
ENDMDL
MODEL 2
REMARK VINA RESULT:      -7.6      5.796      7.329
REMARK  Name = 
REMARK  4 active torsions:
REMARK  status: ('A' for Active; 'I' for Inactive)
REMARK    1  A    between atoms: C_6  and  N_7
REMARK    2  A    between atoms: N_7  and  C_8
REMARK    3  A    between atoms: N_11  and  C_12
REMARK    4  A    between atoms: C_17  and  C_18
REMARK                            x       y       z     vdW  Elec       q    Type
REMARK                         _______ _______ _______ _____ _____    ______ ____
ROOT
ATOM      1  C   UNL     1       1.994   8.962  18.892  0.00  0.00    +0.000 C 
ATOM      2  C   UNL     1       1.960  10.131  17.900  0.00  0.00    +0.000 C 
ATOM      3  C   UNL     1       1.363  11.281  18.688  0.00  0.00    +0.000 C 
ATOM      4  N   UNL     1       0.486  10.639  19.630  0.00  0.00    +0.000 N 
ATOM      5  C   UNL     1       0.847   9.306  19.862  0.00  0.00    +0.000 C 
ATOM      6  O   UNL     1       0.348   8.559  20.693  0.00  0.00    +0.000 OA
ENDROOT
BRANCH   4   7
ATOM      7  C   UNL     1      -0.451  11.364  20.389  0.00  0.00    +0.000 A 
ATOM      8  C   UNL     1      -0.077  11.693  21.702  0.00  0.00    +0.000 A 
ATOM      9  C   UNL     1      -0.893  12.489  22.505  0.00  0.00    +0.000 A 
ATOM     10  C   UNL     1      -2.102  12.961  22.010  0.00  0.00    +0.000 A 
ATOM     11  C   UNL     1      -2.502  12.612  20.721  0.00  0.00    +0.000 A 
ATOM     12  C   UNL     1      -1.695  11.795  19.895  0.00  0.00    +0.000 A 
BRANCH  12  13
ATOM     13  C   UNL     1      -2.294  11.346  18.586  0.00  0.00    +0.000 C 
ATOM     14  F   UNL     1      -2.253  10.005  18.343  0.00  0.00    +0.000 F 
ATOM     15  F   UNL     1      -3.627  11.659  18.529  0.00  0.00    +0.000 F 
ATOM     16  F   UNL     1      -1.742  11.954  17.501  0.00  0.00    +0.000 F 
ENDBRANCH  12  13
ENDBRANCH   4   7
BRANCH   1  17
ATOM     17  N   UNL     1       1.769   7.694  18.184  0.00  0.00    +0.000 N 
ATOM     18  H   UNL     1       1.132   7.764  17.395  0.00  0.00    +0.000 HD
BRANCH  17  24
ATOM     19  O   UNL     1       8.028   4.340  16.812  0.00  0.00    +0.000 OA
ATOM     20  C   UNL     1       6.916   4.756  17.095  0.00  0.00    +0.000 C 
ATOM     21  C   UNL     1       6.493   6.223  17.239  0.00  0.00    +0.000 C 
ATOM     22  C   UNL     1       5.031   6.102  17.562  0.00  0.00    +0.000 A 
ATOM     23  C   UNL     1       4.070   7.084  17.762  0.00  0.00    +0.000 A 
ATOM     24  C   UNL     1       2.745   6.708  18.064  0.00  0.00    +0.000 A 
ATOM     25  C   UNL     1       2.443   5.330  18.131  0.00  0.00    +0.000 A 
ATOM     26  C   UNL     1       3.412   4.340  17.913  0.00  0.00    +0.000 A 
ATOM     27  C   UNL     1       4.690   4.758  17.629  0.00  0.00    +0.000 A 
ATOM     28  N   UNL     1       5.798   3.973  17.350  0.00  0.00    +0.000 N 
ATOM     29  H   UNL     1       5.812   2.965  17.306  0.00  0.00    +0.000 HD
ENDBRANCH  17  24
ENDBRANCH   1  17
TORSDOF 4
ENDMDL
MODEL 3
REMARK VINA RESULT:      -7.6      5.841      7.655
REMARK  Name = 
REMARK  4 active torsions:
REMARK  status: ('A' for Active; 'I' for Inactive)
REMARK    1  A    between atoms: C_6  and  N_7
REMARK    2  A    between atoms: N_7  and  C_8
REMARK    3  A    between atoms: N_11  and  C_12
REMARK    4  A    between atoms: C_17  and  C_18
REMARK                            x       y       z     vdW  Elec       q    Type
REMARK                         _______ _______ _______ _____ _____    ______ ____
ROOT
ATOM      1  C   UNL     1       2.080   9.168  18.870  0.00  0.00    +0.000 C 
ATOM      2  C   UNL     1       2.030  10.373  17.922  0.00  0.00    +0.000 C 
ATOM      3  C   UNL     1       1.384  11.474  18.740  0.00  0.00    +0.000 C 
ATOM      4  N   UNL     1       0.509  10.772  19.639  0.00  0.00    +0.000 N 
ATOM      5  C   UNL     1       0.904   9.442  19.828  0.00  0.00    +0.000 C 
ATOM      6  O   UNL     1       0.411   8.651  20.620  0.00  0.00    +0.000 OA
ENDROOT
BRANCH   4   7
ATOM      7  C   UNL     1      -0.464  11.440  20.404  0.00  0.00    +0.000 A 
ATOM      8  C   UNL     1      -0.112  11.764  21.724  0.00  0.00    +0.000 A 
ATOM      9  C   UNL     1      -0.968  12.508  22.536  0.00  0.00    +0.000 A 
ATOM     10  C   UNL     1      -2.195  12.933  22.043  0.00  0.00    +0.000 A 
ATOM     11  C   UNL     1      -2.572  12.587  20.746  0.00  0.00    +0.000 A 
ATOM     12  C   UNL     1      -1.725  11.822  19.912  0.00  0.00    +0.000 A 
BRANCH  12  13
ATOM     13  C   UNL     1      -2.296  11.368  18.592  0.00  0.00    +0.000 C 
ATOM     14  F   UNL     1      -2.235  10.028  18.347  0.00  0.00    +0.000 F 
ATOM     15  F   UNL     1      -3.632  11.664  18.514  0.00  0.00    +0.000 F 
ATOM     16  F   UNL     1      -1.735  11.984  17.517  0.00  0.00    +0.000 F 
ENDBRANCH  12  13
ENDBRANCH   4   7
BRANCH   1  17
ATOM     17  N   UNL     1       1.906   7.922  18.110  0.00  0.00    +0.000 N 
ATOM     18  H   UNL     1       1.493   8.049  17.190  0.00  0.00    +0.000 HD
BRANCH  17  24
ATOM     19  O   UNL     1       4.951   1.738  20.301  0.00  0.00    +0.000 OA
ATOM     20  C   UNL     1       4.562   2.790  19.818  0.00  0.00    +0.000 C 
ATOM     21  C   UNL     1       3.189   3.443  20.024  0.00  0.00    +0.000 C 
ATOM     22  C   UNL     1       3.314   4.706  19.219  0.00  0.00    +0.000 A 
ATOM     23  C   UNL     1       2.418   5.751  19.043  0.00  0.00    +0.000 A 
ATOM     24  C   UNL     1       2.775   6.839  18.219  0.00  0.00    +0.000 A 
ATOM     25  C   UNL     1       4.053   6.828  17.617  0.00  0.00    +0.000 A 
ATOM     26  C   UNL     1       4.961   5.777  17.810  0.00  0.00    +0.000 A 
ATOM     27  C   UNL     1       4.564   4.738  18.615  0.00  0.00    +0.000 A 
ATOM     28  N   UNL     1       5.293   3.615  18.974  0.00  0.00    +0.000 N 
ATOM     29  H   UNL     1       6.241   3.411  18.693  0.00  0.00    +0.000 HD
ENDBRANCH  17  24
ENDBRANCH   1  17
TORSDOF 4
ENDMDL
MODEL 4
REMARK VINA RESULT:      -7.5      5.807      8.517
REMARK  Name = 
REMARK  4 active torsions:
REMARK  status: ('A' for Active; 'I' for Inactive)
REMARK    1  A    between atoms: C_6  and  N_7
REMARK    2  A    between atoms: N_7  and  C_8
REMARK    3  A    between atoms: N_11  and  C_12
REMARK    4  A    between atoms: C_17  and  C_18
REMARK                            x       y       z     vdW  Elec       q    Type
REMARK                         _______ _______ _______ _____ _____    ______ ____
ROOT
ATOM      1  C   UNL     1       1.776   9.063  18.717  0.00  0.00    +0.000 C 
ATOM      2  C   UNL     1       1.119   8.355  19.909  0.00  0.00    +0.000 C 
ATOM      3  C   UNL     1       2.087   7.247  20.274  0.00  0.00    +0.000 C 
ATOM      4  N   UNL     1       2.710   6.902  19.025  0.00  0.00    +0.000 N 
ATOM      5  C   UNL     1       2.640   7.948  18.096  0.00  0.00    +0.000 C 
ATOM      6  O   UNL     1       3.180   7.972  16.998  0.00  0.00    +0.000 OA
ENDROOT
BRANCH   4   7
ATOM      7  C   UNL     1       3.496   5.745  18.879  0.00  0.00    +0.000 A 
ATOM      8  C   UNL     1       4.886   5.913  18.987  0.00  0.00    +0.000 A 
ATOM      9  C   UNL     1       5.748   4.817  18.951  0.00  0.00    +0.000 A 
ATOM     10  C   UNL     1       5.233   3.536  18.797  0.00  0.00    +0.000 A 
ATOM     11  C   UNL     1       3.858   3.359  18.652  0.00  0.00    +0.000 A 
ATOM     12  C   UNL     1       2.968   4.459  18.672  0.00  0.00    +0.000 A 
BRANCH  12  13
ATOM     13  C   UNL     1       1.524   4.173  18.345  0.00  0.00    +0.000 C 
ATOM     14  F   UNL     1       0.997   4.886  17.310  0.00  0.00    +0.000 F 
ATOM     15  F   UNL     1       1.361   2.865  17.971  0.00  0.00    +0.000 F 
ATOM     16  F   UNL     1       0.685   4.344  19.402  0.00  0.00    +0.000 F 
ENDBRANCH  12  13
ENDBRANCH   4   7
BRANCH   1  17
ATOM     17  N   UNL     1       0.745   9.555  17.793  0.00  0.00    +0.000 N 
ATOM     18  H   UNL     1       0.586   8.955  16.987  0.00  0.00    +0.000 HD
BRANCH  17  24
ATOM     19  O   UNL     1      -5.960  12.231  18.225  0.00  0.00    +0.000 OA
ATOM     20  C   UNL     1      -4.795  11.873  18.288  0.00  0.00    +0.000 C 
ATOM     21  C   UNL     1      -4.158  10.686  17.555  0.00  0.00    +0.000 C 
ATOM     22  C   UNL     1      -2.724  10.771  17.999  0.00  0.00    +0.000 A 
ATOM     23  C   UNL     1      -1.627   9.998  17.644  0.00  0.00    +0.000 A 
ATOM     24  C   UNL     1      -0.367  10.279  18.212  0.00  0.00    +0.000 A 
ATOM     25  C   UNL     1      -0.271  11.361  19.116  0.00  0.00    +0.000 A 
ATOM     26  C   UNL     1      -1.379  12.148  19.461  0.00  0.00    +0.000 A 
ATOM     27  C   UNL     1      -2.585  11.830  18.885  0.00  0.00    +0.000 A 
ATOM     28  N   UNL     1      -3.801  12.476  19.047  0.00  0.00    +0.000 N 
ATOM     29  H   UNL     1      -3.964  13.293  19.616  0.00  0.00    +0.000 HD
ENDBRANCH  17  24
ENDBRANCH   1  17
TORSDOF 4
ENDMDL
MODEL 5
REMARK VINA RESULT:      -7.5      4.144      8.412
REMARK  Name = 
REMARK  4 active torsions:
REMARK  status: ('A' for Active; 'I' for Inactive)
REMARK    1  A    between atoms: C_6  and  N_7
REMARK    2  A    between atoms: N_7  and  C_8
REMARK    3  A    between atoms: N_11  and  C_12
REMARK    4  A    between atoms: C_17  and  C_18
REMARK                            x       y       z     vdW  Elec       q    Type
REMARK                         _______ _______ _______ _____ _____    ______ ____
ROOT
ATOM      1  C   UNL     1       3.185   5.771  19.861  0.00  0.00    +0.000 C 
ATOM      2  C   UNL     1       3.231   4.243  19.989  0.00  0.00    +0.000 C 
ATOM      3  C   UNL     1       4.466   3.833  19.211  0.00  0.00    +0.000 C 
ATOM      4  N   UNL     1       4.579   4.833  18.184  0.00  0.00    +0.000 N 
ATOM      5  C   UNL     1       3.925   6.022  18.532  0.00  0.00    +0.000 C 
ATOM      6  O   UNL     1       3.951   7.069  17.901  0.00  0.00    +0.000 OA
ENDROOT
BRANCH   4   7
ATOM      7  C   UNL     1       5.453   4.684  17.091  0.00  0.00    +0.000 A 
ATOM      8  C   UNL     1       4.911   4.117  15.927  0.00  0.00    +0.000 A 
ATOM      9  C   UNL     1       5.667   4.012  14.759  0.00  0.00    +0.000 A 
ATOM     10  C   UNL     1       6.980   4.465  14.741  0.00  0.00    +0.000 A 
ATOM     11  C   UNL     1       7.541   4.996  15.901  0.00  0.00    +0.000 A 
ATOM     12  C   UNL     1       6.796   5.099  17.099  0.00  0.00    +0.000 A 
BRANCH  12  13
ATOM     13  C   UNL     1       7.546   5.537  18.333  0.00  0.00    +0.000 C 
ATOM     14  F   UNL     1       6.827   5.548  19.491  0.00  0.00    +0.000 F 
ATOM     15  F   UNL     1       8.590   4.689  18.591  0.00  0.00    +0.000 F 
ATOM     16  F   UNL     1       8.111   6.768  18.215  0.00  0.00    +0.000 F 
ENDBRANCH  12  13
ENDBRANCH   4   7
BRANCH   1  17
ATOM     17  N   UNL     1       1.790   6.231  19.822  0.00  0.00    +0.000 N 
ATOM     18  H   UNL     1       1.106   5.508  20.031  0.00  0.00    +0.000 HD
BRANCH  17  24
ATOM     19  O   UNL     1      -1.128  11.807  23.386  0.00  0.00    +0.000 OA
ATOM     20  C   UNL     1      -0.579  10.981  22.675  0.00  0.00    +0.000 C 
ATOM     21  C   UNL     1      -0.278   9.518  23.029  0.00  0.00    +0.000 C 
ATOM     22  C   UNL     1       0.367   9.013  21.769  0.00  0.00    +0.000 A 
ATOM     23  C   UNL     1       0.825   7.744  21.441  0.00  0.00    +0.000 A 
ATOM     24  C   UNL     1       1.406   7.521  20.176  0.00  0.00    +0.000 A 
ATOM     25  C   UNL     1       1.482   8.609  19.278  0.00  0.00    +0.000 A 
ATOM     26  C   UNL     1       1.004   9.886  19.607  0.00  0.00    +0.000 A 
ATOM     27  C   UNL     1       0.453  10.053  20.854  0.00  0.00    +0.000 A 
ATOM     28  N   UNL     1      -0.108  11.203  21.388  0.00  0.00    +0.000 N 
ATOM     29  H   UNL     1      -0.197  12.090  20.916  0.00  0.00    +0.000 HD
ENDBRANCH  17  24
ENDBRANCH   1  17
TORSDOF 4
ENDMDL
MODEL 6
REMARK VINA RESULT:      -7.5      5.158      6.742
REMARK  Name = 
REMARK  4 active torsions:
REMARK  status: ('A' for Active; 'I' for Inactive)
REMARK    1  A    between atoms: C_6  and  N_7
REMARK    2  A    between atoms: N_7  and  C_8
REMARK    3  A    between atoms: N_11  and  C_12
REMARK    4  A    between atoms: C_17  and  C_18
REMARK                            x       y       z     vdW  Elec       q    Type
REMARK                         _______ _______ _______ _____ _____    ______ ____
ROOT
ATOM      1  C   UNL     1       1.639   7.554  19.823  0.00  0.00    +0.000 C 
ATOM      2  C   UNL     1       0.992   7.854  21.182  0.00  0.00    +0.000 C 
ATOM      3  C   UNL     1       0.104   9.054  20.924  0.00  0.00    +0.000 C 
ATOM      4  N   UNL     1       0.776   9.764  19.869  0.00  0.00    +0.000 N 
ATOM      5  C   UNL     1       1.625   8.931  19.131  0.00  0.00    +0.000 C 
ATOM      6  O   UNL     1       2.232   9.240  18.115  0.00  0.00    +0.000 OA
ENDROOT
BRANCH   4   7
ATOM      7  C   UNL     1       0.411  11.072  19.501  0.00  0.00    +0.000 A 
ATOM      8  C   UNL     1       1.075  12.119  20.161  0.00  0.00    +0.000 A 
ATOM      9  C   UNL     1       0.855  13.449  19.805  0.00  0.00    +0.000 A 
ATOM     10  C   UNL     1      -0.041  13.754  18.788  0.00  0.00    +0.000 A 
ATOM     11  C   UNL     1      -0.735  12.726  18.150  0.00  0.00    +0.000 A 
ATOM     12  C   UNL     1      -0.535  11.372  18.506  0.00  0.00    +0.000 A 
BRANCH  12  13
ATOM     13  C   UNL     1      -1.451  10.358  17.868  0.00  0.00    +0.000 C 
ATOM     14  F   UNL     1      -2.245   9.653  18.724  0.00  0.00    +0.000 F 
ATOM     15  F   UNL     1      -2.334  10.969  17.016  0.00  0.00    +0.000 F 
ATOM     16  F   UNL     1      -0.798   9.443  17.102  0.00  0.00    +0.000 F 
ENDBRANCH  12  13
ENDBRANCH   4   7
BRANCH   1  17
ATOM     17  N   UNL     1       3.001   7.036  20.017  0.00  0.00    +0.000 N 
ATOM     18  H   UNL     1       3.305   7.016  20.987  0.00  0.00    +0.000 HD
BRANCH  17  24
ATOM     19  O   UNL     1       6.172   3.709  14.433  0.00  0.00    +0.000 OA
ATOM     20  C   UNL     1       5.637   4.120  15.450  0.00  0.00    +0.000 C 
ATOM     21  C   UNL     1       5.468   5.585  15.872  0.00  0.00    +0.000 C 
ATOM     22  C   UNL     1       4.723   5.457  17.171  0.00  0.00    +0.000 A 
ATOM     23  C   UNL     1       4.232   6.436  18.025  0.00  0.00    +0.000 A 
ATOM     24  C   UNL     1       3.561   6.054  19.206  0.00  0.00    +0.000 A 
ATOM     25  C   UNL     1       3.400   4.674  19.463  0.00  0.00    +0.000 A 
ATOM     26  C   UNL     1       3.884   3.689  18.590  0.00  0.00    +0.000 A 
ATOM     27  C   UNL     1       4.535   4.112  17.458  0.00  0.00    +0.000 A 
ATOM     28  N   UNL     1       5.068   3.332  16.443  0.00  0.00    +0.000 N 
ATOM     29  H   UNL     1       5.039   2.325  16.394  0.00  0.00    +0.000 HD
ENDBRANCH  17  24
ENDBRANCH   1  17
TORSDOF 4
ENDMDL
MODEL 7
REMARK VINA RESULT:      -7.5      5.544      8.591
REMARK  Name = 
REMARK  4 active torsions:
REMARK  status: ('A' for Active; 'I' for Inactive)
REMARK    1  A    between atoms: C_6  and  N_7
REMARK    2  A    between atoms: N_7  and  C_8
REMARK    3  A    between atoms: N_11  and  C_12
REMARK    4  A    between atoms: C_17  and  C_18
REMARK                            x       y       z     vdW  Elec       q    Type
REMARK                         _______ _______ _______ _____ _____    ______ ____
ROOT
ATOM      1  C   UNL     1       1.700   8.728  19.474  0.00  0.00    +0.000 C 
ATOM      2  C   UNL     1       1.600   7.511  20.403  0.00  0.00    +0.000 C 
ATOM      3  C   UNL     1       2.753   6.619  19.988  0.00  0.00    +0.000 C 
ATOM      4  N   UNL     1       2.920   6.896  18.587  0.00  0.00    +0.000 N 
ATOM      5  C   UNL     1       2.403   8.147  18.231  0.00  0.00    +0.000 C 
ATOM      6  O   UNL     1       2.507   8.684  17.137  0.00  0.00    +0.000 OA
ENDROOT
BRANCH   4   7
ATOM      7  C   UNL     1       3.728   6.093  17.761  0.00  0.00    +0.000 A 
ATOM      8  C   UNL     1       4.904   6.681  17.269  0.00  0.00    +0.000 A 
ATOM      9  C   UNL     1       5.820   5.943  16.519  0.00  0.00    +0.000 A 
ATOM     10  C   UNL     1       5.568   4.605  16.242  0.00  0.00    +0.000 A 
ATOM     11  C   UNL     1       4.386   4.019  16.693  0.00  0.00    +0.000 A 
ATOM     12  C   UNL     1       3.439   4.754  17.443  0.00  0.00    +0.000 A 
BRANCH  12  13
ATOM     13  C   UNL     1       2.127   4.072  17.741  0.00  0.00    +0.000 C 
ATOM     14  F   UNL     1       1.011   4.707  17.283  0.00  0.00    +0.000 F 
ATOM     15  F   UNL     1       2.078   2.836  17.150  0.00  0.00    +0.000 F 
ATOM     16  F   UNL     1       1.926   3.838  19.065  0.00  0.00    +0.000 F 
ENDBRANCH  12  13
ENDBRANCH   4   7
BRANCH   1  17
ATOM     17  N   UNL     1       0.357   9.241  19.170  0.00  0.00    +0.000 N 
ATOM     18  H   UNL     1      -0.397   8.735  19.628  0.00  0.00    +0.000 HD
BRANCH  17  24
ATOM     19  O   UNL     1       1.007  16.440  18.919  0.00  0.00    +0.000 OA
ATOM     20  C   UNL     1       0.751  15.247  18.881  0.00  0.00    +0.000 C 
ATOM     21  C   UNL     1       1.720  14.090  19.157  0.00  0.00    +0.000 C 
ATOM     22  C   UNL     1       0.835  12.888  18.988  0.00  0.00    +0.000 A 
ATOM     23  C   UNL     1       1.113  11.537  19.153  0.00  0.00    +0.000 A 
ATOM     24  C   UNL     1       0.096  10.587  18.925  0.00  0.00    +0.000 A 
ATOM     25  C   UNL     1      -1.183  11.056  18.552  0.00  0.00    +0.000 A 
ATOM     26  C   UNL     1      -1.464  12.422  18.402  0.00  0.00    +0.000 A 
ATOM     27  C   UNL     1      -0.439  13.307  18.628  0.00  0.00    +0.000 A 
ATOM     28  N   UNL     1      -0.484  14.692  18.572  0.00  0.00    +0.000 N 
ATOM     29  H   UNL     1      -1.298  15.248  18.361  0.00  0.00    +0.000 HD
ENDBRANCH  17  24
ENDBRANCH   1  17
TORSDOF 4
ENDMDL
MODEL 8
REMARK VINA RESULT:      -7.4      5.971      8.222
REMARK  Name = 
REMARK  4 active torsions:
REMARK  status: ('A' for Active; 'I' for Inactive)
REMARK    1  A    between atoms: C_6  and  N_7
REMARK    2  A    between atoms: N_7  and  C_8
REMARK    3  A    between atoms: N_11  and  C_12
REMARK    4  A    between atoms: C_17  and  C_18
REMARK                            x       y       z     vdW  Elec       q    Type
REMARK                         _______ _______ _______ _____ _____    ______ ____
ROOT
ATOM      1  C   UNL     1       1.090  10.584  18.022  0.00  0.00    +0.000 C 
ATOM      2  C   UNL     1      -0.092   9.609  17.952  0.00  0.00    +0.000 C 
ATOM      3  C   UNL     1      -1.151  10.230  18.841  0.00  0.00    +0.000 C 
ATOM      4  N   UNL     1      -0.396  10.941  19.837  0.00  0.00    +0.000 N 
ATOM      5  C   UNL     1       0.895  11.254  19.396  0.00  0.00    +0.000 C 
ATOM      6  O   UNL     1       1.711  11.946  19.990  0.00  0.00    +0.000 OA
ENDROOT
BRANCH   4   7
ATOM      7  C   UNL     1      -0.997  11.455  21.001  0.00  0.00    +0.000 A 
ATOM      8  C   UNL     1      -1.693  12.667  20.865  0.00  0.00    +0.000 A 
ATOM      9  C   UNL     1      -2.402  13.213  21.935  0.00  0.00    +0.000 A 
ATOM     10  C   UNL     1      -2.419  12.559  23.161  0.00  0.00    +0.000 A 
ATOM     11  C   UNL     1      -1.701  11.374  23.319  0.00  0.00    +0.000 A 
ATOM     12  C   UNL     1      -0.965  10.811  22.250  0.00  0.00    +0.000 A 
BRANCH  12  13
ATOM     13  C   UNL     1      -0.098   9.620  22.573  0.00  0.00    +0.000 C 
ATOM     14  F   UNL     1       1.222   9.743  22.255  0.00  0.00    +0.000 F 
ATOM     15  F   UNL     1      -0.098   9.371  23.921  0.00  0.00    +0.000 F 
ATOM     16  F   UNL     1      -0.529   8.464  22.001  0.00  0.00    +0.000 F 
ENDBRANCH  12  13
ENDBRANCH   4   7
BRANCH   1  17
ATOM     17  N   UNL     1       2.358   9.846  17.932  0.00  0.00    +0.000 N 
ATOM     18  H   UNL     1       3.182  10.408  18.127  0.00  0.00    +0.000 HD
BRANCH  17  24
ATOM     19  O   UNL     1       2.145   3.609  21.586  0.00  0.00    +0.000 OA
ATOM     20  C   UNL     1       2.240   4.571  20.841  0.00  0.00    +0.000 C 
ATOM     21  C   UNL     1       1.621   5.959  21.049  0.00  0.00    +0.000 C 
ATOM     22  C   UNL     1       2.103   6.706  19.837  0.00  0.00    +0.000 A 
ATOM     23  C   UNL     1       1.919   8.031  19.467  0.00  0.00    +0.000 A 
ATOM     24  C   UNL     1       2.476   8.498  18.259  0.00  0.00    +0.000 A 
ATOM     25  C   UNL     1       3.224   7.590  17.476  0.00  0.00    +0.000 A 
ATOM     26  C   UNL     1       3.420   6.256  17.860  0.00  0.00    +0.000 A 
ATOM     27  C   UNL     1       2.851   5.848  19.042  0.00  0.00    +0.000 A 
ATOM     28  N   UNL     1       2.933   4.599  19.638  0.00  0.00    +0.000 N 
ATOM     29  H   UNL     1       3.442   3.806  19.279  0.00  0.00    +0.000 HD
ENDBRANCH  17  24
ENDBRANCH   1  17
TORSDOF 4
ENDMDL
MODEL 9
REMARK VINA RESULT:      -7.4      6.064      8.069
REMARK  Name = 
REMARK  4 active torsions:
REMARK  status: ('A' for Active; 'I' for Inactive)
REMARK    1  A    between atoms: C_6  and  N_7
REMARK    2  A    between atoms: N_7  and  C_8
REMARK    3  A    between atoms: N_11  and  C_12
REMARK    4  A    between atoms: C_17  and  C_18
REMARK                            x       y       z     vdW  Elec       q    Type
REMARK                         _______ _______ _______ _____ _____    ______ ____
ROOT
ATOM      1  C   UNL     1       0.824  10.660  17.953  0.00  0.00    +0.000 C 
ATOM      2  C   UNL     1      -0.356   9.679  17.938  0.00  0.00    +0.000 C 
ATOM      3  C   UNL     1      -1.383  10.306  18.860  0.00  0.00    +0.000 C 
ATOM      4  N   UNL     1      -0.593  11.029  19.821  0.00  0.00    +0.000 N 
ATOM      5  C   UNL     1       0.679  11.343  19.327  0.00  0.00    +0.000 C 
ATOM      6  O   UNL     1       1.513  12.044  19.883  0.00  0.00    +0.000 OA
ENDROOT
BRANCH   4   7
ATOM      7  C   UNL     1      -1.152  11.552  21.001  0.00  0.00    +0.000 A 
ATOM      8  C   UNL     1      -1.861  12.758  20.879  0.00  0.00    +0.000 A 
ATOM      9  C   UNL     1      -2.531  13.312  21.970  0.00  0.00    +0.000 A 
ATOM     10  C   UNL     1      -2.496  12.672  23.202  0.00  0.00    +0.000 A 
ATOM     11  C   UNL     1      -1.765  11.494  23.345  0.00  0.00    +0.000 A 
ATOM     12  C   UNL     1      -1.067  10.923  22.255  0.00  0.00    +0.000 A 
BRANCH  12  13
ATOM     13  C   UNL     1      -0.180   9.741  22.557  0.00  0.00    +0.000 C 
ATOM     14  F   UNL     1       1.139   9.895  22.250  0.00  0.00    +0.000 F 
ATOM     15  F   UNL     1      -0.184   9.462  23.899  0.00  0.00    +0.000 F 
ATOM     16  F   UNL     1      -0.586   8.591  21.956  0.00  0.00    +0.000 F 
ENDBRANCH  12  13
ENDBRANCH   4   7
BRANCH   1  17
ATOM     17  N   UNL     1       2.091   9.925  17.823  0.00  0.00    +0.000 N 
ATOM     18  H   UNL     1       2.915  10.519  17.786  0.00  0.00    +0.000 HD
BRANCH  17  24
ATOM     19  O   UNL     1       3.689   2.911  18.568  0.00  0.00    +0.000 OA
ATOM     20  C   UNL     1       3.392   4.095  18.608  0.00  0.00    +0.000 C 
ATOM     21  C   UNL     1       3.632   5.140  17.512  0.00  0.00    +0.000 C 
ATOM     22  C   UNL     1       3.036   6.379  18.118  0.00  0.00    +0.000 A 
ATOM     23  C   UNL     1       2.898   7.658  17.597  0.00  0.00    +0.000 A 
ATOM     24  C   UNL     1       2.299   8.667  18.379  0.00  0.00    +0.000 A 
ATOM     25  C   UNL     1       1.841   8.323  19.671  0.00  0.00    +0.000 A 
ATOM     26  C   UNL     1       1.968   7.026  20.189  0.00  0.00    +0.000 A 
ATOM     27  C   UNL     1       2.564   6.081  19.390  0.00  0.00    +0.000 A 
ATOM     28  N   UNL     1       2.771   4.739  19.670  0.00  0.00    +0.000 N 
ATOM     29  H   UNL     1       2.495   4.263  20.515  0.00  0.00    +0.000 HD
ENDBRANCH  17  24
ENDBRANCH   1  17
TORSDOF 4
ENDMDL
