MODEL 1
REMARK VINA RESULT:      -7.5      0.000      0.000
REMARK  Name = 
REMARK  2 active torsions:
REMARK  status: ('A' for Active; 'I' for Inactive)
REMARK    1  A    between atoms: C_2  and  C_3
REMARK    2  A    between atoms: C_18  and  C_19
REMARK                            x       y       z     vdW  Elec       q    Type
REMARK                         _______ _______ _______ _____ _____    ______ ____
ROOT
ATOM      1  O   UNL     1       4.609   8.269  17.397  0.00  0.00    +0.000 OA
ATOM      2  C   UNL     1       4.357   7.068  17.315  0.00  0.00    +0.000 C 
ATOM      3  N   UNL     1       3.232   6.501  17.939  0.00  0.00    +0.000 N 
ATOM      4  C   UNL     1       2.261   7.407  18.604  0.00  0.00    +0.000 C 
ATOM      5  C   UNL     1       1.987   7.015  20.080  0.00  0.00    +0.000 C 
ATOM      6  C   UNL     1       1.816   5.545  20.145  0.00  0.00    +0.000 A 
ATOM      7  N   UNL     1       1.294   4.795  21.148  0.00  0.00    +0.000 N 
ATOM      8  N   UNL     1       1.320   3.471  20.881  0.00  0.00    +0.000 NA
ATOM      9  C   UNL     1       1.909   3.377  19.668  0.00  0.00    +0.000 A 
ATOM     10  C   UNL     1       2.229   4.668  19.174  0.00  0.00    +0.000 A 
ATOM     11  C   UNL     1       2.883   5.069  17.908  0.00  0.00    +0.000 C 
ATOM     12  H   UNL     1       0.911   5.099  22.038  0.00  0.00    +0.000 HD
ENDROOT
BRANCH   2  13
ATOM     13  C   UNL     1       5.296   6.202  16.545  0.00  0.00    +0.000 A 
ATOM     14  C   UNL     1       5.165   6.026  15.153  0.00  0.00    +0.000 A 
ATOM     15  C   UNL     1       5.955   5.114  14.457  0.00  0.00    +0.000 A 
ATOM     16  C   UNL     1       6.978   4.424  15.102  0.00  0.00    +0.000 A 
ATOM     17  C   UNL     1       7.195   4.701  16.457  0.00  0.00    +0.000 A 
ATOM     18  N   UNL     1       8.177   4.229  17.299  0.00  0.00    +0.000 N 
ATOM     19  C   UNL     1       8.019   4.754  18.550  0.00  0.00    +0.000 A 
ATOM     20  C   UNL     1       6.906   5.563  18.528  0.00  0.00    +0.000 A 
ATOM     21  C   UNL     1       6.381   5.564  17.197  0.00  0.00    +0.000 A 
ATOM     22  H   UNL     1       8.920   3.604  17.017  0.00  0.00    +0.000 HD
ENDBRANCH   2  13
BRANCH   9  23
ATOM     23  C   UNL     1       2.187   2.075  18.959  0.00  0.00    +0.000 C 
ATOM     24  F   UNL     1       1.966   2.106  17.621  0.00  0.00    +0.000 F 
ATOM     25  F   UNL     1       3.482   1.684  19.136  0.00  0.00    +0.000 F 
ATOM     26  F   UNL     1       1.425   1.064  19.461  0.00  0.00    +0.000 F 
ENDBRANCH   9  23
TORSDOF 2
ENDMDL
MODEL 2
REMARK VINA RESULT:      -7.0      2.747      6.014
REMARK  Name = 
REMARK  2 active torsions:
REMARK  status: ('A' for Active; 'I' for Inactive)
REMARK    1  A    between atoms: C_2  and  C_3
REMARK    2  A    between atoms: C_18  and  C_19
REMARK                            x       y       z     vdW  Elec       q    Type
REMARK                         _______ _______ _______ _____ _____    ______ ____
ROOT
ATOM      1  O   UNL     1       2.774   8.625  17.380  0.00  0.00    +0.000 OA
ATOM      2  C   UNL     1       2.577   7.926  18.373  0.00  0.00    +0.000 C 
ATOM      3  N   UNL     1       3.185   6.668  18.528  0.00  0.00    +0.000 N 
ATOM      4  C   UNL     1       4.189   6.239  17.522  0.00  0.00    +0.000 C 
ATOM      5  C   UNL     1       3.867   4.853  16.904  0.00  0.00    +0.000 C 
ATOM      6  C   UNL     1       3.456   3.943  17.999  0.00  0.00    +0.000 A 
ATOM      7  N   UNL     1       3.356   2.590  17.983  0.00  0.00    +0.000 N 
ATOM      8  N   UNL     1       2.920   2.083  19.157  0.00  0.00    +0.000 NA
ATOM      9  C   UNL     1       2.709   3.164  19.940  0.00  0.00    +0.000 A 
ATOM     10  C   UNL     1       3.043   4.352  19.241  0.00  0.00    +0.000 A 
ATOM     11  C   UNL     1       2.974   5.766  19.675  0.00  0.00    +0.000 C 
ATOM     12  H   UNL     1       3.554   1.944  17.224  0.00  0.00    +0.000 HD
ENDROOT
BRANCH   2  13
ATOM     13  C   UNL     1       1.646   8.438  19.420  0.00  0.00    +0.000 A 
ATOM     14  C   UNL     1       1.792   8.083  20.775  0.00  0.00    +0.000 A 
ATOM     15  C   UNL     1       0.846   8.448  21.729  0.00  0.00    +0.000 A 
ATOM     16  C   UNL     1      -0.223   9.274  21.389  0.00  0.00    +0.000 A 
ATOM     17  C   UNL     1      -0.292   9.737  20.070  0.00  0.00    +0.000 A 
ATOM     18  N   UNL     1      -1.183  10.618  19.499  0.00  0.00    +0.000 N 
ATOM     19  C   UNL     1      -0.891  10.793  18.175  0.00  0.00    +0.000 A 
ATOM     20  C   UNL     1       0.192  10.000  17.876  0.00  0.00    +0.000 A 
ATOM     21  C   UNL     1       0.607   9.338  19.075  0.00  0.00    +0.000 A 
ATOM     22  H   UNL     1      -1.929  11.082  19.999  0.00  0.00    +0.000 HD
ENDBRANCH   2  13
BRANCH   9  23
ATOM     23  C   UNL     1       2.184   3.099  21.353  0.00  0.00    +0.000 C 
ATOM     24  F   UNL     1       2.409   4.218  22.088  0.00  0.00    +0.000 F 
ATOM     25  F   UNL     1       0.838   2.880  21.369  0.00  0.00    +0.000 F 
ATOM     26  F   UNL     1       2.735   2.060  22.039  0.00  0.00    +0.000 F 
ENDBRANCH   9  23
TORSDOF 2
ENDMDL
MODEL 3
REMARK VINA RESULT:      -6.8      6.496      8.873
REMARK  Name = 
REMARK  2 active torsions:
REMARK  status: ('A' for Active; 'I' for Inactive)
REMARK    1  A    between atoms: C_2  and  C_3
REMARK    2  A    between atoms: C_18  and  C_19
REMARK                            x       y       z     vdW  Elec       q    Type
REMARK                         _______ _______ _______ _____ _____    ______ ____
ROOT
ATOM      1  O   UNL     1      -0.367  13.395  23.155  0.00  0.00    +0.000 OA
ATOM      2  C   UNL     1      -0.140  12.990  22.016  0.00  0.00    +0.000 C 
ATOM      3  N   UNL     1      -0.168  11.621  21.695  0.00  0.00    +0.000 N 
ATOM      4  C   UNL     1      -0.609  10.660  22.738  0.00  0.00    +0.000 C 
ATOM      5  C   UNL     1       0.418   9.522  22.979  0.00  0.00    +0.000 C 
ATOM      6  C   UNL     1       0.895   9.042  21.660  0.00  0.00    +0.000 A 
ATOM      7  N   UNL     1       1.566   7.901  21.366  0.00  0.00    +0.000 N 
ATOM      8  N   UNL     1       1.872   7.796  20.054  0.00  0.00    +0.000 NA
ATOM      9  C   UNL     1       1.399   8.934  19.500  0.00  0.00    +0.000 A 
ATOM     10  C   UNL     1       0.772   9.739  20.485  0.00  0.00    +0.000 A 
ATOM     11  C   UNL     1       0.119  11.062  20.362  0.00  0.00    +0.000 C 
ATOM     12  H   UNL     1       1.858   7.154  21.989  0.00  0.00    +0.000 HD
ENDROOT
BRANCH   2  13
ATOM     13  C   UNL     1       0.191  13.995  20.964  0.00  0.00    +0.000 A 
ATOM     14  C   UNL     1      -0.814  14.706  20.279  0.00  0.00    +0.000 A 
ATOM     15  C   UNL     1      -0.512  15.541  19.206  0.00  0.00    +0.000 A 
ATOM     16  C   UNL     1       0.811  15.784  18.846  0.00  0.00    +0.000 A 
ATOM     17  C   UNL     1       1.814  15.181  19.614  0.00  0.00    +0.000 A 
ATOM     18  N   UNL     1       3.182  15.318  19.527  0.00  0.00    +0.000 N 
ATOM     19  C   UNL     1       3.795  14.545  20.473  0.00  0.00    +0.000 A 
ATOM     20  C   UNL     1       2.814  13.879  21.171  0.00  0.00    +0.000 A 
ATOM     21  C   UNL     1       1.543  14.290  20.657  0.00  0.00    +0.000 A 
ATOM     22  H   UNL     1       3.656  15.925  18.872  0.00  0.00    +0.000 HD
ENDBRANCH   2  13
BRANCH   9  23
ATOM     23  C   UNL     1       1.535   9.286  18.039  0.00  0.00    +0.000 C 
ATOM     24  F   UNL     1       2.198  10.446  17.801  0.00  0.00    +0.000 F 
ATOM     25  F   UNL     1       2.193   8.307  17.355  0.00  0.00    +0.000 F 
ATOM     26  F   UNL     1       0.316   9.399  17.441  0.00  0.00    +0.000 F 
ENDBRANCH   9  23
TORSDOF 2
ENDMDL
MODEL 4
REMARK VINA RESULT:      -6.8      0.878      1.001
REMARK  Name = 
REMARK  2 active torsions:
REMARK  status: ('A' for Active; 'I' for Inactive)
REMARK    1  A    between atoms: C_2  and  C_3
REMARK    2  A    between atoms: C_18  and  C_19
REMARK                            x       y       z     vdW  Elec       q    Type
REMARK                         _______ _______ _______ _____ _____    ______ ____
ROOT
ATOM      1  O   UNL     1       4.277   8.101  16.454  0.00  0.00    +0.000 OA
ATOM      2  C   UNL     1       4.237   6.920  16.797  0.00  0.00    +0.000 C 
ATOM      3  N   UNL     1       3.274   6.442  17.703  0.00  0.00    +0.000 N 
ATOM      4  C   UNL     1       2.204   7.369  18.152  0.00  0.00    +0.000 C 
ATOM      5  C   UNL     1       2.103   7.466  19.697  0.00  0.00    +0.000 C 
ATOM      6  C   UNL     1       2.200   6.096  20.253  0.00  0.00    +0.000 A 
ATOM      7  N   UNL     1       1.886   5.664  21.501  0.00  0.00    +0.000 N 
ATOM      8  N   UNL     1       2.128   4.346  21.675  0.00  0.00    +0.000 NA
ATOM      9  C   UNL     1       2.642   3.933  20.496  0.00  0.00    +0.000 A 
ATOM     10  C   UNL     1       2.695   5.011  19.576  0.00  0.00    +0.000 A 
ATOM     11  C   UNL     1       3.182   5.050  18.178  0.00  0.00    +0.000 C 
ATOM     12  H   UNL     1       1.515   6.193  22.285  0.00  0.00    +0.000 HD
ENDROOT
BRANCH   2  13
ATOM     13  C   UNL     1       5.261   5.990  16.238  0.00  0.00    +0.000 A 
ATOM     14  C   UNL     1       5.235   5.588  14.888  0.00  0.00    +0.000 A 
ATOM     15  C   UNL     1       6.106   4.617  14.402  0.00  0.00    +0.000 A 
ATOM     16  C   UNL     1       7.107   4.089  15.214  0.00  0.00    +0.000 A 
ATOM     17  C   UNL     1       7.216   4.589  16.517  0.00  0.00    +0.000 A 
ATOM     18  N   UNL     1       8.154   4.306  17.485  0.00  0.00    +0.000 N 
ATOM     19  C   UNL     1       7.887   5.016  18.623  0.00  0.00    +0.000 A 
ATOM     20  C   UNL     1       6.748   5.755  18.398  0.00  0.00    +0.000 A 
ATOM     21  C   UNL     1       6.319   5.518  17.054  0.00  0.00    +0.000 A 
ATOM     22  H   UNL     1       8.938   3.681  17.357  0.00  0.00    +0.000 HD
ENDBRANCH   2  13
BRANCH   9  23
ATOM     23  C   UNL     1       3.098   2.522  20.216  0.00  0.00    +0.000 C 
ATOM     24  F   UNL     1       2.269   1.813  19.410  0.00  0.00    +0.000 F 
ATOM     25  F   UNL     1       4.329   2.510  19.628  0.00  0.00    +0.000 F 
ATOM     26  F   UNL     1       3.233   1.808  21.369  0.00  0.00    +0.000 F 
ENDBRANCH   9  23
TORSDOF 2
ENDMDL
MODEL 5
REMARK VINA RESULT:      -6.7     10.252     11.868
REMARK  Name = 
REMARK  2 active torsions:
REMARK  status: ('A' for Active; 'I' for Inactive)
REMARK    1  A    between atoms: C_2  and  C_3
REMARK    2  A    between atoms: C_18  and  C_19
REMARK                            x       y       z     vdW  Elec       q    Type
REMARK                         _______ _______ _______ _____ _____    ______ ____
ROOT
ATOM      1  O   UNL     1      12.333  13.396  17.552  0.00  0.00    +0.000 OA
ATOM      2  C   UNL     1      11.134  13.505  17.802  0.00  0.00    +0.000 C 
ATOM      3  N   UNL     1      10.417  14.678  17.507  0.00  0.00    +0.000 N 
ATOM      4  C   UNL     1      11.107  15.758  16.757  0.00  0.00    +0.000 C 
ATOM      5  C   UNL     1      11.032  17.131  17.476  0.00  0.00    +0.000 C 
ATOM      6  C   UNL     1       9.649  17.319  17.972  0.00  0.00    +0.000 A 
ATOM      7  N   UNL     1       9.050  18.458  18.401  0.00  0.00    +0.000 N 
ATOM      8  N   UNL     1       7.779  18.258  18.814  0.00  0.00    +0.000 NA
ATOM      9  C   UNL     1       7.574  16.931  18.665  0.00  0.00    +0.000 A 
ATOM     10  C   UNL     1       8.733  16.311  18.130  0.00  0.00    +0.000 A 
ATOM     11  C   UNL     1       8.989  14.889  17.802  0.00  0.00    +0.000 C 
ATOM     12  H   UNL     1       9.430  19.398  18.453  0.00  0.00    +0.000 HD
ENDROOT
BRANCH   2  13
ATOM     13  C   UNL     1      10.445  12.356  18.456  0.00  0.00    +0.000 A 
ATOM     14  C   UNL     1      10.147  11.174  17.749  0.00  0.00    +0.000 A 
ATOM     15  C   UNL     1       9.384  10.158  18.320  0.00  0.00    +0.000 A 
ATOM     16  C   UNL     1       8.983  10.232  19.652  0.00  0.00    +0.000 A 
ATOM     17  C   UNL     1       9.396  11.346  20.392  0.00  0.00    +0.000 A 
ATOM     18  N   UNL     1       9.212  11.624  21.729  0.00  0.00    +0.000 N 
ATOM     19  C   UNL     1       9.776  12.828  22.043  0.00  0.00    +0.000 A 
ATOM     20  C   UNL     1      10.316  13.352  20.891  0.00  0.00    +0.000 A 
ATOM     21  C   UNL     1      10.108  12.412  19.832  0.00  0.00    +0.000 A 
ATOM     22  H   UNL     1       8.747  11.008  22.382  0.00  0.00    +0.000 HD
ENDBRANCH   2  13
BRANCH   9  23
ATOM     23  C   UNL     1       6.292  16.223  19.029  0.00  0.00    +0.000 C 
ATOM     24  F   UNL     1       6.430  15.265  19.979  0.00  0.00    +0.000 F 
ATOM     25  F   UNL     1       5.357  17.104  19.488  0.00  0.00    +0.000 F 
ATOM     26  F   UNL     1       5.732  15.623  17.942  0.00  0.00    +0.000 F 
ENDBRANCH   9  23
TORSDOF 2
ENDMDL
MODEL 6
REMARK VINA RESULT:      -6.7      6.603      8.584
REMARK  Name = 
REMARK  2 active torsions:
REMARK  status: ('A' for Active; 'I' for Inactive)
REMARK    1  A    between atoms: C_2  and  C_3
REMARK    2  A    between atoms: C_18  and  C_19
REMARK                            x       y       z     vdW  Elec       q    Type
REMARK                         _______ _______ _______ _____ _____    ______ ____
ROOT
ATOM      1  O   UNL     1       0.010  11.847  21.460  0.00  0.00    +0.000 OA
ATOM      2  C   UNL     1      -0.224  11.500  20.303  0.00  0.00    +0.000 C 
ATOM      3  N   UNL     1      -1.343  11.974  19.597  0.00  0.00    +0.000 N 
ATOM      4  C   UNL     1      -2.186  13.020  20.230  0.00  0.00    +0.000 C 
ATOM      5  C   UNL     1      -3.686  12.629  20.288  0.00  0.00    +0.000 C 
ATOM      6  C   UNL     1      -4.063  12.042  18.981  0.00  0.00    +0.000 A 
ATOM      7  N   UNL     1      -5.303  11.820  18.477  0.00  0.00    +0.000 N 
ATOM      8  N   UNL     1      -5.277  11.238  17.258  0.00  0.00    +0.000 NA
ATOM      9  C   UNL     1      -3.964  11.059  16.991  0.00  0.00    +0.000 A 
ATOM     10  C   UNL     1      -3.172  11.560  18.056  0.00  0.00    +0.000 A 
ATOM     11  C   UNL     1      -1.701  11.582  18.222  0.00  0.00    +0.000 C 
ATOM     12  H   UNL     1      -6.206  12.025  18.893  0.00  0.00    +0.000 HD
ENDROOT
BRANCH   2  13
ATOM     13  C   UNL     1       0.708  10.530  19.658  0.00  0.00    +0.000 A 
ATOM     14  C   UNL     1       1.418  10.857  18.485  0.00  0.00    +0.000 A 
ATOM     15  C   UNL     1       2.180   9.909  17.808  0.00  0.00    +0.000 A 
ATOM     16  C   UNL     1       2.352   8.630  18.332  0.00  0.00    +0.000 A 
ATOM     17  C   UNL     1       1.756   8.348  19.567  0.00  0.00    +0.000 A 
ATOM     18  N   UNL     1       1.837   7.210  20.337  0.00  0.00    +0.000 N 
ATOM     19  C   UNL     1       1.095   7.355  21.475  0.00  0.00    +0.000 A 
ATOM     20  C   UNL     1       0.506   8.598  21.435  0.00  0.00    +0.000 A 
ATOM     21  C   UNL     1       0.935   9.259  20.241  0.00  0.00    +0.000 A 
ATOM     22  H   UNL     1       2.389   6.396  20.099  0.00  0.00    +0.000 HD
ENDBRANCH   2  13
BRANCH   9  23
ATOM     23  C   UNL     1      -3.434  10.407  15.738  0.00  0.00    +0.000 C 
ATOM     24  F   UNL     1      -2.805   9.222  15.945  0.00  0.00    +0.000 F 
ATOM     25  F   UNL     1      -4.436  10.172  14.843  0.00  0.00    +0.000 F 
ATOM     26  F   UNL     1      -2.547  11.217  15.096  0.00  0.00    +0.000 F 
ENDBRANCH   9  23
TORSDOF 2
ENDMDL
MODEL 7
REMARK VINA RESULT:      -6.6      4.555      6.050
REMARK  Name = 
REMARK  2 active torsions:
REMARK  status: ('A' for Active; 'I' for Inactive)
REMARK    1  A    between atoms: C_2  and  C_3
REMARK    2  A    between atoms: C_18  and  C_19
REMARK                            x       y       z     vdW  Elec       q    Type
REMARK                         _______ _______ _______ _____ _____    ______ ____
ROOT
ATOM      1  O   UNL     1       3.284   7.923  17.308  0.00  0.00    +0.000 OA
ATOM      2  C   UNL     1       2.583   7.815  18.313  0.00  0.00    +0.000 C 
ATOM      3  N   UNL     1       1.719   8.843  18.730  0.00  0.00    +0.000 N 
ATOM      4  C   UNL     1       1.561  10.032  17.854  0.00  0.00    +0.000 C 
ATOM      5  C   UNL     1       1.828  11.367  18.600  0.00  0.00    +0.000 C 
ATOM      6  C   UNL     1       1.154  11.303  19.918  0.00  0.00    +0.000 A 
ATOM      7  N   UNL     1       0.876  12.315  20.777  0.00  0.00    +0.000 N 
ATOM      8  N   UNL     1       0.275  11.890  21.910  0.00  0.00    +0.000 NA
ATOM      9  C   UNL     1       0.194  10.548  21.773  0.00  0.00    +0.000 A 
ATOM     10  C   UNL     1       0.735  10.147  20.525  0.00  0.00    +0.000 A 
ATOM     11  C   UNL     1       0.873   8.795  19.935  0.00  0.00    +0.000 C 
ATOM     12  H   UNL     1       1.066  13.308  20.676  0.00  0.00    +0.000 HD
ENDROOT
BRANCH   2  13
ATOM     13  C   UNL     1       2.684   6.558  19.110  0.00  0.00    +0.000 A 
ATOM     14  C   UNL     1       1.668   6.167  20.004  0.00  0.00    +0.000 A 
ATOM     15  C   UNL     1       1.823   5.069  20.846  0.00  0.00    +0.000 A 
ATOM     16  C   UNL     1       2.950   4.255  20.753  0.00  0.00    +0.000 A 
ATOM     17  C   UNL     1       3.897   4.568  19.771  0.00  0.00    +0.000 A 
ATOM     18  N   UNL     1       5.042   3.892  19.414  0.00  0.00    +0.000 N 
ATOM     19  C   UNL     1       5.684   4.549  18.402  0.00  0.00    +0.000 A 
ATOM     20  C   UNL     1       4.957   5.680  18.110  0.00  0.00    +0.000 A 
ATOM     21  C   UNL     1       3.800   5.699  18.952  0.00  0.00    +0.000 A 
ATOM     22  H   UNL     1       5.345   3.021  19.830  0.00  0.00    +0.000 HD
ENDBRANCH   2  13
BRANCH   9  23
ATOM     23  C   UNL     1      -0.385   9.622  22.815  0.00  0.00    +0.000 C 
ATOM     24  F   UNL     1      -0.863   8.452  22.322  0.00  0.00    +0.000 F 
ATOM     25  F   UNL     1       0.545   9.303  23.761  0.00  0.00    +0.000 F 
ATOM     26  F   UNL     1      -1.410  10.214  23.489  0.00  0.00    +0.000 F 
ENDBRANCH   9  23
TORSDOF 2
ENDMDL
MODEL 8
REMARK VINA RESULT:      -6.5      7.961      9.963
REMARK  Name = 
REMARK  2 active torsions:
REMARK  status: ('A' for Active; 'I' for Inactive)
REMARK    1  A    between atoms: C_2  and  C_3
REMARK    2  A    between atoms: C_18  and  C_19
REMARK                            x       y       z     vdW  Elec       q    Type
REMARK                         _______ _______ _______ _____ _____    ______ ____
ROOT
ATOM      1  O   UNL     1       0.019  12.832  22.305  0.00  0.00    +0.000 OA
ATOM      2  C   UNL     1      -0.609  12.528  21.292  0.00  0.00    +0.000 C 
ATOM      3  N   UNL     1      -1.948  12.912  21.104  0.00  0.00    +0.000 N 
ATOM      4  C   UNL     1      -2.570  13.817  22.104  0.00  0.00    +0.000 C 
ATOM      5  C   UNL     1      -3.896  13.253  22.680  0.00  0.00    +0.000 C 
ATOM      6  C   UNL     1      -4.692  12.704  21.558  0.00  0.00    +0.000 A 
ATOM      7  N   UNL     1      -6.008  12.372  21.534  0.00  0.00    +0.000 N 
ATOM      8  N   UNL     1      -6.400  11.868  20.344  0.00  0.00    +0.000 NA
ATOM      9  C   UNL     1      -5.278  11.855  19.590  0.00  0.00    +0.000 A 
ATOM     10  C   UNL     1      -4.185  12.381  20.325  0.00  0.00    +0.000 A 
ATOM     11  C   UNL     1      -2.768  12.561  19.931  0.00  0.00    +0.000 C 
ATOM     12  H   UNL     1      -6.698  12.447  22.276  0.00  0.00    +0.000 HD
ENDROOT
BRANCH   2  13
ATOM     13  C   UNL     1       0.084  11.710  20.254  0.00  0.00    +0.000 A 
ATOM     14  C   UNL     1      -0.174  10.333  20.105  0.00  0.00    +0.000 A 
ATOM     15  C   UNL     1       0.570   9.544  19.232  0.00  0.00    +0.000 A 
ATOM     16  C   UNL     1       1.524  10.116  18.394  0.00  0.00    +0.000 A 
ATOM     17  C   UNL     1       1.685  11.506  18.447  0.00  0.00    +0.000 A 
ATOM     18  N   UNL     1       2.485  12.323  17.681  0.00  0.00    +0.000 N 
ATOM     19  C   UNL     1       2.340  13.625  18.068  0.00  0.00    +0.000 A 
ATOM     20  C   UNL     1       1.448  13.654  19.116  0.00  0.00    +0.000 A 
ATOM     21  C   UNL     1       0.998  12.317  19.357  0.00  0.00    +0.000 A 
ATOM     22  H   UNL     1       3.074  12.000  16.925  0.00  0.00    +0.000 HD
ENDBRANCH   2  13
BRANCH   9  23
ATOM     23  C   UNL     1      -5.213  11.341  18.173  0.00  0.00    +0.000 C 
ATOM     24  F   UNL     1      -4.295  10.363  17.972  0.00  0.00    +0.000 F 
ATOM     25  F   UNL     1      -6.418  10.840  17.775  0.00  0.00    +0.000 F 
ATOM     26  F   UNL     1      -4.922  12.342  17.296  0.00  0.00    +0.000 F 
ENDBRANCH   9  23
TORSDOF 2
ENDMDL
MODEL 9
REMARK VINA RESULT:      -6.4      9.655     11.853
REMARK  Name = 
REMARK  2 active torsions:
REMARK  status: ('A' for Active; 'I' for Inactive)
REMARK    1  A    between atoms: C_2  and  C_3
REMARK    2  A    between atoms: C_18  and  C_19
REMARK                            x       y       z     vdW  Elec       q    Type
REMARK                         _______ _______ _______ _____ _____    ______ ____
ROOT
ATOM      1  O   UNL     1       6.881  17.929  18.702  0.00  0.00    +0.000 OA
ATOM      2  C   UNL     1       7.084  16.721  18.815  0.00  0.00    +0.000 C 
ATOM      3  N   UNL     1       8.371  16.169  18.686  0.00  0.00    +0.000 N 
ATOM      4  C   UNL     1       9.524  17.093  18.538  0.00  0.00    +0.000 C 
ATOM      5  C   UNL     1      10.392  16.776  17.291  0.00  0.00    +0.000 C 
ATOM      6  C   UNL     1      10.584  15.309  17.222  0.00  0.00    +0.000 A 
ATOM      7  N   UNL     1      11.482  14.605  16.488  0.00  0.00    +0.000 N 
ATOM      8  N   UNL     1      11.357  13.270  16.646  0.00  0.00    +0.000 NA
ATOM      9  C   UNL     1      10.317  13.121  17.495  0.00  0.00    +0.000 A 
ATOM     10  C   UNL     1       9.811  14.388  17.882  0.00  0.00    +0.000 A 
ATOM     11  C   UNL     1       8.685  14.733  18.781  0.00  0.00    +0.000 C 
ATOM     12  H   UNL     1      12.200  14.950  15.857  0.00  0.00    +0.000 HD
ENDROOT
BRANCH   2  13
ATOM     13  C   UNL     1       5.915  15.832  19.075  0.00  0.00    +0.000 A 
ATOM     14  C   UNL     1       5.178  15.254  18.021  0.00  0.00    +0.000 A 
ATOM     15  C   UNL     1       4.008  14.538  18.260  0.00  0.00    +0.000 A 
ATOM     16  C   UNL     1       3.588  14.276  19.562  0.00  0.00    +0.000 A 
ATOM     17  C   UNL     1       4.395  14.735  20.609  0.00  0.00    +0.000 A 
ATOM     18  N   UNL     1       4.259  14.544  21.966  0.00  0.00    +0.000 N 
ATOM     19  C   UNL     1       5.272  15.171  22.636  0.00  0.00    +0.000 A 
ATOM     20  C   UNL     1       6.067  15.797  21.703  0.00  0.00    +0.000 A 
ATOM     21  C   UNL     1       5.542  15.510  20.403  0.00  0.00    +0.000 A 
ATOM     22  H   UNL     1       3.526  13.996  22.396  0.00  0.00    +0.000 HD
ENDBRANCH   2  13
BRANCH   9  23
ATOM     23  C   UNL     1       9.777  11.787  17.951  0.00  0.00    +0.000 C 
ATOM     24  F   UNL     1      10.385  10.713  17.388  0.00  0.00    +0.000 F 
ATOM     25  F   UNL     1       9.893  11.645  19.303  0.00  0.00    +0.000 F 
ATOM     26  F   UNL     1       8.447  11.673  17.680  0.00  0.00    +0.000 F 
ENDBRANCH   9  23
TORSDOF 2
ENDMDL
