MODEL 1
REMARK VINA RESULT:      -9.1      0.000      0.000
REMARK  Name = 
REMARK  6 active torsions:
REMARK  status: ('A' for Active; 'I' for Inactive)
REMARK    1  A    between atoms: C_2  and  C_4
REMARK    2  A    between atoms: C_4  and  C_5
REMARK    3  A    between atoms: C_5  and  N_6
REMARK    4  A    between atoms: C_5  and  C_22
REMARK    5  A    between atoms: C_7  and  C_9
REMARK    6  A    between atoms: C_13  and  C_14
REMARK                            x       y       z     vdW  Elec       q    Type
REMARK                         _______ _______ _______ _____ _____    ______ ____
ROOT
ATOM      1  N   UNL     1       5.100   4.338  16.584  0.00  0.00    +0.000 N 
ATOM      2  C   UNL     1       4.963   3.846  17.868  0.00  0.00    +0.000 C 
ATOM      3  O   UNL     1       5.832   3.983  18.720  0.00  0.00    +0.000 OA
ATOM      4  H   UNL     1       4.375   4.158  15.903  0.00  0.00    +0.000 HD
ENDROOT
BRANCH   2   5
ATOM      5  C   UNL     1       3.701   3.177  18.150  0.00  0.00    +0.000 A 
ATOM      6  C   UNL     1       3.382   1.856  17.897  0.00  0.00    +0.000 A 
ATOM      7  N   UNL     1       2.157   1.650  18.450  0.00  0.00    +0.000 N 
ATOM      8  N   UNL     1       1.604   2.755  18.952  0.00  0.00    +0.000 NA
ATOM      9  C   UNL     1       2.539   3.712  18.810  0.00  0.00    +0.000 A 
ATOM     10  H   UNL     1       1.637   0.781  18.524  0.00  0.00    +0.000 HD
BRANCH   9  11
ATOM     11  C   UNL     1       2.281   5.077  19.281  0.00  0.00    +0.000 A 
ATOM     12  C   UNL     1       1.820   5.324  20.581  0.00  0.00    +0.000 A 
ATOM     13  F   UNL     1       1.595   4.321  21.445  0.00  0.00    +0.000 F 
ATOM     14  C   UNL     1       1.585   6.623  21.041  0.00  0.00    +0.000 A 
ATOM     15  C   UNL     1       1.830   7.714  20.212  0.00  0.00    +0.000 A 
ATOM     16  C   UNL     1       2.274   7.493  18.911  0.00  0.00    +0.000 A 
ATOM     17  C   UNL     1       2.469   6.188  18.450  0.00  0.00    +0.000 A 
ATOM     18  F   UNL     1       2.812   6.039  17.161  0.00  0.00    +0.000 F 
ENDBRANCH   9  11
ENDBRANCH   2   5
BRANCH   1  19
ATOM     19  C   UNL     1       6.312   5.039  16.188  0.00  0.00    +0.000 C 
BRANCH  19  20
ATOM     20  C   UNL     1       6.591   4.782  14.715  0.00  0.00    +0.000 A 
ATOM     21  C   UNL     1       7.647   5.446  14.069  0.00  0.00    +0.000 A 
ATOM     22  C   UNL     1       7.933   5.190  12.726  0.00  0.00    +0.000 A 
ATOM     23  C   UNL     1       7.171   4.266  12.013  0.00  0.00    +0.000 A 
ATOM     24  C   UNL     1       6.122   3.604  12.644  0.00  0.00    +0.000 A 
ATOM     25 CL   UNL     1       5.180   2.459  11.771  0.00  0.00    +0.000 Cl
ATOM     26  C   UNL     1       5.829   3.855  13.983  0.00  0.00    +0.000 A 
ENDBRANCH  19  20
BRANCH  19  27
ATOM     27  C   UNL     1       6.263   6.543  16.470  0.00  0.00    +0.000 C 
BRANCH  27  29
ATOM     28  N   UNL     1       7.725   6.169  18.401  0.00  0.00    +0.000 N 
ATOM     29  C   UNL     1       7.330   7.026  17.420  0.00  0.00    +0.000 C 
ATOM     30  O   UNL     1       7.875   8.118  17.291  0.00  0.00    +0.000 OA
ATOM     31  H   UNL     1       8.414   6.537  19.046  0.00  0.00    +0.000 HD
ATOM     32  H   UNL     1       7.113   5.453  18.767  0.00  0.00    +0.000 HD
ENDBRANCH  27  29
ENDBRANCH  19  27
ENDBRANCH   1  19
TORSDOF 6
ENDMDL
MODEL 2
REMARK VINA RESULT:      -9.1      0.194      1.576
REMARK  Name = 
REMARK  6 active torsions:
REMARK  status: ('A' for Active; 'I' for Inactive)
REMARK    1  A    between atoms: C_2  and  C_4
REMARK    2  A    between atoms: C_4  and  C_5
REMARK    3  A    between atoms: C_5  and  N_6
REMARK    4  A    between atoms: C_5  and  C_22
REMARK    5  A    between atoms: C_7  and  C_9
REMARK    6  A    between atoms: C_13  and  C_14
REMARK                            x       y       z     vdW  Elec       q    Type
REMARK                         _______ _______ _______ _____ _____    ______ ____
ROOT
ATOM      1  N   UNL     1       5.078   4.332  16.603  0.00  0.00    +0.000 N 
ATOM      2  C   UNL     1       4.869   3.838  17.877  0.00  0.00    +0.000 C 
ATOM      3  O   UNL     1       5.716   3.915  18.758  0.00  0.00    +0.000 OA
ATOM      4  H   UNL     1       4.367   4.201  15.897  0.00  0.00    +0.000 HD
ENDROOT
BRANCH   2   5
ATOM      5  C   UNL     1       3.561   3.243  18.110  0.00  0.00    +0.000 A 
ATOM      6  C   UNL     1       3.169   1.950  17.819  0.00  0.00    +0.000 A 
ATOM      7  N   UNL     1       1.918   1.809  18.334  0.00  0.00    +0.000 N 
ATOM      8  N   UNL     1       1.420   2.936  18.845  0.00  0.00    +0.000 NA
ATOM      9  C   UNL     1       2.416   3.835  18.750  0.00  0.00    +0.000 A 
ATOM     10  H   UNL     1       1.343   0.973  18.375  0.00  0.00    +0.000 HD
BRANCH   9  11
ATOM     11  C   UNL     1       2.230   5.204  19.244  0.00  0.00    +0.000 A 
ATOM     12  C   UNL     1       2.470   6.313  18.422  0.00  0.00    +0.000 A 
ATOM     13  F   UNL     1       2.881   6.167  17.152  0.00  0.00    +0.000 F 
ATOM     14  C   UNL     1       2.281   7.621  18.881  0.00  0.00    +0.000 A 
ATOM     15  C   UNL     1       1.824   7.848  20.176  0.00  0.00    +0.000 A 
ATOM     16  C   UNL     1       1.592   6.762  21.016  0.00  0.00    +0.000 A 
ATOM     17  C   UNL     1       1.821   5.462  20.557  0.00  0.00    +0.000 A 
ATOM     18  F   UNL     1       1.666   4.464  21.443  0.00  0.00    +0.000 F 
ENDBRANCH   9  11
ENDBRANCH   2   5
BRANCH   1  19
ATOM     19  C   UNL     1       6.342   4.962  16.255  0.00  0.00    +0.000 C 
BRANCH  19  20
ATOM     20  C   UNL     1       6.629   4.748  14.777  0.00  0.00    +0.000 A 
ATOM     21  C   UNL     1       7.670   5.451  14.149  0.00  0.00    +0.000 A 
ATOM     22  C   UNL     1       7.964   5.234  12.801  0.00  0.00    +0.000 A 
ATOM     23  C   UNL     1       7.223   4.310  12.064  0.00  0.00    +0.000 A 
ATOM     24  C   UNL     1       6.189   3.609  12.677  0.00  0.00    +0.000 A 
ATOM     25 CL   UNL     1       5.274   2.464  11.775  0.00  0.00    +0.000 Cl
ATOM     26  C   UNL     1       5.889   3.822  14.021  0.00  0.00    +0.000 A 
ENDBRANCH  19  20
BRANCH  19  27
ATOM     27  C   UNL     1       6.392   6.453  16.599  0.00  0.00    +0.000 C 
BRANCH  27  29
ATOM     28  N   UNL     1       7.826   5.814  18.481  0.00  0.00    +0.000 N 
ATOM     29  C   UNL     1       7.417   6.809  17.648  0.00  0.00    +0.000 C 
ATOM     30  O   UNL     1       7.918   7.927  17.721  0.00  0.00    +0.000 OA
ATOM     31  H   UNL     1       8.484   6.094  19.198  0.00  0.00    +0.000 HD
ATOM     32  H   UNL     1       7.237   5.023  18.703  0.00  0.00    +0.000 HD
ENDBRANCH  27  29
ENDBRANCH  19  27
ENDBRANCH   1  19
TORSDOF 6
ENDMDL
MODEL 3
REMARK VINA RESULT:      -8.5      1.154      2.145
REMARK  Name = 
REMARK  6 active torsions:
REMARK  status: ('A' for Active; 'I' for Inactive)
REMARK    1  A    between atoms: C_2  and  C_4
REMARK    2  A    between atoms: C_4  and  C_5
REMARK    3  A    between atoms: C_5  and  N_6
REMARK    4  A    between atoms: C_5  and  C_22
REMARK    5  A    between atoms: C_7  and  C_9
REMARK    6  A    between atoms: C_13  and  C_14
REMARK                            x       y       z     vdW  Elec       q    Type
REMARK                         _______ _______ _______ _____ _____    ______ ____
ROOT
ATOM      1  N   UNL     1       5.058   3.962  16.847  0.00  0.00    +0.000 N 
ATOM      2  C   UNL     1       4.766   3.543  18.131  0.00  0.00    +0.000 C 
ATOM      3  O   UNL     1       5.578   3.614  19.045  0.00  0.00    +0.000 OA
ATOM      4  H   UNL     1       4.372   3.839  16.115  0.00  0.00    +0.000 HD
ENDROOT
BRANCH   2   5
ATOM      5  C   UNL     1       3.416   3.038  18.331  0.00  0.00    +0.000 A 
ATOM      6  C   UNL     1       2.960   1.756  18.084  0.00  0.00    +0.000 A 
ATOM      7  N   UNL     1       1.682   1.713  18.547  0.00  0.00    +0.000 N 
ATOM      8  N   UNL     1       1.230   2.891  18.980  0.00  0.00    +0.000 NA
ATOM      9  C   UNL     1       2.282   3.725  18.889  0.00  0.00    +0.000 A 
ATOM     10  H   UNL     1       1.057   0.915  18.601  0.00  0.00    +0.000 HD
BRANCH   9  11
ATOM     11  C   UNL     1       2.156   5.126  19.309  0.00  0.00    +0.000 A 
ATOM     12  C   UNL     1       2.434   6.178  18.426  0.00  0.00    +0.000 A 
ATOM     13  F   UNL     1       2.827   5.945  17.163  0.00  0.00    +0.000 F 
ATOM     14  C   UNL     1       2.304   7.515  18.815  0.00  0.00    +0.000 A 
ATOM     15  C   UNL     1       1.868   7.831  20.098  0.00  0.00    +0.000 A 
ATOM     16  C   UNL     1       1.600   6.803  20.998  0.00  0.00    +0.000 A 
ATOM     17  C   UNL     1       1.771   5.471  20.609  0.00  0.00    +0.000 A 
ATOM     18  F   UNL     1       1.582   4.530  21.549  0.00  0.00    +0.000 F 
ENDBRANCH   9  11
ENDBRANCH   2   5
BRANCH   1  19
ATOM     19  C   UNL     1       6.372   4.501  16.528  0.00  0.00    +0.000 C 
BRANCH  19  20
ATOM     20  C   UNL     1       6.608   4.415  15.028  0.00  0.00    +0.000 A 
ATOM     21  C   UNL     1       5.882   3.500  14.248  0.00  0.00    +0.000 A 
ATOM     22  C   UNL     1       6.067   3.439  12.865  0.00  0.00    +0.000 A 
ATOM     23  C   UNL     1       6.976   4.294  12.243  0.00  0.00    +0.000 A 
ATOM     24  C   UNL     1       7.701   5.204  13.007  0.00  0.00    +0.000 A 
ATOM     25 CL   UNL     1       8.821   6.264  12.245  0.00  0.00    +0.000 Cl
ATOM     26  C   UNL     1       7.523   5.269  14.388  0.00  0.00    +0.000 A 
ENDBRANCH  19  20
BRANCH  19  27
ATOM     27  C   UNL     1       6.576   5.936  17.022  0.00  0.00    +0.000 C 
BRANCH  27  29
ATOM     28  N   UNL     1       8.041   4.922  18.704  0.00  0.00    +0.000 N 
ATOM     29  C   UNL     1       7.602   6.069  18.119  0.00  0.00    +0.000 C 
ATOM     30  O   UNL     1       8.079   7.154  18.440  0.00  0.00    +0.000 OA
ATOM     31  H   UNL     1       8.699   5.048  19.463  0.00  0.00    +0.000 HD
ATOM     32  H   UNL     1       7.471   4.088  18.745  0.00  0.00    +0.000 HD
ENDBRANCH  27  29
ENDBRANCH  19  27
ENDBRANCH   1  19
TORSDOF 6
ENDMDL
MODEL 4
REMARK VINA RESULT:      -8.3      1.902      2.971
REMARK  Name = 
REMARK  6 active torsions:
REMARK  status: ('A' for Active; 'I' for Inactive)
REMARK    1  A    between atoms: C_2  and  C_4
REMARK    2  A    between atoms: C_4  and  C_5
REMARK    3  A    between atoms: C_5  and  N_6
REMARK    4  A    between atoms: C_5  and  C_22
REMARK    5  A    between atoms: C_7  and  C_9
REMARK    6  A    between atoms: C_13  and  C_14
REMARK                            x       y       z     vdW  Elec       q    Type
REMARK                         _______ _______ _______ _____ _____    ______ ____
ROOT
ATOM      1  N   UNL     1       5.485   5.367  16.560  0.00  0.00    +0.000 N 
ATOM      2  C   UNL     1       4.710   5.155  17.685  0.00  0.00    +0.000 C 
ATOM      3  O   UNL     1       4.869   4.188  18.419  0.00  0.00    +0.000 OA
ATOM      4  H   UNL     1       5.283   6.154  15.959  0.00  0.00    +0.000 HD
ENDROOT
BRANCH   2   5
ATOM      5  C   UNL     1       3.708   6.176  17.955  0.00  0.00    +0.000 A 
ATOM      6  C   UNL     1       3.751   7.506  17.581  0.00  0.00    +0.000 A 
ATOM      7  N   UNL     1       2.547   8.035  17.927  0.00  0.00    +0.000 N 
ATOM      8  N   UNL     1       1.761   7.187  18.591  0.00  0.00    +0.000 NA
ATOM      9  C   UNL     1       2.432   6.021  18.602  0.00  0.00    +0.000 A 
ATOM     10  H   UNL     1       2.191   8.968  17.741  0.00  0.00    +0.000 HD
BRANCH   9  11
ATOM     11  C   UNL     1       1.849   4.835  19.239  0.00  0.00    +0.000 A 
ATOM     12  C   UNL     1       1.273   3.809  18.478  0.00  0.00    +0.000 A 
ATOM     13  F   UNL     1       1.231   3.872  17.138  0.00  0.00    +0.000 F 
ATOM     14  C   UNL     1       0.727   2.669  19.077  0.00  0.00    +0.000 A 
ATOM     15  C   UNL     1       0.766   2.520  20.461  0.00  0.00    +0.000 A 
ATOM     16  C   UNL     1       1.320   3.533  21.239  0.00  0.00    +0.000 A 
ATOM     17  C   UNL     1       1.828   4.684  20.631  0.00  0.00    +0.000 A 
ATOM     18  F   UNL     1       2.266   5.662  21.440  0.00  0.00    +0.000 F 
ENDBRANCH   9  11
ENDBRANCH   2   5
BRANCH   1  19
ATOM     19  C   UNL     1       6.529   4.422  16.196  0.00  0.00    +0.000 C 
BRANCH  19  20
ATOM     20  C   UNL     1       6.711   4.420  14.686  0.00  0.00    +0.000 A 
ATOM     21  C   UNL     1       7.650   5.275  14.085  0.00  0.00    +0.000 A 
ATOM     22  C   UNL     1       7.849   5.255  12.703  0.00  0.00    +0.000 A 
ATOM     23  C   UNL     1       7.115   4.379  11.904  0.00  0.00    +0.000 A 
ATOM     24  C   UNL     1       6.182   3.529  12.490  0.00  0.00    +0.000 A 
ATOM     25 CL   UNL     1       5.276   2.443  11.509  0.00  0.00    +0.000 Cl
ATOM     26  C   UNL     1       5.977   3.545  13.868  0.00  0.00    +0.000 A 
ENDBRANCH  19  20
BRANCH  19  27
ATOM     27  C   UNL     1       7.864   4.692  16.896  0.00  0.00    +0.000 C 
BRANCH  27  29
ATOM     28  N   UNL     1       7.831   5.234  19.286  0.00  0.00    +0.000 N 
ATOM     29  C   UNL     1       7.780   5.706  18.010  0.00  0.00    +0.000 C 
ATOM     30  O   UNL     1       7.732   6.913  17.794  0.00  0.00    +0.000 OA
ATOM     31  H   UNL     1       7.733   5.935  20.011  0.00  0.00    +0.000 HD
ATOM     32  H   UNL     1       7.526   4.302  19.527  0.00  0.00    +0.000 HD
ENDBRANCH  27  29
ENDBRANCH  19  27
ENDBRANCH   1  19
TORSDOF 6
ENDMDL
MODEL 5
REMARK VINA RESULT:      -8.3      1.845      2.702
REMARK  Name = 
REMARK  6 active torsions:
REMARK  status: ('A' for Active; 'I' for Inactive)
REMARK    1  A    between atoms: C_2  and  C_4
REMARK    2  A    between atoms: C_4  and  C_5
REMARK    3  A    between atoms: C_5  and  N_6
REMARK    4  A    between atoms: C_5  and  C_22
REMARK    5  A    between atoms: C_7  and  C_9
REMARK    6  A    between atoms: C_13  and  C_14
REMARK                            x       y       z     vdW  Elec       q    Type
REMARK                         _______ _______ _______ _____ _____    ______ ____
ROOT
ATOM      1  N   UNL     1       5.403   5.488  16.492  0.00  0.00    +0.000 N 
ATOM      2  C   UNL     1       4.773   5.418  17.720  0.00  0.00    +0.000 C 
ATOM      3  O   UNL     1       5.121   4.632  18.592  0.00  0.00    +0.000 OA
ATOM      4  H   UNL     1       5.049   6.120  15.787  0.00  0.00    +0.000 HD
ENDROOT
BRANCH   2   5
ATOM      5  C   UNL     1       3.685   6.364  17.919  0.00  0.00    +0.000 A 
ATOM      6  C   UNL     1       3.662   7.698  17.556  0.00  0.00    +0.000 A 
ATOM      7  N   UNL     1       2.401   8.138  17.813  0.00  0.00    +0.000 N 
ATOM      8  N   UNL     1       1.629   7.229  18.410  0.00  0.00    +0.000 NA
ATOM      9  C   UNL     1       2.377   6.114  18.466  0.00  0.00    +0.000 A 
ATOM     10  H   UNL     1       1.996   9.045  17.605  0.00  0.00    +0.000 HD
BRANCH   9  11
ATOM     11  C   UNL     1       1.833   4.883  19.050  0.00  0.00    +0.000 A 
ATOM     12  C   UNL     1       1.650   4.753  20.433  0.00  0.00    +0.000 A 
ATOM     13  F   UNL     1       1.967   5.748  21.277  0.00  0.00    +0.000 F 
ATOM     14  C   UNL     1       1.119   3.588  20.996  0.00  0.00    +0.000 A 
ATOM     15  C   UNL     1       0.735   2.528  20.179  0.00  0.00    +0.000 A 
ATOM     16  C   UNL     1       0.921   2.629  18.804  0.00  0.00    +0.000 A 
ATOM     17  C   UNL     1       1.488   3.783  18.256  0.00  0.00    +0.000 A 
ATOM     18  F   UNL     1       1.723   3.782  16.934  0.00  0.00    +0.000 F 
ENDBRANCH   9  11
ENDBRANCH   2   5
BRANCH   1  19
ATOM     19  C   UNL     1       6.515   4.603  16.182  0.00  0.00    +0.000 C 
BRANCH  19  20
ATOM     20  C   UNL     1       6.703   4.528  14.674  0.00  0.00    +0.000 A 
ATOM     21  C   UNL     1       7.647   5.349  14.037  0.00  0.00    +0.000 A 
ATOM     22  C   UNL     1       7.851   5.262  12.658  0.00  0.00    +0.000 A 
ATOM     23  C   UNL     1       7.117   4.351  11.899  0.00  0.00    +0.000 A 
ATOM     24  C   UNL     1       6.178   3.534  12.522  0.00  0.00    +0.000 A 
ATOM     25 CL   UNL     1       5.272   2.405  11.591  0.00  0.00    +0.000 Cl
ATOM     26  C   UNL     1       5.968   3.617  13.896  0.00  0.00    +0.000 A 
ENDBRANCH  19  20
BRANCH  19  27
ATOM     27  C   UNL     1       7.824   5.010  16.865  0.00  0.00    +0.000 C 
BRANCH  27  29
ATOM     28  N   UNL     1       7.964   6.314  18.935  0.00  0.00    +0.000 N 
ATOM     29  C   UNL     1       7.754   6.331  17.591  0.00  0.00    +0.000 C 
ATOM     30  O   UNL     1       7.580   7.393  17.001  0.00  0.00    +0.000 OA
ATOM     31  H   UNL     1       7.872   7.210  19.399  0.00  0.00    +0.000 HD
ATOM     32  H   UNL     1       7.765   5.500  19.500  0.00  0.00    +0.000 HD
ENDBRANCH  27  29
ENDBRANCH  19  27
ENDBRANCH   1  19
TORSDOF 6
ENDMDL
MODEL 6
REMARK VINA RESULT:      -8.2      1.170      1.478
REMARK  Name = 
REMARK  6 active torsions:
REMARK  status: ('A' for Active; 'I' for Inactive)
REMARK    1  A    between atoms: C_2  and  C_4
REMARK    2  A    between atoms: C_4  and  C_5
REMARK    3  A    between atoms: C_5  and  N_6
REMARK    4  A    between atoms: C_5  and  C_22
REMARK    5  A    between atoms: C_7  and  C_9
REMARK    6  A    between atoms: C_13  and  C_14
REMARK                            x       y       z     vdW  Elec       q    Type
REMARK                         _______ _______ _______ _____ _____    ______ ____
ROOT
ATOM      1  N   UNL     1       5.095   4.225  16.743  0.00  0.00    +0.000 N 
ATOM      2  C   UNL     1       4.947   3.741  18.029  0.00  0.00    +0.000 C 
ATOM      3  O   UNL     1       5.816   3.871  18.883  0.00  0.00    +0.000 OA
ATOM      4  H   UNL     1       4.370   4.052  16.061  0.00  0.00    +0.000 HD
ENDROOT
BRANCH   2   5
ATOM      5  C   UNL     1       3.675   3.092  18.311  0.00  0.00    +0.000 A 
ATOM      6  C   UNL     1       3.350   1.765  18.095  0.00  0.00    +0.000 A 
ATOM      7  N   UNL     1       2.114   1.587  18.633  0.00  0.00    +0.000 N 
ATOM      8  N   UNL     1       1.561   2.712  19.088  0.00  0.00    +0.000 NA
ATOM      9  C   UNL     1       2.506   3.656  18.933  0.00  0.00    +0.000 A 
ATOM     10  H   UNL     1       1.586   0.724  18.726  0.00  0.00    +0.000 HD
BRANCH   9  11
ATOM     11  C   UNL     1       2.251   5.038  19.354  0.00  0.00    +0.000 A 
ATOM     12  C   UNL     1       1.814   5.334  20.652  0.00  0.00    +0.000 A 
ATOM     13  F   UNL     1       1.610   4.365  21.559  0.00  0.00    +0.000 F 
ATOM     14  C   UNL     1       1.582   6.650  21.065  0.00  0.00    +0.000 A 
ATOM     15  C   UNL     1       1.806   7.707  20.189  0.00  0.00    +0.000 A 
ATOM     16  C   UNL     1       2.226   7.437  18.890  0.00  0.00    +0.000 A 
ATOM     17  C   UNL     1       2.418   6.116  18.477  0.00  0.00    +0.000 A 
ATOM     18  F   UNL     1       2.736   5.917  17.188  0.00  0.00    +0.000 F 
ENDBRANCH   9  11
ENDBRANCH   2   5
BRANCH   1  19
ATOM     19  C   UNL     1       6.318   4.907  16.347  0.00  0.00    +0.000 C 
BRANCH  19  20
ATOM     20  C   UNL     1       6.584   4.661  14.870  0.00  0.00    +0.000 A 
ATOM     21  C   UNL     1       5.952   3.598  14.205  0.00  0.00    +0.000 A 
ATOM     22  C   UNL     1       6.163   3.386  12.841  0.00  0.00    +0.000 A 
ATOM     23  C   UNL     1       7.005   4.235  12.123  0.00  0.00    +0.000 A 
ATOM     24  C   UNL     1       7.637   5.291  12.774  0.00  0.00    +0.000 A 
ATOM     25 CL   UNL     1       8.674   6.344  11.894  0.00  0.00    +0.000 Cl
ATOM     26  C   UNL     1       7.433   5.507  14.136  0.00  0.00    +0.000 A 
ENDBRANCH  19  20
BRANCH  19  27
ATOM     27  C   UNL     1       6.299   6.409  16.646  0.00  0.00    +0.000 C 
BRANCH  27  29
ATOM     28  N   UNL     1       7.830   8.162  17.411  0.00  0.00    +0.000 N 
ATOM     29  C   UNL     1       7.418   6.872  17.544  0.00  0.00    +0.000 C 
ATOM     30  O   UNL     1       7.905   6.149  18.409  0.00  0.00    +0.000 OA
ATOM     31  H   UNL     1       8.609   8.431  18.001  0.00  0.00    +0.000 HD
ATOM     32  H   UNL     1       7.737   8.669  16.542  0.00  0.00    +0.000 HD
ENDBRANCH  27  29
ENDBRANCH  19  27
ENDBRANCH   1  19
TORSDOF 6
ENDMDL
MODEL 7
REMARK VINA RESULT:      -8.0      0.962      1.001
REMARK  Name = 
REMARK  6 active torsions:
REMARK  status: ('A' for Active; 'I' for Inactive)
REMARK    1  A    between atoms: C_2  and  C_4
REMARK    2  A    between atoms: C_4  and  C_5
REMARK    3  A    between atoms: C_5  and  N_6
REMARK    4  A    between atoms: C_5  and  C_22
REMARK    5  A    between atoms: C_7  and  C_9
REMARK    6  A    between atoms: C_13  and  C_14
REMARK                            x       y       z     vdW  Elec       q    Type
REMARK                         _______ _______ _______ _____ _____    ______ ____
ROOT
ATOM      1  N   UNL     1       5.408   3.775  16.683  0.00  0.00    +0.000 N 
ATOM      2  C   UNL     1       5.066   3.634  18.015  0.00  0.00    +0.000 C 
ATOM      3  O   UNL     1       5.787   4.027  18.923  0.00  0.00    +0.000 OA
ATOM      4  H   UNL     1       4.802   3.392  15.971  0.00  0.00    +0.000 HD
ENDROOT
BRANCH   2   5
ATOM      5  C   UNL     1       3.774   3.012  18.266  0.00  0.00    +0.000 A 
ATOM      6  C   UNL     1       3.428   1.691  18.049  0.00  0.00    +0.000 A 
ATOM      7  N   UNL     1       2.175   1.541  18.555  0.00  0.00    +0.000 N 
ATOM      8  N   UNL     1       1.633   2.680  18.988  0.00  0.00    +0.000 NA
ATOM      9  C   UNL     1       2.601   3.604  18.852  0.00  0.00    +0.000 A 
ATOM     10  H   UNL     1       1.627   0.690  18.639  0.00  0.00    +0.000 HD
BRANCH   9  11
ATOM     11  C   UNL     1       2.362   4.993  19.259  0.00  0.00    +0.000 A 
ATOM     12  C   UNL     1       2.012   5.316  20.576  0.00  0.00    +0.000 A 
ATOM     13  F   UNL     1       1.879   4.368  21.517  0.00  0.00    +0.000 F 
ATOM     14  C   UNL     1       1.797   6.640  20.974  0.00  0.00    +0.000 A 
ATOM     15  C   UNL     1       1.950   7.678  20.060  0.00  0.00    +0.000 A 
ATOM     16  C   UNL     1       2.284   7.381  18.742  0.00  0.00    +0.000 A 
ATOM     17  C   UNL     1       2.459   6.051  18.348  0.00  0.00    +0.000 A 
ATOM     18  F   UNL     1       2.691   5.825  17.044  0.00  0.00    +0.000 F 
ENDBRANCH   9  11
ENDBRANCH   2   5
BRANCH   1  19
ATOM     19  C   UNL     1       6.669   4.396  16.307  0.00  0.00    +0.000 C 
BRANCH  19  20
ATOM     20  C   UNL     1       6.801   4.408  14.792  0.00  0.00    +0.000 A 
ATOM     21  C   UNL     1       7.789   5.191  14.174  0.00  0.00    +0.000 A 
ATOM     22  C   UNL     1       7.940   5.180  12.786  0.00  0.00    +0.000 A 
ATOM     23  C   UNL     1       7.109   4.385  11.998  0.00  0.00    +0.000 A 
ATOM     24  C   UNL     1       6.125   3.606  12.602  0.00  0.00    +0.000 A 
ATOM     25 CL   UNL     1       5.098   2.620  11.636  0.00  0.00    +0.000 Cl
ATOM     26  C   UNL     1       5.967   3.614  13.986  0.00  0.00    +0.000 A 
ENDBRANCH  19  20
BRANCH  19  27
ATOM     27  C   UNL     1       6.841   5.810  16.871  0.00  0.00    +0.000 C 
BRANCH  27  29
ATOM     28  N   UNL     1       5.376   7.669  17.503  0.00  0.00    +0.000 N 
ATOM     29  C   UNL     1       5.695   6.740  16.562  0.00  0.00    +0.000 C 
ATOM     30  O   UNL     1       5.105   6.716  15.485  0.00  0.00    +0.000 OA
ATOM     31  H   UNL     1       4.577   8.252  17.282  0.00  0.00    +0.000 HD
ATOM     32  H   UNL     1       5.560   7.524  18.486  0.00  0.00    +0.000 HD
ENDBRANCH  27  29
ENDBRANCH  19  27
ENDBRANCH   1  19
TORSDOF 6
ENDMDL
MODEL 8
REMARK VINA RESULT:      -8.0      0.949      1.844
REMARK  Name = 
REMARK  6 active torsions:
REMARK  status: ('A' for Active; 'I' for Inactive)
REMARK    1  A    between atoms: C_2  and  C_4
REMARK    2  A    between atoms: C_4  and  C_5
REMARK    3  A    between atoms: C_5  and  N_6
REMARK    4  A    between atoms: C_5  and  C_22
REMARK    5  A    between atoms: C_7  and  C_9
REMARK    6  A    between atoms: C_13  and  C_14
REMARK                            x       y       z     vdW  Elec       q    Type
REMARK                         _______ _______ _______ _____ _____    ______ ____
ROOT
ATOM      1  N   UNL     1       5.360   3.773  16.739  0.00  0.00    +0.000 N 
ATOM      2  C   UNL     1       5.010   3.633  18.069  0.00  0.00    +0.000 C 
ATOM      3  O   UNL     1       5.738   4.006  18.981  0.00  0.00    +0.000 OA
ATOM      4  H   UNL     1       4.748   3.406  16.024  0.00  0.00    +0.000 HD
ENDROOT
BRANCH   2   5
ATOM      5  C   UNL     1       3.704   3.039  18.313  0.00  0.00    +0.000 A 
ATOM      6  C   UNL     1       3.334   1.723  18.104  0.00  0.00    +0.000 A 
ATOM      7  N   UNL     1       2.073   1.603  18.599  0.00  0.00    +0.000 N 
ATOM      8  N   UNL     1       1.550   2.756  19.018  0.00  0.00    +0.000 NA
ATOM      9  C   UNL     1       2.538   3.659  18.884  0.00  0.00    +0.000 A 
ATOM     10  H   UNL     1       1.507   0.764  18.684  0.00  0.00    +0.000 HD
BRANCH   9  11
ATOM     11  C   UNL     1       2.324   5.056  19.277  0.00  0.00    +0.000 A 
ATOM     12  C   UNL     1       2.427   6.098  18.347  0.00  0.00    +0.000 A 
ATOM     13  F   UNL     1       2.727   5.859  17.060  0.00  0.00    +0.000 F 
ATOM     14  C   UNL     1       2.212   7.431  18.711  0.00  0.00    +0.000 A 
ATOM     15  C   UNL     1       1.864   7.750  20.020  0.00  0.00    +0.000 A 
ATOM     16  C   UNL     1       1.769   6.734  20.966  0.00  0.00    +0.000 A 
ATOM     17  C   UNL     1       2.025   5.410  20.598  0.00  0.00    +0.000 A 
ATOM     18  F   UNL     1       2.005   4.488  21.575  0.00  0.00    +0.000 F 
ENDBRANCH   9  11
ENDBRANCH   2   5
BRANCH   1  19
ATOM     19  C   UNL     1       6.636   4.366  16.371  0.00  0.00    +0.000 C 
BRANCH  19  20
ATOM     20  C   UNL     1       6.771   4.386  14.856  0.00  0.00    +0.000 A 
ATOM     21  C   UNL     1       7.791   5.134  14.246  0.00  0.00    +0.000 A 
ATOM     22  C   UNL     1       7.945   5.130  12.858  0.00  0.00    +0.000 A 
ATOM     23  C   UNL     1       7.083   4.376  12.062  0.00  0.00    +0.000 A 
ATOM     24  C   UNL     1       6.068   3.632  12.657  0.00  0.00    +0.000 A 
ATOM     25 CL   UNL     1       5.004   2.697  11.681  0.00  0.00    +0.000 Cl
ATOM     26  C   UNL     1       5.908   3.634  14.041  0.00  0.00    +0.000 A 
ENDBRANCH  19  20
BRANCH  19  27
ATOM     27  C   UNL     1       6.841   5.771  16.945  0.00  0.00    +0.000 C 
BRANCH  27  29
ATOM     28  N   UNL     1       5.384   7.640  17.571  0.00  0.00    +0.000 N 
ATOM     29  C   UNL     1       5.733   6.739  16.613  0.00  0.00    +0.000 C 
ATOM     30  O   UNL     1       5.200   6.770  15.507  0.00  0.00    +0.000 OA
ATOM     31  H   UNL     1       4.612   8.250  17.332  0.00  0.00    +0.000 HD
ATOM     32  H   UNL     1       5.513   7.454  18.556  0.00  0.00    +0.000 HD
ENDBRANCH  27  29
ENDBRANCH  19  27
ENDBRANCH   1  19
TORSDOF 6
ENDMDL
MODEL 9
REMARK VINA RESULT:      -7.8      3.742      6.785
REMARK  Name = 
REMARK  6 active torsions:
REMARK  status: ('A' for Active; 'I' for Inactive)
REMARK    1  A    between atoms: C_2  and  C_4
REMARK    2  A    between atoms: C_4  and  C_5
REMARK    3  A    between atoms: C_5  and  N_6
REMARK    4  A    between atoms: C_5  and  C_22
REMARK    5  A    between atoms: C_7  and  C_9
REMARK    6  A    between atoms: C_13  and  C_14
REMARK                            x       y       z     vdW  Elec       q    Type
REMARK                         _______ _______ _______ _____ _____    ______ ____
ROOT
ATOM      1  N   UNL     1       3.542   4.935  18.542  0.00  0.00    +0.000 N 
ATOM      2  C   UNL     1       4.638   4.097  18.624  0.00  0.00    +0.000 C 
ATOM      3  O   UNL     1       4.944   3.517  19.658  0.00  0.00    +0.000 OA
ATOM      4  H   UNL     1       3.358   5.429  17.680  0.00  0.00    +0.000 HD
ENDROOT
BRANCH   2   5
ATOM      5  C   UNL     1       5.388   3.926  17.389  0.00  0.00    +0.000 A 
ATOM      6  C   UNL     1       5.247   2.910  16.461  0.00  0.00    +0.000 A 
ATOM      7  N   UNL     1       6.052   3.239  15.416  0.00  0.00    +0.000 N 
ATOM      8  N   UNL     1       6.787   4.332  15.629  0.00  0.00    +0.000 NA
ATOM      9  C   UNL     1       6.383   4.799  16.824  0.00  0.00    +0.000 A 
ATOM     10  H   UNL     1       6.151   2.766  14.523  0.00  0.00    +0.000 HD
BRANCH   9  11
ATOM     11  C   UNL     1       6.970   6.024  17.379  0.00  0.00    +0.000 A 
ATOM     12  C   UNL     1       7.903   5.976  18.423  0.00  0.00    +0.000 A 
ATOM     13  F   UNL     1       8.294   4.808  18.957  0.00  0.00    +0.000 F 
ATOM     14  C   UNL     1       8.476   7.138  18.948  0.00  0.00    +0.000 A 
ATOM     15  C   UNL     1       8.143   8.382  18.420  0.00  0.00    +0.000 A 
ATOM     16  C   UNL     1       7.208   8.456  17.392  0.00  0.00    +0.000 A 
ATOM     17  C   UNL     1       6.613   7.290  16.902  0.00  0.00    +0.000 A 
ATOM     18  F   UNL     1       5.654   7.436  15.973  0.00  0.00    +0.000 F 
ENDBRANCH   9  11
ENDBRANCH   2   5
BRANCH   1  19
ATOM     19  C   UNL     1       2.706   5.173  19.709  0.00  0.00    +0.000 C 
BRANCH  19  20
ATOM     20  C   UNL     1       2.217   6.613  19.703  0.00  0.00    +0.000 A 
ATOM     21  C   UNL     1       2.365   7.405  18.553  0.00  0.00    +0.000 A 
ATOM     22  C   UNL     1       1.888   8.717  18.525  0.00  0.00    +0.000 A 
ATOM     23  C   UNL     1       1.254   9.254  19.646  0.00  0.00    +0.000 A 
ATOM     24  C   UNL     1       1.104   8.477  20.791  0.00  0.00    +0.000 A 
ATOM     25 CL   UNL     1       0.320   9.131  22.176  0.00  0.00    +0.000 Cl
ATOM     26  C   UNL     1       1.580   7.168  20.826  0.00  0.00    +0.000 A 
ENDBRANCH  19  20
BRANCH  19  27
ATOM     27  C   UNL     1       1.523   4.206  19.815  0.00  0.00    +0.000 C 
BRANCH  27  29
ATOM     28  N   UNL     1       1.171   2.051  18.702  0.00  0.00    +0.000 N 
ATOM     29  C   UNL     1       1.272   3.401  18.564  0.00  0.00    +0.000 C 
ATOM     30  O   UNL     1       1.100   3.930  17.469  0.00  0.00    +0.000 OA
ATOM     31  H   UNL     1       1.042   1.536  17.839  0.00  0.00    +0.000 HD
ATOM     32  H   UNL     1       1.629   1.552  19.452  0.00  0.00    +0.000 HD
ENDBRANCH  27  29
ENDBRANCH  19  27
ENDBRANCH   1  19
TORSDOF 6
ENDMDL
