MODEL 1
REMARK VINA RESULT:      -9.0      0.000      0.000
REMARK  Name = 
REMARK  6 active torsions:
REMARK  status: ('A' for Active; 'I' for Inactive)
REMARK    1  A    between atoms: C_2  and  C_22
REMARK    2  A    between atoms: N_3  and  C_4
REMARK    3  A    between atoms: C_8  and  C_9
REMARK    4  A    between atoms: C_14  and  O_15
REMARK    5  A    between atoms: C_14  and  C_16
REMARK    6  A    between atoms: C_16  and  O_18
REMARK                            x       y       z     vdW  Elec       q    Type
REMARK                         _______ _______ _______ _____ _____    ______ ____
ROOT
ATOM      1  C   UNL     1       1.718   5.701  20.435  0.00  0.00    +0.000 A 
ATOM      2  C   UNL     1       0.805   4.656  20.290  0.00  0.00    +0.000 A 
ATOM      3  C   UNL     1       1.240   3.380  19.915  0.00  0.00    +0.000 A 
ATOM      4  C   UNL     1       2.589   3.147  19.644  0.00  0.00    +0.000 A 
ATOM      5  C   UNL     1       3.508   4.195  19.740  0.00  0.00    +0.000 A 
ATOM      6  C   UNL     1       3.078   5.455  20.183  0.00  0.00    +0.000 A 
ENDROOT
BRANCH   5   7
ATOM      7  C   UNL     1       4.934   3.909  19.412  0.00  0.00    +0.000 C 
ATOM      8  O   UNL     1       5.398   2.842  19.806  0.00  0.00    +0.000 OA
ATOM      9  N   UNL     1       5.683   4.826  18.665  0.00  0.00    +0.000 N 
ATOM     10  C   UNL     1       7.090   4.532  18.380  0.00  0.00    +0.000 C 
ATOM     11  C   UNL     1       7.316   4.279  16.887  0.00  0.00    +0.000 C 
ATOM     12  C   UNL     1       6.707   5.388  16.016  0.00  0.00    +0.000 C 
ATOM     13  C   UNL     1       5.259   5.685  16.413  0.00  0.00    +0.000 C 
ATOM     14  C   UNL     1       5.140   5.948  17.907  0.00  0.00    +0.000 C 
BRANCH  12  15
ATOM     15  O   UNL     1       7.468   6.609  16.145  0.00  0.00    +0.000 OA
ATOM     16  H   UNL     1       7.686   6.716  17.092  0.00  0.00    +0.000 HD
ENDBRANCH  12  15
BRANCH  12  17
ATOM     17  C   UNL     1       6.718   5.013  14.528  0.00  0.00    +0.000 C 
ATOM     18  O   UNL     1       5.872   4.357  13.948  0.00  0.00    +0.000 OA
BRANCH  17  19
ATOM     19  O   UNL     1       7.814   5.527  13.899  0.00  0.00    +0.000 OA
ATOM     20  H   UNL     1       7.521   6.173  13.218  0.00  0.00    +0.000 HD
ENDBRANCH  17  19
ENDBRANCH  12  17
ENDBRANCH   5   7
BRANCH   1  23
ATOM     21  O   UNL     1       1.998   8.309  18.950  0.00  0.00    +0.000 OA
ATOM     22  C   UNL     1       1.529   8.196  20.077  0.00  0.00    +0.000 C 
ATOM     23  N   UNL     1       1.352   7.014  20.793  0.00  0.00    +0.000 N 
ATOM     24  H   UNL     1       0.858   7.130  21.674  0.00  0.00    +0.000 HD
BRANCH  22  25
ATOM     25  C   UNL     1       1.186   9.415  20.943  0.00  0.00    +0.000 C 
ATOM     26  C   UNL     1       0.969  10.729  20.184  0.00  0.00    +0.000 C 
ATOM     27  C   UNL     1       0.146  11.407  21.223  0.00  0.00    +0.000 A 
ATOM     28  C   UNL     1      -0.110  12.748  21.445  0.00  0.00    +0.000 A 
ATOM     29  C   UNL     1      -0.933  13.089  22.525  0.00  0.00    +0.000 A 
ATOM     30  C   UNL     1      -1.512  12.095  23.335  0.00  0.00    +0.000 A 
ATOM     31  C   UNL     1      -1.261  10.747  23.088  0.00  0.00    +0.000 A 
ATOM     32  C   UNL     1      -0.411  10.438  22.048  0.00  0.00    +0.000 A 
ATOM     33  O   UNL     1       0.004   9.164  21.747  0.00  0.00    +0.000 OA
ENDBRANCH  22  25
ENDBRANCH   1  23
TORSDOF 6
ENDMDL
MODEL 2
REMARK VINA RESULT:      -8.5      5.493      8.275
REMARK  Name = 
REMARK  6 active torsions:
REMARK  status: ('A' for Active; 'I' for Inactive)
REMARK    1  A    between atoms: C_2  and  C_22
REMARK    2  A    between atoms: N_3  and  C_4
REMARK    3  A    between atoms: C_8  and  C_9
REMARK    4  A    between atoms: C_14  and  O_15
REMARK    5  A    between atoms: C_14  and  C_16
REMARK    6  A    between atoms: C_16  and  O_18
REMARK                            x       y       z     vdW  Elec       q    Type
REMARK                         _______ _______ _______ _____ _____    ______ ____
ROOT
ATOM      1  C   UNL     1       7.804   7.883  18.064  0.00  0.00    +0.000 A 
ATOM      2  C   UNL     1       8.478   6.964  18.869  0.00  0.00    +0.000 A 
ATOM      3  C   UNL     1       7.933   5.699  19.111  0.00  0.00    +0.000 A 
ATOM      4  C   UNL     1       6.689   5.354  18.582  0.00  0.00    +0.000 A 
ATOM      5  C   UNL     1       5.981   6.280  17.811  0.00  0.00    +0.000 A 
ATOM      6  C   UNL     1       6.563   7.522  17.514  0.00  0.00    +0.000 A 
ENDROOT
BRANCH   5   7
ATOM      7  C   UNL     1       4.642   5.881  17.290  0.00  0.00    +0.000 C 
ATOM      8  O   UNL     1       4.563   5.612  16.093  0.00  0.00    +0.000 OA
ATOM      9  N   UNL     1       3.545   5.803  18.154  0.00  0.00    +0.000 N 
ATOM     10  C   UNL     1       2.235   5.434  17.610  0.00  0.00    +0.000 C 
ATOM     11  C   UNL     1       1.781   4.066  18.126  0.00  0.00    +0.000 C 
ATOM     12  C   UNL     1       1.888   3.964  19.655  0.00  0.00    +0.000 C 
ATOM     13  C   UNL     1       3.258   4.425  20.156  0.00  0.00    +0.000 C 
ATOM     14  C   UNL     1       3.609   5.802  19.612  0.00  0.00    +0.000 C 
BRANCH  12  15
ATOM     15  O   UNL     1       0.879   4.780  20.290  0.00  0.00    +0.000 OA
ATOM     16  H   UNL     1       1.290   5.189  21.076  0.00  0.00    +0.000 HD
ENDBRANCH  12  15
BRANCH  12  17
ATOM     17  C   UNL     1       1.669   2.525  20.145  0.00  0.00    +0.000 C 
ATOM     18  O   UNL     1       1.541   2.175  21.303  0.00  0.00    +0.000 OA
BRANCH  17  19
ATOM     19  O   UNL     1       1.616   1.653  19.099  0.00  0.00    +0.000 OA
ATOM     20  H   UNL     1       1.368   2.143  18.282  0.00  0.00    +0.000 HD
ENDBRANCH  17  19
ENDBRANCH  12  17
ENDBRANCH   5   7
BRANCH   1  23
ATOM     21  O   UNL     1       9.322   9.839  19.782  0.00  0.00    +0.000 OA
ATOM     22  C   UNL     1       8.959  10.059  18.632  0.00  0.00    +0.000 C 
ATOM     23  N   UNL     1       8.282   9.180  17.789  0.00  0.00    +0.000 N 
ATOM     24  H   UNL     1       8.158   9.525  16.841  0.00  0.00    +0.000 HD
BRANCH  22  25
ATOM     25  C   UNL     1       9.087  11.445  17.988  0.00  0.00    +0.000 C 
ATOM     26  C   UNL     1       8.640  12.625  18.856  0.00  0.00    +0.000 C 
ATOM     27  C   UNL     1       9.430  13.677  18.158  0.00  0.00    +0.000 A 
ATOM     28  C   UNL     1       9.268  15.049  18.107  0.00  0.00    +0.000 A 
ATOM     29  C   UNL     1      10.184  15.790  17.350  0.00  0.00    +0.000 A 
ATOM     30  C   UNL     1      11.257  15.160  16.693  0.00  0.00    +0.000 A 
ATOM     31  C   UNL     1      11.418  13.778  16.769  0.00  0.00    +0.000 A 
ATOM     32  C   UNL     1      10.479  13.065  17.483  0.00  0.00    +0.000 A 
ATOM     33  O   UNL     1      10.453  11.695  17.565  0.00  0.00    +0.000 OA
ENDBRANCH  22  25
ENDBRANCH   1  23
TORSDOF 6
ENDMDL
MODEL 3
REMARK VINA RESULT:      -8.5      4.488     10.714
REMARK  Name = 
REMARK  6 active torsions:
REMARK  status: ('A' for Active; 'I' for Inactive)
REMARK    1  A    between atoms: C_2  and  C_22
REMARK    2  A    between atoms: N_3  and  C_4
REMARK    3  A    between atoms: C_8  and  C_9
REMARK    4  A    between atoms: C_14  and  O_15
REMARK    5  A    between atoms: C_14  and  C_16
REMARK    6  A    between atoms: C_16  and  O_18
REMARK                            x       y       z     vdW  Elec       q    Type
REMARK                         _______ _______ _______ _____ _____    ______ ____
ROOT
ATOM      1  C   UNL     1       0.355  10.359  19.178  0.00  0.00    +0.000 A 
ATOM      2  C   UNL     1       0.768  11.666  19.441  0.00  0.00    +0.000 A 
ATOM      3  C   UNL     1      -0.076  12.747  19.163  0.00  0.00    +0.000 A 
ATOM      4  C   UNL     1      -1.327  12.533  18.584  0.00  0.00    +0.000 A 
ATOM      5  C   UNL     1      -1.736  11.233  18.273  0.00  0.00    +0.000 A 
ATOM      6  C   UNL     1      -0.915  10.149  18.616  0.00  0.00    +0.000 A 
ENDROOT
BRANCH   5   7
ATOM      7  C   UNL     1      -3.068  11.052  17.627  0.00  0.00    +0.000 C 
ATOM      8  O   UNL     1      -3.143  10.235  16.713  0.00  0.00    +0.000 OA
ATOM      9  N   UNL     1      -4.175  11.779  18.081  0.00  0.00    +0.000 N 
ATOM     10  C   UNL     1      -5.466  11.601  17.411  0.00  0.00    +0.000 C 
ATOM     11  C   UNL     1      -6.484  10.924  18.332  0.00  0.00    +0.000 C 
ATOM     12  C   UNL     1      -6.566  11.611  19.704  0.00  0.00    +0.000 C 
ATOM     13  C   UNL     1      -5.178  11.821  20.313  0.00  0.00    +0.000 C 
ATOM     14  C   UNL     1      -4.248  12.523  19.334  0.00  0.00    +0.000 C 
BRANCH  12  15
ATOM     15  O   UNL     1      -7.206  12.901  19.587  0.00  0.00    +0.000 OA
ATOM     16  H   UNL     1      -7.089  13.199  18.664  0.00  0.00    +0.000 HD
ENDBRANCH  12  15
BRANCH  12  17
ATOM     17  C   UNL     1      -7.397  10.791  20.701  0.00  0.00    +0.000 C 
ATOM     18  O   UNL     1      -7.598  11.074  21.867  0.00  0.00    +0.000 OA
BRANCH  17  19
ATOM     19  O   UNL     1      -7.916   9.678  20.110  0.00  0.00    +0.000 OA
ATOM     20  H   UNL     1      -7.213   8.994  20.037  0.00  0.00    +0.000 HD
ENDBRANCH  17  19
ENDBRANCH  12  17
ENDBRANCH   5   7
BRANCH   1  23
ATOM     21  O   UNL     1       2.183   8.808  17.352  0.00  0.00    +0.000 OA
ATOM     22  C   UNL     1       1.967   8.525  18.525  0.00  0.00    +0.000 C 
ATOM     23  N   UNL     1       1.155   9.224  19.416  0.00  0.00    +0.000 N 
ATOM     24  H   UNL     1       1.186   8.875  20.370  0.00  0.00    +0.000 HD
BRANCH  22  25
ATOM     25  C   UNL     1       2.477   7.224  19.157  0.00  0.00    +0.000 C 
ATOM     26  C   UNL     1       1.715   6.742  20.396  0.00  0.00    +0.000 C 
ATOM     27  C   UNL     1       2.104   5.308  20.306  0.00  0.00    +0.000 A 
ATOM     28  C   UNL     1       2.130   4.313  21.265  0.00  0.00    +0.000 A 
ATOM     29  C   UNL     1       2.556   3.037  20.876  0.00  0.00    +0.000 A 
ATOM     30  C   UNL     1       2.909   2.768  19.541  0.00  0.00    +0.000 A 
ATOM     31  C   UNL     1       2.860   3.776  18.581  0.00  0.00    +0.000 A 
ATOM     32  C   UNL     1       2.481   5.034  18.996  0.00  0.00    +0.000 A 
ATOM     33  O   UNL     1       2.479   6.143  18.187  0.00  0.00    +0.000 OA
ENDBRANCH  22  25
ENDBRANCH   1  23
TORSDOF 6
ENDMDL
MODEL 4
REMARK VINA RESULT:      -8.4      3.756     10.756
REMARK  Name = 
REMARK  6 active torsions:
REMARK  status: ('A' for Active; 'I' for Inactive)
REMARK    1  A    between atoms: C_2  and  C_22
REMARK    2  A    between atoms: N_3  and  C_4
REMARK    3  A    between atoms: C_8  and  C_9
REMARK    4  A    between atoms: C_14  and  O_15
REMARK    5  A    between atoms: C_14  and  C_16
REMARK    6  A    between atoms: C_16  and  O_18
REMARK                            x       y       z     vdW  Elec       q    Type
REMARK                         _______ _______ _______ _____ _____    ______ ____
ROOT
ATOM      1  C   UNL     1       0.936  10.327  19.092  0.00  0.00    +0.000 A 
ATOM      2  C   UNL     1       1.664  11.461  18.729  0.00  0.00    +0.000 A 
ATOM      3  C   UNL     1       1.019  12.688  18.538  0.00  0.00    +0.000 A 
ATOM      4  C   UNL     1      -0.366  12.784  18.671  0.00  0.00    +0.000 A 
ATOM      5  C   UNL     1      -1.114  11.648  18.990  0.00  0.00    +0.000 A 
ATOM      6  C   UNL     1      -0.456  10.436  19.247  0.00  0.00    +0.000 A 
ENDROOT
BRANCH   5   7
ATOM      7  C   UNL     1      -2.595  11.789  19.093  0.00  0.00    +0.000 C 
ATOM      8  O   UNL     1      -3.281  10.985  18.465  0.00  0.00    +0.000 OA
ATOM      9  N   UNL     1      -3.153  12.789  19.898  0.00  0.00    +0.000 N 
ATOM     10  C   UNL     1      -4.611  12.922  19.960  0.00  0.00    +0.000 C 
ATOM     11  C   UNL     1      -5.146  12.559  21.348  0.00  0.00    +0.000 C 
ATOM     12  C   UNL     1      -4.390  13.292  22.466  0.00  0.00    +0.000 C 
ATOM     13  C   UNL     1      -2.874  13.163  22.300  0.00  0.00    +0.000 C 
ATOM     14  C   UNL     1      -2.437  13.570  20.900  0.00  0.00    +0.000 C 
BRANCH  12  15
ATOM     15  O   UNL     1      -4.725  14.698  22.467  0.00  0.00    +0.000 OA
ATOM     16  H   UNL     1      -4.725  14.996  21.536  0.00  0.00    +0.000 HD
ENDBRANCH  12  15
BRANCH  12  17
ATOM     17  C   UNL     1      -4.758  12.747  23.853  0.00  0.00    +0.000 C 
ATOM     18  O   UNL     1      -4.219  11.817  24.423  0.00  0.00    +0.000 OA
BRANCH  17  19
ATOM     19  O   UNL     1      -5.784  13.457  24.404  0.00  0.00    +0.000 OA
ATOM     20  H   UNL     1      -6.608  12.920  24.359  0.00  0.00    +0.000 HD
ENDBRANCH  17  19
ENDBRANCH  12  17
ENDBRANCH   5   7
BRANCH   1  23
ATOM     21  O   UNL     1       2.533   8.575  17.232  0.00  0.00    +0.000 OA
ATOM     22  C   UNL     1       2.223   8.272  18.379  0.00  0.00    +0.000 C 
ATOM     23  N   UNL     1       1.513   9.056  19.285  0.00  0.00    +0.000 N 
ATOM     24  H   UNL     1       1.443   8.656  20.217  0.00  0.00    +0.000 HD
BRANCH  22  25
ATOM     25  C   UNL     1       2.469   6.869  18.946  0.00  0.00    +0.000 C 
ATOM     26  C   UNL     1       1.797   6.566  20.289  0.00  0.00    +0.000 C 
ATOM     27  C   UNL     1       1.789   5.084  20.162  0.00  0.00    +0.000 A 
ATOM     28  C   UNL     1       1.698   4.091  21.120  0.00  0.00    +0.000 A 
ATOM     29  C   UNL     1       1.723   2.758  20.690  0.00  0.00    +0.000 A 
ATOM     30  C   UNL     1       1.799   2.442  19.321  0.00  0.00    +0.000 A 
ATOM     31  C   UNL     1       1.871   3.453  18.365  0.00  0.00    +0.000 A 
ATOM     32  C   UNL     1       1.891   4.755  18.815  0.00  0.00    +0.000 A 
ATOM     33  O   UNL     1       2.055   5.848  18.001  0.00  0.00    +0.000 OA
ENDBRANCH  22  25
ENDBRANCH   1  23
TORSDOF 6
ENDMDL
MODEL 5
REMARK VINA RESULT:      -8.2      2.785      3.914
REMARK  Name = 
REMARK  6 active torsions:
REMARK  status: ('A' for Active; 'I' for Inactive)
REMARK    1  A    between atoms: C_2  and  C_22
REMARK    2  A    between atoms: N_3  and  C_4
REMARK    3  A    between atoms: C_8  and  C_9
REMARK    4  A    between atoms: C_14  and  O_15
REMARK    5  A    between atoms: C_14  and  C_16
REMARK    6  A    between atoms: C_16  and  O_18
REMARK                            x       y       z     vdW  Elec       q    Type
REMARK                         _______ _______ _______ _____ _____    ______ ____
ROOT
ATOM      1  C   UNL     1       1.603   8.594  19.860  0.00  0.00    +0.000 A 
ATOM      2  C   UNL     1       1.146   8.161  21.105  0.00  0.00    +0.000 A 
ATOM      3  C   UNL     1       1.181   6.804  21.442  0.00  0.00    +0.000 A 
ATOM      4  C   UNL     1       1.639   5.861  20.522  0.00  0.00    +0.000 A 
ATOM      5  C   UNL     1       2.057   6.274  19.254  0.00  0.00    +0.000 A 
ATOM      6  C   UNL     1       2.085   7.642  18.945  0.00  0.00    +0.000 A 
ENDROOT
BRANCH   5   7
ATOM      7  C   UNL     1       2.511   5.230  18.290  0.00  0.00    +0.000 C 
ATOM      8  O   UNL     1       1.692   4.833  17.465  0.00  0.00    +0.000 OA
ATOM      9  N   UNL     1       3.828   4.758  18.332  0.00  0.00    +0.000 N 
ATOM     10  C   UNL     1       4.240   3.713  17.391  0.00  0.00    +0.000 C 
ATOM     11  C   UNL     1       5.261   4.242  16.380  0.00  0.00    +0.000 C 
ATOM     12  C   UNL     1       6.422   4.976  17.067  0.00  0.00    +0.000 C 
ATOM     13  C   UNL     1       5.918   6.006  18.080  0.00  0.00    +0.000 C 
ATOM     14  C   UNL     1       4.931   5.380  19.056  0.00  0.00    +0.000 C 
BRANCH  12  15
ATOM     15  O   UNL     1       7.274   4.039  17.762  0.00  0.00    +0.000 OA
ATOM     16  H   UNL     1       6.961   3.142  17.537  0.00  0.00    +0.000 HD
ENDBRANCH  12  15
BRANCH  12  17
ATOM     17  C   UNL     1       7.308   5.713  16.052  0.00  0.00    +0.000 C 
ATOM     18  O   UNL     1       7.608   5.314  14.942  0.00  0.00    +0.000 OA
BRANCH  17  19
ATOM     19  O   UNL     1       7.724   6.915  16.543  0.00  0.00    +0.000 OA
ATOM     20  H   UNL     1       8.248   6.764  17.362  0.00  0.00    +0.000 HD
ENDBRANCH  17  19
ENDBRANCH  12  17
ENDBRANCH   5   7
BRANCH   1  23
ATOM     21  O   UNL     1      -0.694  10.424  19.186  0.00  0.00    +0.000 OA
ATOM     22  C   UNL     1       0.489  10.738  19.118  0.00  0.00    +0.000 C 
ATOM     23  N   UNL     1       1.583   9.940  19.444  0.00  0.00    +0.000 N 
ATOM     24  H   UNL     1       2.477  10.423  19.406  0.00  0.00    +0.000 HD
BRANCH  22  25
ATOM     25  C   UNL     1       0.945  12.067  18.502  0.00  0.00    +0.000 C 
ATOM     26  C   UNL     1       0.367  13.331  19.147  0.00  0.00    +0.000 C 
ATOM     27  C   UNL     1       1.433  14.269  18.700  0.00  0.00    +0.000 A 
ATOM     28  C   UNL     1       1.429  15.644  18.557  0.00  0.00    +0.000 A 
ATOM     29  C   UNL     1       2.603  16.260  18.103  0.00  0.00    +0.000 A 
ATOM     30  C   UNL     1       3.760  15.505  17.837  0.00  0.00    +0.000 A 
ATOM     31  C   UNL     1       3.754  14.121  18.005  0.00  0.00    +0.000 A 
ATOM     32  C   UNL     1       2.575  13.533  18.409  0.00  0.00    +0.000 A 
ATOM     33  O   UNL     1       2.392  12.178  18.523  0.00  0.00    +0.000 OA
ENDBRANCH  22  25
ENDBRANCH   1  23
TORSDOF 6
ENDMDL
MODEL 6
REMARK VINA RESULT:      -8.1      3.551     11.029
REMARK  Name = 
REMARK  6 active torsions:
REMARK  status: ('A' for Active; 'I' for Inactive)
REMARK    1  A    between atoms: C_2  and  C_22
REMARK    2  A    between atoms: N_3  and  C_4
REMARK    3  A    between atoms: C_8  and  C_9
REMARK    4  A    between atoms: C_14  and  O_15
REMARK    5  A    between atoms: C_14  and  C_16
REMARK    6  A    between atoms: C_16  and  O_18
REMARK                            x       y       z     vdW  Elec       q    Type
REMARK                         _______ _______ _______ _____ _____    ______ ____
ROOT
ATOM      1  C   UNL     1       0.258  10.184  19.530  0.00  0.00    +0.000 A 
ATOM      2  C   UNL     1      -0.604  10.410  18.457  0.00  0.00    +0.000 A 
ATOM      3  C   UNL     1      -1.390  11.566  18.409  0.00  0.00    +0.000 A 
ATOM      4  C   UNL     1      -1.348  12.490  19.453  0.00  0.00    +0.000 A 
ATOM      5  C   UNL     1      -0.524  12.255  20.556  0.00  0.00    +0.000 A 
ATOM      6  C   UNL     1       0.313  11.129  20.568  0.00  0.00    +0.000 A 
ENDROOT
BRANCH   5   7
ATOM      7  C   UNL     1      -0.532  13.254  21.664  0.00  0.00    +0.000 C 
ATOM      8  O   UNL     1       0.248  14.199  21.574  0.00  0.00    +0.000 OA
ATOM      9  N   UNL     1      -1.419  13.107  22.737  0.00  0.00    +0.000 N 
ATOM     10  C   UNL     1      -1.388  14.089  23.825  0.00  0.00    +0.000 C 
ATOM     11  C   UNL     1      -2.670  14.925  23.860  0.00  0.00    +0.000 C 
ATOM     12  C   UNL     1      -3.930  14.047  23.828  0.00  0.00    +0.000 C 
ATOM     13  C   UNL     1      -3.864  13.005  22.709  0.00  0.00    +0.000 C 
ATOM     14  C   UNL     1      -2.568  12.209  22.773  0.00  0.00    +0.000 C 
BRANCH  12  15
ATOM     15  O   UNL     1      -4.094  13.349  25.083  0.00  0.00    +0.000 OA
ATOM     16  H   UNL     1      -4.928  12.844  25.026  0.00  0.00    +0.000 HD
ENDBRANCH  12  15
BRANCH  12  17
ATOM     17  C   UNL     1      -5.200  14.883  23.616  0.00  0.00    +0.000 C 
ATOM     18  O   UNL     1      -5.273  15.931  23.003  0.00  0.00    +0.000 OA
BRANCH  17  19
ATOM     19  O   UNL     1      -6.281  14.291  24.200  0.00  0.00    +0.000 OA
ATOM     20  H   UNL     1      -6.900  13.987  23.498  0.00  0.00    +0.000 HD
ENDBRANCH  17  19
ENDBRANCH  12  17
ENDBRANCH   5   7
BRANCH   1  23
ATOM     21  O   UNL     1       2.198   8.908  17.608  0.00  0.00    +0.000 OA
ATOM     22  C   UNL     1       1.931   8.470  18.722  0.00  0.00    +0.000 C 
ATOM     23  N   UNL     1       1.066   9.036  19.655  0.00  0.00    +0.000 N 
ATOM     24  H   UNL     1       1.058   8.564  20.555  0.00  0.00    +0.000 HD
BRANCH  22  25
ATOM     25  C   UNL     1       2.433   7.102  19.201  0.00  0.00    +0.000 C 
ATOM     26  C   UNL     1       1.833   6.597  20.517  0.00  0.00    +0.000 C 
ATOM     27  C   UNL     1       2.097   5.149  20.297  0.00  0.00    +0.000 A 
ATOM     28  C   UNL     1       2.194   4.098  21.190  0.00  0.00    +0.000 A 
ATOM     29  C   UNL     1       2.460   2.822  20.676  0.00  0.00    +0.000 A 
ATOM     30  C   UNL     1       2.587   2.612  19.291  0.00  0.00    +0.000 A 
ATOM     31  C   UNL     1       2.468   3.678  18.401  0.00  0.00    +0.000 A 
ATOM     32  C   UNL     1       2.251   4.931  18.933  0.00  0.00    +0.000 A 
ATOM     33  O   UNL     1       2.208   6.084  18.190  0.00  0.00    +0.000 OA
ENDBRANCH  22  25
ENDBRANCH   1  23
TORSDOF 6
ENDMDL
MODEL 7
REMARK VINA RESULT:      -8.1      4.290      9.242
REMARK  Name = 
REMARK  6 active torsions:
REMARK  status: ('A' for Active; 'I' for Inactive)
REMARK    1  A    between atoms: C_2  and  C_22
REMARK    2  A    between atoms: N_3  and  C_4
REMARK    3  A    between atoms: C_8  and  C_9
REMARK    4  A    between atoms: C_14  and  O_15
REMARK    5  A    between atoms: C_14  and  C_16
REMARK    6  A    between atoms: C_16  and  O_18
REMARK                            x       y       z     vdW  Elec       q    Type
REMARK                         _______ _______ _______ _____ _____    ______ ____
ROOT
ATOM      1  C   UNL     1       0.621  10.133  19.214  0.00  0.00    +0.000 A 
ATOM      2  C   UNL     1      -0.528  10.270  18.435  0.00  0.00    +0.000 A 
ATOM      3  C   UNL     1      -1.168  11.509  18.325  0.00  0.00    +0.000 A 
ATOM      4  C   UNL     1      -0.686  12.616  19.024  0.00  0.00    +0.000 A 
ATOM      5  C   UNL     1       0.438  12.483  19.845  0.00  0.00    +0.000 A 
ATOM      6  C   UNL     1       1.115  11.256  19.898  0.00  0.00    +0.000 A 
ENDROOT
BRANCH   5   7
ATOM      7  C   UNL     1       0.902  13.683  20.598  0.00  0.00    +0.000 C 
ATOM      8  O   UNL     1       0.886  13.617  21.825  0.00  0.00    +0.000 OA
ATOM      9  N   UNL     1       1.353  14.815  19.910  0.00  0.00    +0.000 N 
ATOM     10  C   UNL     1       1.779  15.991  20.675  0.00  0.00    +0.000 C 
ATOM     11  C   UNL     1       3.284  16.234  20.533  0.00  0.00    +0.000 C 
ATOM     12  C   UNL     1       3.731  16.233  19.064  0.00  0.00    +0.000 C 
ATOM     13  C   UNL     1       3.198  15.011  18.313  0.00  0.00    +0.000 C 
ATOM     14  C   UNL     1       1.693  14.868  18.492  0.00  0.00    +0.000 C 
BRANCH  12  15
ATOM     15  O   UNL     1       3.257  17.418  18.389  0.00  0.00    +0.000 OA
ATOM     16  H   UNL     1       3.274  17.231  17.429  0.00  0.00    +0.000 HD
ENDBRANCH  12  15
BRANCH  12  17
ATOM     17  C   UNL     1       5.261  16.230  18.936  0.00  0.00    +0.000 C 
ATOM     18  O   UNL     1       5.980  15.249  18.956  0.00  0.00    +0.000 OA
BRANCH  17  19
ATOM     19  O   UNL     1       5.743  17.496  18.776  0.00  0.00    +0.000 OA
ATOM     20  H   UNL     1       6.362  17.701  19.513  0.00  0.00    +0.000 HD
ENDBRANCH  17  19
ENDBRANCH  12  17
ENDBRANCH   5   7
BRANCH   1  23
ATOM     21  O   UNL     1       2.468   8.624  17.372  0.00  0.00    +0.000 OA
ATOM     22  C   UNL     1       2.134   8.243  18.487  0.00  0.00    +0.000 C 
ATOM     23  N   UNL     1       1.308   8.915  19.386  0.00  0.00    +0.000 N 
ATOM     24  H   UNL     1       1.232   8.468  20.296  0.00  0.00    +0.000 HD
BRANCH  22  25
ATOM     25  C   UNL     1       2.487   6.845  19.010  0.00  0.00    +0.000 C 
ATOM     26  C   UNL     1       1.919   6.486  20.387  0.00  0.00    +0.000 C 
ATOM     27  C   UNL     1       1.978   5.007  20.231  0.00  0.00    +0.000 A 
ATOM     28  C   UNL     1       1.999   3.995  21.173  0.00  0.00    +0.000 A 
ATOM     29  C   UNL     1       2.064   2.673  20.716  0.00  0.00    +0.000 A 
ATOM     30  C   UNL     1       2.068   2.383  19.339  0.00  0.00    +0.000 A 
ATOM     31  C   UNL     1       2.027   3.412  18.401  0.00  0.00    +0.000 A 
ATOM     32  C   UNL     1       2.009   4.706  18.874  0.00  0.00    +0.000 A 
ATOM     33  O   UNL     1       2.065   5.819  18.073  0.00  0.00    +0.000 OA
ENDBRANCH  22  25
ENDBRANCH   1  23
TORSDOF 6
ENDMDL
MODEL 8
REMARK VINA RESULT:      -8.1      3.520      9.494
REMARK  Name = 
REMARK  6 active torsions:
REMARK  status: ('A' for Active; 'I' for Inactive)
REMARK    1  A    between atoms: C_2  and  C_22
REMARK    2  A    between atoms: N_3  and  C_4
REMARK    3  A    between atoms: C_8  and  C_9
REMARK    4  A    between atoms: C_14  and  O_15
REMARK    5  A    between atoms: C_14  and  C_16
REMARK    6  A    between atoms: C_16  and  O_18
REMARK                            x       y       z     vdW  Elec       q    Type
REMARK                         _______ _______ _______ _____ _____    ______ ____
ROOT
ATOM      1  C   UNL     1       0.407   9.030  21.527  0.00  0.00    +0.000 A 
ATOM      2  C   UNL     1       0.030   9.249  22.852  0.00  0.00    +0.000 A 
ATOM      3  C   UNL     1      -0.675  10.404  23.207  0.00  0.00    +0.000 A 
ATOM      4  C   UNL     1      -0.976  11.370  22.246  0.00  0.00    +0.000 A 
ATOM      5  C   UNL     1      -0.564  11.185  20.923  0.00  0.00    +0.000 A 
ATOM      6  C   UNL     1       0.082   9.994  20.559  0.00  0.00    +0.000 A 
ENDROOT
BRANCH   5   7
ATOM      7  C   UNL     1      -0.880  12.255  19.934  0.00  0.00    +0.000 C 
ATOM      8  O   UNL     1      -2.067  12.462  19.691  0.00  0.00    +0.000 OA
ATOM      9  N   UNL     1       0.151  12.994  19.342  0.00  0.00    +0.000 N 
ATOM     10  C   UNL     1      -0.187  14.022  18.353  0.00  0.00    +0.000 C 
ATOM     11  C   UNL     1       0.129  15.425  18.877  0.00  0.00    +0.000 C 
ATOM     12  C   UNL     1       1.557  15.522  19.436  0.00  0.00    +0.000 C 
ATOM     13  C   UNL     1       1.859  14.382  20.410  0.00  0.00    +0.000 C 
ATOM     14  C   UNL     1       1.538  13.029  19.792  0.00  0.00    +0.000 C 
BRANCH  12  15
ATOM     15  O   UNL     1       2.525  15.468  18.365  0.00  0.00    +0.000 OA
ATOM     16  H   UNL     1       2.365  14.640  17.872  0.00  0.00    +0.000 HD
ENDBRANCH  12  15
BRANCH  12  17
ATOM     17  C   UNL     1       1.788  16.847  20.177  0.00  0.00    +0.000 C 
ATOM     18  O   UNL     1       1.483  17.084  21.331  0.00  0.00    +0.000 OA
BRANCH  17  19
ATOM     19  O   UNL     1       2.410  17.757  19.375  0.00  0.00    +0.000 OA
ATOM     20  H   UNL     1       1.735  18.361  18.990  0.00  0.00    +0.000 HD
ENDBRANCH  17  19
ENDBRANCH  12  17
ENDBRANCH   5   7
BRANCH   1  23
ATOM     21  O   UNL     1       2.081   8.569  19.063  0.00  0.00    +0.000 OA
ATOM     22  C   UNL     1       1.873   7.728  19.931  0.00  0.00    +0.000 C 
ATOM     23  N   UNL     1       1.133   7.900  21.098  0.00  0.00    +0.000 N 
ATOM     24  H   UNL     1       1.162   7.105  21.730  0.00  0.00    +0.000 HD
BRANCH  22  25
ATOM     25  C   UNL     1       2.306   6.266  19.768  0.00  0.00    +0.000 C 
ATOM     26  C   UNL     1       1.508   5.241  20.581  0.00  0.00    +0.000 C 
ATOM     27  C   UNL     1       1.820   4.054  19.739  0.00  0.00    +0.000 A 
ATOM     28  C   UNL     1       1.783   2.702  20.027  0.00  0.00    +0.000 A 
ATOM     29  C   UNL     1       2.143   1.805  19.014  0.00  0.00    +0.000 A 
ATOM     30  C   UNL     1       2.494   2.265  17.732  0.00  0.00    +0.000 A 
ATOM     31  C   UNL     1       2.508   3.630  17.450  0.00  0.00    +0.000 A 
ATOM     32  C   UNL     1       2.194   4.495  18.475  0.00  0.00    +0.000 A 
ATOM     33  O   UNL     1       2.259   5.863  18.374  0.00  0.00    +0.000 OA
ENDBRANCH  22  25
ENDBRANCH   1  23
TORSDOF 6
ENDMDL
MODEL 9
REMARK VINA RESULT:      -8.1      3.328      9.497
REMARK  Name = 
REMARK  6 active torsions:
REMARK  status: ('A' for Active; 'I' for Inactive)
REMARK    1  A    between atoms: C_2  and  C_22
REMARK    2  A    between atoms: N_3  and  C_4
REMARK    3  A    between atoms: C_8  and  C_9
REMARK    4  A    between atoms: C_14  and  O_15
REMARK    5  A    between atoms: C_14  and  C_16
REMARK    6  A    between atoms: C_16  and  O_18
REMARK                            x       y       z     vdW  Elec       q    Type
REMARK                         _______ _______ _______ _____ _____    ______ ____
ROOT
ATOM      1  C   UNL     1       1.530   8.245  20.522  0.00  0.00    +0.000 A 
ATOM      2  C   UNL     1       1.430   8.327  21.911  0.00  0.00    +0.000 A 
ATOM      3  C   UNL     1       0.713   9.367  22.511  0.00  0.00    +0.000 A 
ATOM      4  C   UNL     1       0.120  10.357  21.728  0.00  0.00    +0.000 A 
ATOM      5  C   UNL     1       0.250  10.315  20.338  0.00  0.00    +0.000 A 
ATOM      6  C   UNL     1       0.912   9.233  19.738  0.00  0.00    +0.000 A 
ENDROOT
BRANCH   5   7
ATOM      7  C   UNL     1      -0.374  11.410  19.540  0.00  0.00    +0.000 C 
ATOM      8  O   UNL     1      -1.590  11.360  19.373  0.00  0.00    +0.000 OA
ATOM      9  N   UNL     1       0.415  12.451  19.037  0.00  0.00    +0.000 N 
ATOM     10  C   UNL     1      -0.220  13.500  18.234  0.00  0.00    +0.000 C 
ATOM     11  C   UNL     1      -0.201  14.848  18.961  0.00  0.00    +0.000 C 
ATOM     12  C   UNL     1       1.201  15.201  19.479  0.00  0.00    +0.000 C 
ATOM     13  C   UNL     1       1.826  14.038  20.252  0.00  0.00    +0.000 C 
ATOM     14  C   UNL     1       1.784  12.751  19.440  0.00  0.00    +0.000 C 
BRANCH  12  15
ATOM     15  O   UNL     1       2.078  15.536  18.381  0.00  0.00    +0.000 OA
ATOM     16  H   UNL     1       1.737  16.358  17.979  0.00  0.00    +0.000 HD
ENDBRANCH  12  15
BRANCH  12  17
ATOM     17  C   UNL     1       1.171  16.421  20.411  0.00  0.00    +0.000 C 
ATOM     18  O   UNL     1       2.114  16.866  21.039  0.00  0.00    +0.000 OA
BRANCH  17  19
ATOM     19  O   UNL     1      -0.072  16.981  20.448  0.00  0.00    +0.000 OA
ATOM     20  H   UNL     1      -0.017  17.858  20.891  0.00  0.00    +0.000 HD
ENDBRANCH  17  19
ENDBRANCH  12  17
ENDBRANCH   5   7
BRANCH   1  23
ATOM     21  O   UNL     1       1.389   5.241  20.720  0.00  0.00    +0.000 OA
ATOM     22  C   UNL     1       2.164   5.855  19.996  0.00  0.00    +0.000 C 
ATOM     23  N   UNL     1       2.249   7.238  19.848  0.00  0.00    +0.000 N 
ATOM     24  H   UNL     1       2.896   7.540  19.125  0.00  0.00    +0.000 HD
BRANCH  22  25
ATOM     25  C   UNL     1       3.289   5.152  19.226  0.00  0.00    +0.000 C 
ATOM     26  C   UNL     1       3.216   5.258  17.699  0.00  0.00    +0.000 C 
ATOM     27  C   UNL     1       4.657   5.006  17.428  0.00  0.00    +0.000 A 
ATOM     28  C   UNL     1       5.303   4.566  16.287  0.00  0.00    +0.000 A 
ATOM     29  C   UNL     1       6.694   4.416  16.336  0.00  0.00    +0.000 A 
ATOM     30  C   UNL     1       7.416   4.741  17.499  0.00  0.00    +0.000 A 
ATOM     31  C   UNL     1       6.754   5.202  18.635  0.00  0.00    +0.000 A 
ATOM     32  C   UNL     1       5.381   5.298  18.578  0.00  0.00    +0.000 A 
ATOM     33  O   UNL     1       4.589   5.643  19.645  0.00  0.00    +0.000 OA
ENDBRANCH  22  25
ENDBRANCH   1  23
TORSDOF 6
ENDMDL
