MODEL 1
REMARK VINA RESULT:      -8.5      0.000      0.000
REMARK  Name = 
REMARK  6 active torsions:
REMARK  status: ('A' for Active; 'I' for Inactive)
REMARK    1  A    between atoms: C_1  and  C_2
REMARK    2  A    between atoms: C_4  and  N_5
REMARK    3  A    between atoms: C_12  and  C_13
REMARK    4  A    between atoms: C_20  and  C_21
REMARK    5  A    between atoms: C_21  and  C_22
REMARK    6  A    between atoms: N_26  and  C_27
REMARK                            x       y       z     vdW  Elec       q    Type
REMARK                         _______ _______ _______ _____ _____    ______ ____
ROOT
ATOM      1  N   UNL     1       2.005   7.708  19.228  0.00  0.00    +0.000 N 
ATOM      2  C   UNL     1       1.343   7.912  20.500  0.00  0.00    +0.000 C 
ATOM      3  C   UNL     1       0.831   9.313  20.396  0.00  0.00    +0.000 A 
ATOM      4  C   UNL     1       1.134   9.820  19.132  0.00  0.00    +0.000 A 
ATOM      5  C   UNL     1       0.769  11.087  18.721  0.00  0.00    +0.000 A 
ATOM      6  C   UNL     1       0.074  11.880  19.629  0.00  0.00    +0.000 A 
ATOM      7  C   UNL     1      -0.222  11.395  20.918  0.00  0.00    +0.000 A 
ATOM      8  C   UNL     1       0.159  10.100  21.327  0.00  0.00    +0.000 A 
ATOM      9  C   UNL     1       1.892   8.811  18.387  0.00  0.00    +0.000 C 
ATOM     10  O   UNL     1       2.294   9.017  17.254  0.00  0.00    +0.000 OA
ENDROOT
BRANCH   1  14
ATOM     11  C   UNL     1       2.261   3.273  17.621  0.00  0.00    +0.000 C 
ATOM     12  C   UNL     1       2.875   4.519  18.124  0.00  0.00    +0.000 A 
ATOM     13  O   UNL     1       1.991   5.488  18.471  0.00  0.00    +0.000 OA
ATOM     14  C   UNL     1       2.693   6.578  18.861  0.00  0.00    +0.000 A 
ATOM     15  C   UNL     1       4.043   6.315  18.770  0.00  0.00    +0.000 A 
ATOM     16  C   UNL     1       4.173   4.964  18.322  0.00  0.00    +0.000 A 
BRANCH  16  17
ATOM     17  C   UNL     1       5.448   4.209  18.129  0.00  0.00    +0.000 C 
BRANCH  17  18
ATOM     18  C   UNL     1       6.013   4.325  16.753  0.00  0.00    +0.000 A 
ATOM     19  N   UNL     1       5.788   3.502  15.746  0.00  0.00    +0.000 NA
ATOM     20  N   UNL     1       6.429   3.995  14.633  0.00  0.00    +0.000 NA
ATOM     21  C   UNL     1       7.032   5.106  14.983  0.00  0.00    +0.000 A 
ATOM     22  N   UNL     1       6.821   5.341  16.307  0.00  0.00    +0.000 N 
ATOM     23  C   UNL     1       7.347   6.443  17.063  0.00  0.00    +0.000 C 
ENDBRANCH  17  18
ENDBRANCH  16  17
ENDBRANCH   1  14
BRANCH   8  24
ATOM     24  C   UNL     1      -0.145   9.630  22.725  0.00  0.00    +0.000 C 
ATOM     25  F   UNL     1      -0.918   8.511  22.767  0.00  0.00    +0.000 F 
ATOM     26  F   UNL     1       0.985   9.326  23.422  0.00  0.00    +0.000 F 
ATOM     27  F   UNL     1      -0.801  10.566  23.459  0.00  0.00    +0.000 F 
ENDBRANCH   8  24
TORSDOF 4
ENDMDL
MODEL 2
REMARK VINA RESULT:      -8.4      1.050      1.394
REMARK  Name = 
REMARK  6 active torsions:
REMARK  status: ('A' for Active; 'I' for Inactive)
REMARK    1  A    between atoms: C_1  and  C_2
REMARK    2  A    between atoms: C_4  and  N_5
REMARK    3  A    between atoms: C_12  and  C_13
REMARK    4  A    between atoms: C_20  and  C_21
REMARK    5  A    between atoms: C_21  and  C_22
REMARK    6  A    between atoms: N_26  and  C_27
REMARK                            x       y       z     vdW  Elec       q    Type
REMARK                         _______ _______ _______ _____ _____    ______ ____
ROOT
ATOM      1  N   UNL     1       1.869   7.600  19.476  0.00  0.00    +0.000 N 
ATOM      2  C   UNL     1       1.184   7.913  20.714  0.00  0.00    +0.000 C 
ATOM      3  C   UNL     1       0.821   9.353  20.546  0.00  0.00    +0.000 A 
ATOM      4  C   UNL     1       1.221   9.784  19.281  0.00  0.00    +0.000 A 
ATOM      5  C   UNL     1       1.002  11.066  18.816  0.00  0.00    +0.000 A 
ATOM      6  C   UNL     1       0.357  11.956  19.671  0.00  0.00    +0.000 A 
ATOM      7  C   UNL     1      -0.035  11.546  20.961  0.00  0.00    +0.000 A 
ATOM      8  C   UNL     1       0.197  10.235  21.424  0.00  0.00    +0.000 A 
ATOM      9  C   UNL     1       1.900   8.679  18.598  0.00  0.00    +0.000 C 
ATOM     10  O   UNL     1       2.363   8.805  17.477  0.00  0.00    +0.000 OA
ENDROOT
BRANCH   1  14
ATOM     11  C   UNL     1       3.026   3.123  20.441  0.00  0.00    +0.000 C 
ATOM     12  C   UNL     1       3.023   4.313  19.565  0.00  0.00    +0.000 A 
ATOM     13  O   UNL     1       2.425   5.407  20.099  0.00  0.00    +0.000 OA
ATOM     14  C   UNL     1       2.453   6.395  19.172  0.00  0.00    +0.000 A 
ATOM     15  C   UNL     1       3.075   5.939  18.031  0.00  0.00    +0.000 A 
ATOM     16  C   UNL     1       3.480   4.592  18.288  0.00  0.00    +0.000 A 
BRANCH  16  17
ATOM     17  C   UNL     1       4.246   3.702  17.364  0.00  0.00    +0.000 C 
BRANCH  17  18
ATOM     18  C   UNL     1       5.647   4.154  17.117  0.00  0.00    +0.000 A 
ATOM     19  N   UNL     1       6.582   4.330  18.031  0.00  0.00    +0.000 NA
ATOM     20  N   UNL     1       7.750   4.678  17.393  0.00  0.00    +0.000 NA
ATOM     21  C   UNL     1       7.504   4.709  16.106  0.00  0.00    +0.000 A 
ATOM     22  N   UNL     1       6.194   4.412  15.885  0.00  0.00    +0.000 N 
ATOM     23  C   UNL     1       5.540   4.377  14.607  0.00  0.00    +0.000 C 
ENDBRANCH  17  18
ENDBRANCH  16  17
ENDBRANCH   1  14
BRANCH   8  24
ATOM     24  C   UNL     1      -0.205   9.846  22.822  0.00  0.00    +0.000 C 
ATOM     25  F   UNL     1      -1.032   8.767  22.870  0.00  0.00    +0.000 F 
ATOM     26  F   UNL     1       0.869   9.525  23.595  0.00  0.00    +0.000 F 
ATOM     27  F   UNL     1      -0.855  10.845  23.475  0.00  0.00    +0.000 F 
ENDBRANCH   8  24
TORSDOF 4
ENDMDL
MODEL 3
REMARK VINA RESULT:      -8.4      1.889      3.132
REMARK  Name = 
REMARK  6 active torsions:
REMARK  status: ('A' for Active; 'I' for Inactive)
REMARK    1  A    between atoms: C_1  and  C_2
REMARK    2  A    between atoms: C_4  and  N_5
REMARK    3  A    between atoms: C_12  and  C_13
REMARK    4  A    between atoms: C_20  and  C_21
REMARK    5  A    between atoms: C_21  and  C_22
REMARK    6  A    between atoms: N_26  and  C_27
REMARK                            x       y       z     vdW  Elec       q    Type
REMARK                         _______ _______ _______ _____ _____    ______ ____
ROOT
ATOM      1  N   UNL     1       1.842   8.479  19.005  0.00  0.00    +0.000 N 
ATOM      2  C   UNL     1       1.184   8.442  20.295  0.00  0.00    +0.000 C 
ATOM      3  C   UNL     1       0.626   9.822  20.430  0.00  0.00    +0.000 A 
ATOM      4  C   UNL     1       0.902  10.546  19.271  0.00  0.00    +0.000 A 
ATOM      5  C   UNL     1       0.492  11.852  19.081  0.00  0.00    +0.000 A 
ATOM      6  C   UNL     1      -0.221  12.456  20.112  0.00  0.00    +0.000 A 
ATOM      7  C   UNL     1      -0.491  11.748  21.301  0.00  0.00    +0.000 A 
ATOM      8  C   UNL     1      -0.065  10.417  21.483  0.00  0.00    +0.000 A 
ATOM      9  C   UNL     1       1.687   9.704  18.363  0.00  0.00    +0.000 C 
ATOM     10  O   UNL     1       2.073  10.113  17.281  0.00  0.00    +0.000 OA
ENDROOT
BRANCH   1  14
ATOM     11  C   UNL     1       5.514   6.739  16.596  0.00  0.00    +0.000 C 
ATOM     12  C   UNL     1       4.244   6.585  17.335  0.00  0.00    +0.000 A 
ATOM     13  O   UNL     1       3.685   7.749  17.750  0.00  0.00    +0.000 OA
ATOM     14  C   UNL     1       2.564   7.452  18.450  0.00  0.00    +0.000 A 
ATOM     15  C   UNL     1       2.392   6.085  18.485  0.00  0.00    +0.000 A 
ATOM     16  C   UNL     1       3.464   5.511  17.733  0.00  0.00    +0.000 A 
BRANCH  16  17
ATOM     17  C   UNL     1       3.670   4.060  17.441  0.00  0.00    +0.000 C 
BRANCH  17  18
ATOM     18  C   UNL     1       3.947   3.236  18.653  0.00  0.00    +0.000 A 
ATOM     19  N   UNL     1       5.111   3.116  19.264  0.00  0.00    +0.000 NA
ATOM     20  N   UNL     1       4.934   2.331  20.379  0.00  0.00    +0.000 NA
ATOM     21  C   UNL     1       3.670   1.987  20.426  0.00  0.00    +0.000 A 
ATOM     22  N   UNL     1       3.016   2.511  19.353  0.00  0.00    +0.000 N 
ATOM     23  C   UNL     1       1.626   2.329  19.040  0.00  0.00    +0.000 C 
ENDBRANCH  17  18
ENDBRANCH  16  17
ENDBRANCH   1  14
BRANCH   8  24
ATOM     24  C   UNL     1      -0.341   9.707  22.782  0.00  0.00    +0.000 C 
ATOM     25  F   UNL     1       0.777   9.458  23.515  0.00  0.00    +0.000 F 
ATOM     26  F   UNL     1      -1.165  10.424  23.594  0.00  0.00    +0.000 F 
ATOM     27  F   UNL     1      -0.944   8.503  22.600  0.00  0.00    +0.000 F 
ENDBRANCH   8  24
TORSDOF 4
ENDMDL
MODEL 4
REMARK VINA RESULT:      -8.3      2.189      3.233
REMARK  Name = 
REMARK  6 active torsions:
REMARK  status: ('A' for Active; 'I' for Inactive)
REMARK    1  A    between atoms: C_1  and  C_2
REMARK    2  A    between atoms: C_4  and  N_5
REMARK    3  A    between atoms: C_12  and  C_13
REMARK    4  A    between atoms: C_20  and  C_21
REMARK    5  A    between atoms: C_21  and  C_22
REMARK    6  A    between atoms: N_26  and  C_27
REMARK                            x       y       z     vdW  Elec       q    Type
REMARK                         _______ _______ _______ _____ _____    ______ ____
ROOT
ATOM      1  N   UNL     1       1.849   8.553  19.014  0.00  0.00    +0.000 N 
ATOM      2  C   UNL     1       1.176   8.506  20.295  0.00  0.00    +0.000 C 
ATOM      3  C   UNL     1       0.637   9.892  20.447  0.00  0.00    +0.000 A 
ATOM      4  C   UNL     1       0.936  10.630  19.302  0.00  0.00    +0.000 A 
ATOM      5  C   UNL     1       0.548  11.944  19.129  0.00  0.00    +0.000 A 
ATOM      6  C   UNL     1      -0.168  12.542  20.162  0.00  0.00    +0.000 A 
ATOM      7  C   UNL     1      -0.461  11.820  21.336  0.00  0.00    +0.000 A 
ATOM      8  C   UNL     1      -0.057  10.480  21.501  0.00  0.00    +0.000 A 
ATOM      9  C   UNL     1       1.719   9.790  18.390  0.00  0.00    +0.000 C 
ATOM     10  O   UNL     1       2.123  10.210  17.318  0.00  0.00    +0.000 OA
ENDROOT
BRANCH   1  14
ATOM     11  C   UNL     1       5.555   6.788  16.676  0.00  0.00    +0.000 C 
ATOM     12  C   UNL     1       4.256   6.646  17.365  0.00  0.00    +0.000 A 
ATOM     13  O   UNL     1       3.715   7.812  17.800  0.00  0.00    +0.000 OA
ATOM     14  C   UNL     1       2.562   7.524  18.450  0.00  0.00    +0.000 A 
ATOM     15  C   UNL     1       2.351   6.162  18.435  0.00  0.00    +0.000 A 
ATOM     16  C   UNL     1       3.433   5.583  17.701  0.00  0.00    +0.000 A 
BRANCH  16  17
ATOM     17  C   UNL     1       3.609   4.137  17.368  0.00  0.00    +0.000 C 
BRANCH  17  18
ATOM     18  C   UNL     1       2.684   3.232  18.111  0.00  0.00    +0.000 A 
ATOM     19  N   UNL     1       1.428   2.974  17.799  0.00  0.00    +0.000 NA
ATOM     20  N   UNL     1       0.946   2.039  18.684  0.00  0.00    +0.000 NA
ATOM     21  C   UNL     1       1.915   1.746  19.518  0.00  0.00    +0.000 A 
ATOM     22  N   UNL     1       3.016   2.486  19.214  0.00  0.00    +0.000 N 
ATOM     23  C   UNL     1       4.266   2.468  19.921  0.00  0.00    +0.000 C 
ENDBRANCH  17  18
ENDBRANCH  16  17
ENDBRANCH   1  14
BRANCH   8  24
ATOM     24  C   UNL     1      -0.358   9.754  22.785  0.00  0.00    +0.000 C 
ATOM     25  F   UNL     1       0.746   9.491  23.535  0.00  0.00    +0.000 F 
ATOM     26  F   UNL     1      -1.194  10.463  23.593  0.00  0.00    +0.000 F 
ATOM     27  F   UNL     1      -0.962   8.555  22.577  0.00  0.00    +0.000 F 
ENDBRANCH   8  24
TORSDOF 4
ENDMDL
MODEL 5
REMARK VINA RESULT:      -8.2      0.994      1.030
REMARK  Name = 
REMARK  6 active torsions:
REMARK  status: ('A' for Active; 'I' for Inactive)
REMARK    1  A    between atoms: C_1  and  C_2
REMARK    2  A    between atoms: C_4  and  N_5
REMARK    3  A    between atoms: C_12  and  C_13
REMARK    4  A    between atoms: C_20  and  C_21
REMARK    5  A    between atoms: C_21  and  C_22
REMARK    6  A    between atoms: N_26  and  C_27
REMARK                            x       y       z     vdW  Elec       q    Type
REMARK                         _______ _______ _______ _____ _____    ______ ____
ROOT
ATOM      1  N   UNL     1       2.080   7.383  19.299  0.00  0.00    +0.000 N 
ATOM      2  C   UNL     1       1.395   7.704  20.534  0.00  0.00    +0.000 C 
ATOM      3  C   UNL     1       1.001   9.133  20.342  0.00  0.00    +0.000 A 
ATOM      4  C   UNL     1       1.385   9.549  19.067  0.00  0.00    +0.000 A 
ATOM      5  C   UNL     1       1.136  10.817  18.580  0.00  0.00    +0.000 A 
ATOM      6  C   UNL     1       0.477  11.709  19.422  0.00  0.00    +0.000 A 
ATOM      7  C   UNL     1       0.101  11.315  20.722  0.00  0.00    +0.000 A 
ATOM      8  C   UNL     1       0.363  10.018  21.207  0.00  0.00    +0.000 A 
ATOM      9  C   UNL     1       2.084   8.446  18.401  0.00  0.00    +0.000 C 
ATOM     10  O   UNL     1       2.538   8.561  17.275  0.00  0.00    +0.000 OA
ENDROOT
BRANCH   1  14
ATOM     11  C   UNL     1       3.323   2.944  20.332  0.00  0.00    +0.000 C 
ATOM     12  C   UNL     1       3.298   4.120  19.438  0.00  0.00    +0.000 A 
ATOM     13  O   UNL     1       2.678   5.211  19.955  0.00  0.00    +0.000 OA
ATOM     14  C   UNL     1       2.687   6.185  19.013  0.00  0.00    +0.000 A 
ATOM     15  C   UNL     1       3.320   5.725  17.879  0.00  0.00    +0.000 A 
ATOM     16  C   UNL     1       3.751   4.390  18.157  0.00  0.00    +0.000 A 
BRANCH  16  17
ATOM     17  C   UNL     1       4.536   3.500  17.248  0.00  0.00    +0.000 C 
BRANCH  17  18
ATOM     18  C   UNL     1       5.466   4.236  16.343  0.00  0.00    +0.000 A 
ATOM     19  N   UNL     1       5.240   4.549  15.081  0.00  0.00    +0.000 NA
ATOM     20  N   UNL     1       6.305   5.288  14.621  0.00  0.00    +0.000 NA
ATOM     21  C   UNL     1       7.159   5.410  15.609  0.00  0.00    +0.000 A 
ATOM     22  N   UNL     1       6.688   4.748  16.701  0.00  0.00    +0.000 N 
ATOM     23  C   UNL     1       7.355   4.626  17.967  0.00  0.00    +0.000 C 
ENDBRANCH  17  18
ENDBRANCH  16  17
ENDBRANCH   1  14
BRANCH   8  24
ATOM     24  C   UNL     1      -0.023   9.646  22.614  0.00  0.00    +0.000 C 
ATOM     25  F   UNL     1      -0.882   8.593  22.684  0.00  0.00    +0.000 F 
ATOM     26  F   UNL     1       1.055   9.295  23.368  0.00  0.00    +0.000 F 
ATOM     27  F   UNL     1      -0.629  10.667  23.276  0.00  0.00    +0.000 F 
ENDBRANCH   8  24
TORSDOF 4
ENDMDL
MODEL 6
REMARK VINA RESULT:      -8.2      1.200      1.733
REMARK  Name = 
REMARK  6 active torsions:
REMARK  status: ('A' for Active; 'I' for Inactive)
REMARK    1  A    between atoms: C_1  and  C_2
REMARK    2  A    between atoms: C_4  and  N_5
REMARK    3  A    between atoms: C_12  and  C_13
REMARK    4  A    between atoms: C_20  and  C_21
REMARK    5  A    between atoms: C_21  and  C_22
REMARK    6  A    between atoms: N_26  and  C_27
REMARK                            x       y       z     vdW  Elec       q    Type
REMARK                         _______ _______ _______ _____ _____    ______ ____
ROOT
ATOM      1  N   UNL     1       1.770   8.129  19.157  0.00  0.00    +0.000 N 
ATOM      2  C   UNL     1       1.139   8.201  20.459  0.00  0.00    +0.000 C 
ATOM      3  C   UNL     1       0.589   9.591  20.494  0.00  0.00    +0.000 A 
ATOM      4  C   UNL     1       0.843  10.217  19.274  0.00  0.00    +0.000 A 
ATOM      5  C   UNL     1       0.435  11.505  18.987  0.00  0.00    +0.000 A 
ATOM      6  C   UNL     1      -0.255  12.194  19.981  0.00  0.00    +0.000 A 
ATOM      7  C   UNL     1      -0.502  11.587  21.228  0.00  0.00    +0.000 A 
ATOM      8  C   UNL     1      -0.077  10.272  21.508  0.00  0.00    +0.000 A 
ATOM      9  C   UNL     1       1.606   9.299  18.422  0.00  0.00    +0.000 C 
ATOM     10  O   UNL     1       1.971   9.617  17.302  0.00  0.00    +0.000 OA
ENDROOT
BRANCH   1  14
ATOM     11  C   UNL     1       2.179   3.616  17.825  0.00  0.00    +0.000 C 
ATOM     12  C   UNL     1       2.729   4.970  18.044  0.00  0.00    +0.000 A 
ATOM     13  O   UNL     1       1.854   5.858  18.577  0.00  0.00    +0.000 OA
ATOM     14  C   UNL     1       2.477   7.057  18.673  0.00  0.00    +0.000 A 
ATOM     15  C   UNL     1       3.766   6.946  18.201  0.00  0.00    +0.000 A 
ATOM     16  C   UNL     1       3.952   5.580  17.818  0.00  0.00    +0.000 A 
BRANCH  16  17
ATOM     17  C   UNL     1       5.212   4.964  17.302  0.00  0.00    +0.000 C 
BRANCH  17  18
ATOM     18  C   UNL     1       6.385   5.886  17.323  0.00  0.00    +0.000 A 
ATOM     19  N   UNL     1       6.785   6.662  16.333  0.00  0.00    +0.000 NA
ATOM     20  N   UNL     1       7.852   7.409  16.774  0.00  0.00    +0.000 NA
ATOM     21  C   UNL     1       8.082   7.075  18.021  0.00  0.00    +0.000 A 
ATOM     22  N   UNL     1       7.204   6.108  18.402  0.00  0.00    +0.000 N 
ATOM     23  C   UNL     1       7.161   5.464  19.686  0.00  0.00    +0.000 C 
ENDBRANCH  17  18
ENDBRANCH  16  17
ENDBRANCH   1  14
BRANCH   8  24
ATOM     24  C   UNL     1      -0.330   9.671  22.866  0.00  0.00    +0.000 C 
ATOM     25  F   UNL     1       0.806   9.446  23.581  0.00  0.00    +0.000 F 
ATOM     26  F   UNL     1      -1.107  10.472  23.646  0.00  0.00    +0.000 F 
ATOM     27  F   UNL     1      -0.971   8.475  22.796  0.00  0.00    +0.000 F 
ENDBRANCH   8  24
TORSDOF 4
ENDMDL
MODEL 7
REMARK VINA RESULT:      -8.2      2.511      3.799
REMARK  Name = 
REMARK  6 active torsions:
REMARK  status: ('A' for Active; 'I' for Inactive)
REMARK    1  A    between atoms: C_1  and  C_2
REMARK    2  A    between atoms: C_4  and  N_5
REMARK    3  A    between atoms: C_12  and  C_13
REMARK    4  A    between atoms: C_20  and  C_21
REMARK    5  A    between atoms: C_21  and  C_22
REMARK    6  A    between atoms: N_26  and  C_27
REMARK                            x       y       z     vdW  Elec       q    Type
REMARK                         _______ _______ _______ _____ _____    ______ ____
ROOT
ATOM      1  N   UNL     1       3.435   6.577  18.574  0.00  0.00    +0.000 N 
ATOM      2  C   UNL     1       2.940   7.881  18.182  0.00  0.00    +0.000 C 
ATOM      3  C   UNL     1       1.939   8.199  19.247  0.00  0.00    +0.000 A 
ATOM      4  C   UNL     1       1.931   7.173  20.191  0.00  0.00    +0.000 A 
ATOM      5  C   UNL     1       1.127   7.187  21.314  0.00  0.00    +0.000 A 
ATOM      6  C   UNL     1       0.287   8.284  21.486  0.00  0.00    +0.000 A 
ATOM      7  C   UNL     1       0.264   9.320  20.532  0.00  0.00    +0.000 A 
ATOM      8  C   UNL     1       1.089   9.292  19.389  0.00  0.00    +0.000 A 
ATOM      9  C   UNL     1       2.870   6.130  19.765  0.00  0.00    +0.000 C 
ATOM     10  O   UNL     1       3.036   5.111  20.415  0.00  0.00    +0.000 OA
ENDROOT
BRANCH   1  14
ATOM     11  C   UNL     1       7.695   4.641  17.930  0.00  0.00    +0.000 C 
ATOM     12  C   UNL     1       6.301   4.904  17.514  0.00  0.00    +0.000 A 
ATOM     13  O   UNL     1       5.605   5.716  18.347  0.00  0.00    +0.000 OA
ATOM     14  C   UNL     1       4.342   5.825  17.870  0.00  0.00    +0.000 A 
ATOM     15  C   UNL     1       4.218   5.081  16.718  0.00  0.00    +0.000 A 
ATOM     16  C   UNL     1       5.500   4.502  16.458  0.00  0.00    +0.000 A 
BRANCH  16  17
ATOM     17  C   UNL     1       5.874   3.658  15.282  0.00  0.00    +0.000 C 
BRANCH  17  18
ATOM     18  C   UNL     1       6.677   4.382  14.254  0.00  0.00    +0.000 A 
ATOM     19  N   UNL     1       7.549   5.346  14.483  0.00  0.00    +0.000 NA
ATOM     20  N   UNL     1       8.129   5.697  13.287  0.00  0.00    +0.000 NA
ATOM     21  C   UNL     1       7.601   4.942  12.354  0.00  0.00    +0.000 A 
ATOM     22  N   UNL     1       6.670   4.119  12.908  0.00  0.00    +0.000 N 
ATOM     23  C   UNL     1       5.855   3.170  12.201  0.00  0.00    +0.000 C 
ENDBRANCH  17  18
ENDBRANCH  16  17
ENDBRANCH   1  14
BRANCH   8  24
ATOM     24  C   UNL     1       1.010  10.401  18.374  0.00  0.00    +0.000 C 
ATOM     25  F   UNL     1       0.464  11.548  18.861  0.00  0.00    +0.000 F 
ATOM     26  F   UNL     1       2.236  10.749  17.896  0.00  0.00    +0.000 F 
ATOM     27  F   UNL     1       0.264  10.064  17.289  0.00  0.00    +0.000 F 
ENDBRANCH   8  24
TORSDOF 4
ENDMDL
MODEL 8
REMARK VINA RESULT:      -8.2      1.523      1.778
REMARK  Name = 
REMARK  6 active torsions:
REMARK  status: ('A' for Active; 'I' for Inactive)
REMARK    1  A    between atoms: C_1  and  C_2
REMARK    2  A    between atoms: C_4  and  N_5
REMARK    3  A    between atoms: C_12  and  C_13
REMARK    4  A    between atoms: C_20  and  C_21
REMARK    5  A    between atoms: C_21  and  C_22
REMARK    6  A    between atoms: N_26  and  C_27
REMARK                            x       y       z     vdW  Elec       q    Type
REMARK                         _______ _______ _______ _____ _____    ______ ____
ROOT
ATOM      1  N   UNL     1       1.759   8.478  19.060  0.00  0.00    +0.000 N 
ATOM      2  C   UNL     1       1.089   8.448  20.344  0.00  0.00    +0.000 C 
ATOM      3  C   UNL     1       0.493   9.815  20.448  0.00  0.00    +0.000 A 
ATOM      4  C   UNL     1       0.761  10.524  19.277  0.00  0.00    +0.000 A 
ATOM      5  C   UNL     1       0.319  11.814  19.058  0.00  0.00    +0.000 A 
ATOM      6  C   UNL     1      -0.421  12.418  20.071  0.00  0.00    +0.000 A 
ATOM      7  C   UNL     1      -0.683  11.727  21.270  0.00  0.00    +0.000 A 
ATOM      8  C   UNL     1      -0.223  10.411  21.482  0.00  0.00    +0.000 A 
ATOM      9  C   UNL     1       1.577   9.686  18.393  0.00  0.00    +0.000 C 
ATOM     10  O   UNL     1       1.963  10.084  17.307  0.00  0.00    +0.000 OA
ENDROOT
BRANCH   1  14
ATOM     11  C   UNL     1       2.406   4.019  17.641  0.00  0.00    +0.000 C 
ATOM     12  C   UNL     1       2.876   5.402  17.861  0.00  0.00    +0.000 A 
ATOM     13  O   UNL     1       1.967   6.225  18.441  0.00  0.00    +0.000 OA
ATOM     14  C   UNL     1       2.514   7.460  18.532  0.00  0.00    +0.000 A 
ATOM     15  C   UNL     1       3.789   7.439  18.010  0.00  0.00    +0.000 A 
ATOM     16  C   UNL     1       4.047   6.094  17.599  0.00  0.00    +0.000 A 
BRANCH  16  17
ATOM     17  C   UNL     1       5.323   5.568  17.026  0.00  0.00    +0.000 C 
BRANCH  17  18
ATOM     18  C   UNL     1       6.476   5.626  17.971  0.00  0.00    +0.000 A 
ATOM     19  N   UNL     1       6.829   4.687  18.828  0.00  0.00    +0.000 NA
ATOM     20  N   UNL     1       7.982   5.090  19.460  0.00  0.00    +0.000 NA
ATOM     21  C   UNL     1       8.308   6.265  18.979  0.00  0.00    +0.000 A 
ATOM     22  N   UNL     1       7.382   6.653  18.060  0.00  0.00    +0.000 N 
ATOM     23  C   UNL     1       7.378   7.895  17.338  0.00  0.00    +0.000 C 
ENDBRANCH  17  18
ENDBRANCH  16  17
ENDBRANCH   1  14
BRANCH   8  24
ATOM     24  C   UNL     1      -0.494   9.719  22.792  0.00  0.00    +0.000 C 
ATOM     25  F   UNL     1      -1.039   8.480  22.651  0.00  0.00    +0.000 F 
ATOM     26  F   UNL     1       0.640   9.543  23.524  0.00  0.00    +0.000 F 
ATOM     27  F   UNL     1      -1.350  10.416  23.583  0.00  0.00    +0.000 F 
ENDBRANCH   8  24
TORSDOF 4
ENDMDL
MODEL 9
REMARK VINA RESULT:      -8.1      0.823      1.447
REMARK  Name = 
REMARK  6 active torsions:
REMARK  status: ('A' for Active; 'I' for Inactive)
REMARK    1  A    between atoms: C_1  and  C_2
REMARK    2  A    between atoms: C_4  and  N_5
REMARK    3  A    between atoms: C_12  and  C_13
REMARK    4  A    between atoms: C_20  and  C_21
REMARK    5  A    between atoms: C_21  and  C_22
REMARK    6  A    between atoms: N_26  and  C_27
REMARK                            x       y       z     vdW  Elec       q    Type
REMARK                         _______ _______ _______ _____ _____    ______ ____
ROOT
ATOM      1  N   UNL     1       2.127   7.611  19.552  0.00  0.00    +0.000 N 
ATOM      2  C   UNL     1       1.401   7.896  20.773  0.00  0.00    +0.000 C 
ATOM      3  C   UNL     1       0.735   9.201  20.474  0.00  0.00    +0.000 A 
ATOM      4  C   UNL     1       1.022   9.574  19.161  0.00  0.00    +0.000 A 
ATOM      5  C   UNL     1       0.528  10.725  18.579  0.00  0.00    +0.000 A 
ATOM      6  C   UNL     1      -0.286  11.540  19.361  0.00  0.00    +0.000 A 
ATOM      7  C   UNL     1      -0.569  11.192  20.696  0.00  0.00    +0.000 A 
ATOM      8  C   UNL     1      -0.056  10.016  21.279  0.00  0.00    +0.000 A 
ATOM      9  C   UNL     1       1.918   8.575  18.571  0.00  0.00    +0.000 C 
ATOM     10  O   UNL     1       2.333   8.680  17.429  0.00  0.00    +0.000 OA
ENDROOT
BRANCH   1  14
ATOM     11  C   UNL     1       3.050   2.979  19.435  0.00  0.00    +0.000 C 
ATOM     12  C   UNL     1       3.444   4.395  19.283  0.00  0.00    +0.000 A 
ATOM     13  O   UNL     1       2.470   5.290  19.583  0.00  0.00    +0.000 OA
ATOM     14  C   UNL     1       2.954   6.533  19.351  0.00  0.00    +0.000 A 
ATOM     15  C   UNL     1       4.253   6.446  18.901  0.00  0.00    +0.000 A 
ATOM     16  C   UNL     1       4.594   5.057  18.885  0.00  0.00    +0.000 A 
BRANCH  16  17
ATOM     17  C   UNL     1       5.920   4.470  18.524  0.00  0.00    +0.000 C 
BRANCH  17  18
ATOM     18  C   UNL     1       6.401   4.861  17.166  0.00  0.00    +0.000 A 
ATOM     19  N   UNL     1       7.414   5.664  16.899  0.00  0.00    +0.000 NA
ATOM     20  N   UNL     1       7.581   5.710  15.535  0.00  0.00    +0.000 NA
ATOM     21  C   UNL     1       6.667   4.938  14.998  0.00  0.00    +0.000 A 
ATOM     22  N   UNL     1       5.890   4.403  15.978  0.00  0.00    +0.000 N 
ATOM     23  C   UNL     1       4.765   3.531  15.782  0.00  0.00    +0.000 C 
ENDBRANCH  17  18
ENDBRANCH  16  17
ENDBRANCH   1  14
BRANCH   8  24
ATOM     24  C   UNL     1      -0.353   9.697  22.721  0.00  0.00    +0.000 C 
ATOM     25  F   UNL     1      -1.102  10.646  23.346  0.00  0.00    +0.000 F 
ATOM     26  F   UNL     1      -1.043   8.531  22.858  0.00  0.00    +0.000 F 
ATOM     27  F   UNL     1       0.774   9.558  23.467  0.00  0.00    +0.000 F 
ENDBRANCH   8  24
TORSDOF 4
ENDMDL
