MODEL 1
REMARK VINA RESULT:      -9.6      0.000      0.000
REMARK  Name = 
REMARK  2 active torsions:
REMARK  status: ('A' for Active; 'I' for Inactive)
REMARK    1  A    between atoms: C_2  and  C_3
REMARK    2  A    between atoms: C_6  and  N_7
REMARK                            x       y       z     vdW  Elec       q    Type
REMARK                         _______ _______ _______ _____ _____    ______ ____
ROOT
ATOM      1  C   UNL     1       1.752   8.449  19.367  0.00  0.00    +0.000 A 
ATOM      2  C   UNL     1       2.148   7.423  20.232  0.00  0.00    +0.000 A 
ATOM      3  C   UNL     1       2.912   6.354  19.760  0.00  0.00    +0.000 A 
ATOM      4  C   UNL     1       3.157   6.244  18.382  0.00  0.00    +0.000 A 
ATOM      5  C   UNL     1       3.026   7.399  17.600  0.00  0.00    +0.000 A 
ATOM      6  C   UNL     1       2.368   8.522  18.117  0.00  0.00    +0.000 A 
ENDROOT
BRANCH   1   8
ATOM      7  O   UNL     1      -0.232   8.807  20.531  0.00  0.00    +0.000 OA
ATOM      8  C   UNL     1       0.636   9.335  19.836  0.00  0.00    +0.000 C 
ATOM      9  N   UNL     1       0.496  10.658  19.371  0.00  0.00    +0.000 N 
ATOM     10  C   UNL     1      -0.801  11.313  19.627  0.00  0.00    +0.000 C 
ATOM     11  C   UNL     1      -1.067  12.641  18.889  0.00  0.00    +0.000 C 
ATOM     12  C   UNL     1       0.159  13.505  18.808  0.00  0.00    +0.000 A 
ATOM     13  C   UNL     1       0.101  14.902  18.817  0.00  0.00    +0.000 A 
ATOM     14  C   UNL     1       1.278  15.652  18.752  0.00  0.00    +0.000 A 
ATOM     15  C   UNL     1       2.513  15.015  18.672  0.00  0.00    +0.000 A 
ATOM     16  C   UNL     1       2.572  13.625  18.615  0.00  0.00    +0.000 A 
ATOM     17  C   UNL     1       1.398  12.865  18.668  0.00  0.00    +0.000 A 
ATOM     18  C   UNL     1       1.438  11.369  18.511  0.00  0.00    +0.000 C 
ENDBRANCH   1   8
BRANCH   4  19
ATOM     19  N   UNL     1       3.088   4.927  17.740  0.00  0.00    +0.000 N 
ATOM     20  C   UNL     1       1.808   4.401  17.833  0.00  0.00    +0.000 C 
ATOM     21  O   UNL     1       0.806   4.638  17.181  0.00  0.00    +0.000 OA
ATOM     22  C   UNL     1       1.824   3.509  18.995  0.00  0.00    +0.000 A 
ATOM     23  C   UNL     1       0.838   3.328  19.946  0.00  0.00    +0.000 A 
ATOM     24  C   UNL     1       1.244   2.839  21.191  0.00  0.00    +0.000 A 
ATOM     25  C   UNL     1       2.597   2.517  21.440  0.00  0.00    +0.000 A 
ATOM     26  C   UNL     1       3.572   2.694  20.454  0.00  0.00    +0.000 A 
ATOM     27  C   UNL     1       3.150   3.217  19.247  0.00  0.00    +0.000 A 
ATOM     28  C   UNL     1       3.939   3.971  18.269  0.00  0.00    +0.000 C 
ATOM     29  O   UNL     1       5.130   3.802  18.081  0.00  0.00    +0.000 OA
ENDBRANCH   4  19
TORSDOF 2
ENDMDL
MODEL 2
REMARK VINA RESULT:      -9.4      1.949      3.002
REMARK  Name = 
REMARK  2 active torsions:
REMARK  status: ('A' for Active; 'I' for Inactive)
REMARK    1  A    between atoms: C_2  and  C_3
REMARK    2  A    between atoms: C_6  and  N_7
REMARK                            x       y       z     vdW  Elec       q    Type
REMARK                         _______ _______ _______ _____ _____    ______ ____
ROOT
ATOM      1  C   UNL     1       2.693   7.753  18.300  0.00  0.00    +0.000 A 
ATOM      2  C   UNL     1       2.575   6.993  19.469  0.00  0.00    +0.000 A 
ATOM      3  C   UNL     1       3.313   5.818  19.627  0.00  0.00    +0.000 A 
ATOM      4  C   UNL     1       4.062   5.329  18.545  0.00  0.00    +0.000 A 
ATOM      5  C   UNL     1       4.405   6.230  17.528  0.00  0.00    +0.000 A 
ATOM      6  C   UNL     1       3.754   7.466  17.440  0.00  0.00    +0.000 A 
ENDROOT
BRANCH   1   8
ATOM      7  O   UNL     1       1.288   8.926  16.861  0.00  0.00    +0.000 OA
ATOM      8  C   UNL     1       1.612   8.760  18.037  0.00  0.00    +0.000 C 
ATOM      9  N   UNL     1       1.111   9.591  19.059  0.00  0.00    +0.000 N 
ATOM     10  C   UNL     1       0.312  10.753  18.629  0.00  0.00    +0.000 C 
ATOM     11  C   UNL     1      -0.003  11.816  19.703  0.00  0.00    +0.000 C 
ATOM     12  C   UNL     1      -0.306  11.203  21.041  0.00  0.00    +0.000 A 
ATOM     13  C   UNL     1      -1.203  11.774  21.949  0.00  0.00    +0.000 A 
ATOM     14  C   UNL     1      -1.453  11.150  23.173  0.00  0.00    +0.000 A 
ATOM     15  C   UNL     1      -0.808   9.960  23.500  0.00  0.00    +0.000 A 
ATOM     16  C   UNL     1       0.121   9.413  22.618  0.00  0.00    +0.000 A 
ATOM     17  C   UNL     1       0.387  10.037  21.394  0.00  0.00    +0.000 A 
ATOM     18  C   UNL     1       1.457   9.512  20.475  0.00  0.00    +0.000 C 
ENDBRANCH   1   8
BRANCH   4  19
ATOM     19  N   UNL     1       4.075   3.890  18.268  0.00  0.00    +0.000 N 
ATOM     20  C   UNL     1       2.836   3.465  17.813  0.00  0.00    +0.000 C 
ATOM     21  O   UNL     1       2.328   3.551  16.708  0.00  0.00    +0.000 OA
ATOM     22  C   UNL     1       2.136   2.936  18.986  0.00  0.00    +0.000 A 
ATOM     23  C   UNL     1       0.801   3.073  19.316  0.00  0.00    +0.000 A 
ATOM     24  C   UNL     1       0.469   2.937  20.667  0.00  0.00    +0.000 A 
ATOM     25  C   UNL     1       1.456   2.641  21.633  0.00  0.00    +0.000 A 
ATOM     26  C   UNL     1       2.797   2.492  21.269  0.00  0.00    +0.000 A 
ATOM     27  C   UNL     1       3.104   2.671  19.933  0.00  0.00    +0.000 A 
ATOM     28  C   UNL     1       4.385   3.086  19.353  0.00  0.00    +0.000 C 
ATOM     29  O   UNL     1       5.468   2.821  19.840  0.00  0.00    +0.000 OA
ENDBRANCH   4  19
TORSDOF 2
ENDMDL
MODEL 3
REMARK VINA RESULT:      -9.0      2.277      3.793
REMARK  Name = 
REMARK  2 active torsions:
REMARK  status: ('A' for Active; 'I' for Inactive)
REMARK    1  A    between atoms: C_2  and  C_3
REMARK    2  A    between atoms: C_6  and  N_7
REMARK                            x       y       z     vdW  Elec       q    Type
REMARK                         _______ _______ _______ _____ _____    ______ ____
ROOT
ATOM      1  C   UNL     1       2.093   6.583  19.084  0.00  0.00    +0.000 A 
ATOM      2  C   UNL     1       3.061   7.066  18.196  0.00  0.00    +0.000 A 
ATOM      3  C   UNL     1       3.715   6.196  17.321  0.00  0.00    +0.000 A 
ATOM      4  C   UNL     1       3.497   4.814  17.439  0.00  0.00    +0.000 A 
ATOM      5  C   UNL     1       2.335   4.390  18.097  0.00  0.00    +0.000 A 
ATOM      6  C   UNL     1       1.604   5.293  18.878  0.00  0.00    +0.000 A 
ENDROOT
BRANCH   1   8
ATOM      7  O   UNL     1       1.643   6.944  21.340  0.00  0.00    +0.000 OA
ATOM      8  C   UNL     1       1.726   7.476  20.233  0.00  0.00    +0.000 C 
ATOM      9  N   UNL     1       1.333   8.815  20.034  0.00  0.00    +0.000 N 
ATOM     10  C   UNL     1       0.679   9.486  21.173  0.00  0.00    +0.000 C 
ATOM     11  C   UNL     1      -0.001  10.840  20.885  0.00  0.00    +0.000 C 
ATOM     12  C   UNL     1       0.790  11.683  19.924  0.00  0.00    +0.000 A 
ATOM     13  C   UNL     1       0.806  13.080  19.982  0.00  0.00    +0.000 A 
ATOM     14  C   UNL     1       1.572  13.809  19.068  0.00  0.00    +0.000 A 
ATOM     15  C   UNL     1       2.316  13.151  18.092  0.00  0.00    +0.000 A 
ATOM     16  C   UNL     1       2.264  11.762  18.002  0.00  0.00    +0.000 A 
ATOM     17  C   UNL     1       1.491  11.024  18.906  0.00  0.00    +0.000 A 
ATOM     18  C   UNL     1       1.349   9.533  18.762  0.00  0.00    +0.000 C 
ENDBRANCH   1   8
BRANCH   4  19
ATOM     19  N   UNL     1       4.629   3.892  17.307  0.00  0.00    +0.000 N 
ATOM     20  C   UNL     1       5.363   3.842  18.482  0.00  0.00    +0.000 C 
ATOM     21  O   UNL     1       5.151   3.242  19.522  0.00  0.00    +0.000 OA
ATOM     22  C   UNL     1       6.478   4.773  18.299  0.00  0.00    +0.000 A 
ATOM     23  C   UNL     1       7.025   5.642  19.225  0.00  0.00    +0.000 A 
ATOM     24  C   UNL     1       7.709   6.752  18.721  0.00  0.00    +0.000 A 
ATOM     25  C   UNL     1       7.855   6.946  17.330  0.00  0.00    +0.000 A 
ATOM     26  C   UNL     1       7.306   6.043  16.415  0.00  0.00    +0.000 A 
ATOM     27  C   UNL     1       6.601   4.976  16.940  0.00  0.00    +0.000 A 
ATOM     28  C   UNL     1       5.528   4.207  16.302  0.00  0.00    +0.000 C 
ATOM     29  O   UNL     1       5.456   4.007  15.103  0.00  0.00    +0.000 OA
ENDBRANCH   4  19
TORSDOF 2
ENDMDL
MODEL 4
REMARK VINA RESULT:      -8.9      2.443      4.271
REMARK  Name = 
REMARK  2 active torsions:
REMARK  status: ('A' for Active; 'I' for Inactive)
REMARK    1  A    between atoms: C_2  and  C_3
REMARK    2  A    between atoms: C_6  and  N_7
REMARK                            x       y       z     vdW  Elec       q    Type
REMARK                         _______ _______ _______ _____ _____    ______ ____
ROOT
ATOM      1  C   UNL     1       2.045   7.308  18.647  0.00  0.00    +0.000 A 
ATOM      2  C   UNL     1       1.477   6.332  17.820  0.00  0.00    +0.000 A 
ATOM      3  C   UNL     1       1.972   5.027  17.821  0.00  0.00    +0.000 A 
ATOM      4  C   UNL     1       3.137   4.738  18.550  0.00  0.00    +0.000 A 
ATOM      5  C   UNL     1       3.498   5.616  19.580  0.00  0.00    +0.000 A 
ATOM      6  C   UNL     1       2.909   6.885  19.656  0.00  0.00    +0.000 A 
ENDROOT
BRANCH   1   8
ATOM      7  O   UNL     1       1.912   9.086  17.149  0.00  0.00    +0.000 OA
ATOM      8  C   UNL     1       1.733   8.738  18.316  0.00  0.00    +0.000 C 
ATOM      9  N   UNL     1       1.412   9.676  19.318  0.00  0.00    +0.000 N 
ATOM     10  C   UNL     1       1.458  11.098  18.928  0.00  0.00    +0.000 C 
ATOM     11  C   UNL     1       1.387  12.135  20.068  0.00  0.00    +0.000 C 
ATOM     12  C   UNL     1       0.428  11.727  21.151  0.00  0.00    +0.000 A 
ATOM     13  C   UNL     1      -0.307  12.653  21.898  0.00  0.00    +0.000 A 
ATOM     14  C   UNL     1      -1.194  12.212  22.883  0.00  0.00    +0.000 A 
ATOM     15  C   UNL     1      -1.347  10.851  23.132  0.00  0.00    +0.000 A 
ATOM     16  C   UNL     1      -0.582   9.928  22.423  0.00  0.00    +0.000 A 
ATOM     17  C   UNL     1       0.318  10.361  21.442  0.00  0.00    +0.000 A 
ATOM     18  C   UNL     1       1.219   9.385  20.736  0.00  0.00    +0.000 C 
ENDBRANCH   1   8
BRANCH   4  19
ATOM     19  N   UNL     1       4.150   3.852  17.969  0.00  0.00    +0.000 N 
ATOM     20  C   UNL     1       5.216   3.686  18.841  0.00  0.00    +0.000 C 
ATOM     21  O   UNL     1       5.330   2.972  19.824  0.00  0.00    +0.000 OA
ATOM     22  C   UNL     1       6.236   4.647  18.418  0.00  0.00    +0.000 A 
ATOM     23  C   UNL     1       7.064   5.418  19.213  0.00  0.00    +0.000 A 
ATOM     24  C   UNL     1       7.577   6.587  18.642  0.00  0.00    +0.000 A 
ATOM     25  C   UNL     1       7.282   6.933  17.305  0.00  0.00    +0.000 A 
ATOM     26  C   UNL     1       6.455   6.127  16.518  0.00  0.00    +0.000 A 
ATOM     27  C   UNL     1       5.929   4.999  17.119  0.00  0.00    +0.000 A 
ATOM     28  C   UNL     1       4.694   4.289  16.772  0.00  0.00    +0.000 C 
ATOM     29  O   UNL     1       4.245   4.220  15.644  0.00  0.00    +0.000 OA
ENDBRANCH   4  19
TORSDOF 2
ENDMDL
MODEL 5
REMARK VINA RESULT:      -8.9      2.335      4.229
REMARK  Name = 
REMARK  2 active torsions:
REMARK  status: ('A' for Active; 'I' for Inactive)
REMARK    1  A    between atoms: C_2  and  C_3
REMARK    2  A    between atoms: C_6  and  N_7
REMARK                            x       y       z     vdW  Elec       q    Type
REMARK                         _______ _______ _______ _____ _____    ______ ____
ROOT
ATOM      1  C   UNL     1       1.920   7.407  18.826  0.00  0.00    +0.000 A 
ATOM      2  C   UNL     1       1.890   6.489  17.770  0.00  0.00    +0.000 A 
ATOM      3  C   UNL     1       2.408   5.203  17.934  0.00  0.00    +0.000 A 
ATOM      4  C   UNL     1       3.090   4.886  19.120  0.00  0.00    +0.000 A 
ATOM      5  C   UNL     1       2.847   5.683  20.246  0.00  0.00    +0.000 A 
ATOM      6  C   UNL     1       2.212   6.923  20.102  0.00  0.00    +0.000 A 
ENDROOT
BRANCH   1   8
ATOM      7  O   UNL     1       1.976   9.177  17.316  0.00  0.00    +0.000 OA
ATOM      8  C   UNL     1       1.713   8.850  18.473  0.00  0.00    +0.000 C 
ATOM      9  N   UNL     1       1.395   9.813  19.451  0.00  0.00    +0.000 N 
ATOM     10  C   UNL     1       1.547  11.226  19.058  0.00  0.00    +0.000 C 
ATOM     11  C   UNL     1       1.475  12.274  20.188  0.00  0.00    +0.000 C 
ATOM     12  C   UNL     1       0.436  11.933  21.218  0.00  0.00    +0.000 A 
ATOM     13  C   UNL     1      -0.282  12.907  21.919  0.00  0.00    +0.000 A 
ATOM     14  C   UNL     1      -1.246  12.527  22.856  0.00  0.00    +0.000 A 
ATOM     15  C   UNL     1      -1.494  11.179  23.102  0.00  0.00    +0.000 A 
ATOM     16  C   UNL     1      -0.748  10.207  22.440  0.00  0.00    +0.000 A 
ATOM     17  C   UNL     1       0.228  10.578  21.508  0.00  0.00    +0.000 A 
ATOM     18  C   UNL     1       1.107   9.544  20.857  0.00  0.00    +0.000 C 
ENDBRANCH   1   8
BRANCH   4  19
ATOM     19  N   UNL     1       4.315   4.083  19.056  0.00  0.00    +0.000 N 
ATOM     20  C   UNL     1       5.435   4.898  18.991  0.00  0.00    +0.000 C 
ATOM     21  O   UNL     1       6.023   5.505  19.870  0.00  0.00    +0.000 OA
ATOM     22  C   UNL     1       5.776   5.000  17.570  0.00  0.00    +0.000 A 
ATOM     23  C   UNL     1       6.219   6.111  16.877  0.00  0.00    +0.000 A 
ATOM     24  C   UNL     1       6.003   6.119  15.496  0.00  0.00    +0.000 A 
ATOM     25  C   UNL     1       5.389   5.024  14.849  0.00  0.00    +0.000 A 
ATOM     26  C   UNL     1       4.966   3.905  15.572  0.00  0.00    +0.000 A 
ATOM     27  C   UNL     1       5.155   3.940  16.941  0.00  0.00    +0.000 A 
ATOM     28  C   UNL     1       4.397   3.225  17.971  0.00  0.00    +0.000 C 
ATOM     29  O   UNL     1       3.885   2.133  17.804  0.00  0.00    +0.000 OA
ENDBRANCH   4  19
TORSDOF 2
ENDMDL
MODEL 6
REMARK VINA RESULT:      -8.8      1.046      1.097
REMARK  Name = 
REMARK  2 active torsions:
REMARK  status: ('A' for Active; 'I' for Inactive)
REMARK    1  A    between atoms: C_2  and  C_3
REMARK    2  A    between atoms: C_6  and  N_7
REMARK                            x       y       z     vdW  Elec       q    Type
REMARK                         _______ _______ _______ _____ _____    ______ ____
ROOT
ATOM      1  C   UNL     1       1.605   8.854  18.752  0.00  0.00    +0.000 A 
ATOM      2  C   UNL     1       1.634   7.862  19.739  0.00  0.00    +0.000 A 
ATOM      3  C   UNL     1       2.429   6.726  19.578  0.00  0.00    +0.000 A 
ATOM      4  C   UNL     1       3.086   6.518  18.355  0.00  0.00    +0.000 A 
ATOM      5  C   UNL     1       3.291   7.629  17.526  0.00  0.00    +0.000 A 
ATOM      6  C   UNL     1       2.586   8.816  17.761  0.00  0.00    +0.000 A 
ENDROOT
BRANCH   1   8
ATOM      7  O   UNL     1      -0.660   9.370  18.607  0.00  0.00    +0.000 OA
ATOM      8  C   UNL     1       0.465   9.828  18.806  0.00  0.00    +0.000 C 
ATOM      9  N   UNL     1       0.681  11.216  18.912  0.00  0.00    +0.000 N 
ATOM     10  C   UNL     1      -0.472  12.087  18.618  0.00  0.00    +0.000 C 
ATOM     11  C   UNL     1      -0.183  13.594  18.456  0.00  0.00    +0.000 C 
ATOM     12  C   UNL     1       0.845  14.085  19.435  0.00  0.00    +0.000 A 
ATOM     13  C   UNL     1       0.831  15.382  19.959  0.00  0.00    +0.000 A 
ATOM     14  C   UNL     1       1.808  15.777  20.877  0.00  0.00    +0.000 A 
ATOM     15  C   UNL     1       2.803  14.887  21.270  0.00  0.00    +0.000 A 
ATOM     16  C   UNL     1       2.849  13.611  20.714  0.00  0.00    +0.000 A 
ATOM     17  C   UNL     1       1.881  13.210  19.786  0.00  0.00    +0.000 A 
ATOM     18  C   UNL     1       1.972  11.870  19.105  0.00  0.00    +0.000 C 
ENDBRANCH   1   8
BRANCH   4  19
ATOM     19  N   UNL     1       3.128   5.171  17.778  0.00  0.00    +0.000 N 
ATOM     20  C   UNL     1       1.879   4.572  17.836  0.00  0.00    +0.000 C 
ATOM     21  O   UNL     1       0.899   4.715  17.123  0.00  0.00    +0.000 OA
ATOM     22  C   UNL     1       1.887   3.739  19.041  0.00  0.00    +0.000 A 
ATOM     23  C   UNL     1       0.865   3.545  19.951  0.00  0.00    +0.000 A 
ATOM     24  C   UNL     1       1.234   3.142  21.237  0.00  0.00    +0.000 A 
ATOM     25  C   UNL     1       2.588   2.916  21.568  0.00  0.00    +0.000 A 
ATOM     26  C   UNL     1       3.601   3.104  20.624  0.00  0.00    +0.000 A 
ATOM     27  C   UNL     1       3.212   3.542  19.372  0.00  0.00    +0.000 A 
ATOM     28  C   UNL     1       4.006   4.296  18.396  0.00  0.00    +0.000 C 
ATOM     29  O   UNL     1       5.212   4.191  18.276  0.00  0.00    +0.000 OA
ENDBRANCH   4  19
TORSDOF 2
ENDMDL
MODEL 7
REMARK VINA RESULT:      -8.8      2.529      4.039
REMARK  Name = 
REMARK  2 active torsions:
REMARK  status: ('A' for Active; 'I' for Inactive)
REMARK    1  A    between atoms: C_2  and  C_3
REMARK    2  A    between atoms: C_6  and  N_7
REMARK                            x       y       z     vdW  Elec       q    Type
REMARK                         _______ _______ _______ _____ _____    ______ ____
ROOT
ATOM      1  C   UNL     1       1.234   9.366  19.552  0.00  0.00    +0.000 A 
ATOM      2  C   UNL     1       1.371   8.643  20.743  0.00  0.00    +0.000 A 
ATOM      3  C   UNL     1       1.893   7.348  20.729  0.00  0.00    +0.000 A 
ATOM      4  C   UNL     1       2.143   6.724  19.497  0.00  0.00    +0.000 A 
ATOM      5  C   UNL     1       2.290   7.542  18.368  0.00  0.00    +0.000 A 
ATOM      6  C   UNL     1       1.882   8.880  18.417  0.00  0.00    +0.000 A 
ENDROOT
BRANCH   1   8
ATOM      7  O   UNL     1       0.626  11.455  20.381  0.00  0.00    +0.000 OA
ATOM      8  C   UNL     1       0.328  10.561  19.589  0.00  0.00    +0.000 C 
ATOM      9  N   UNL     1      -0.890  10.589  18.880  0.00  0.00    +0.000 N 
ATOM     10  C   UNL     1      -1.844  11.651  19.251  0.00  0.00    +0.000 C 
ATOM     11  C   UNL     1      -3.275  11.527  18.689  0.00  0.00    +0.000 C 
ATOM     12  C   UNL     1      -3.292  11.021  17.274  0.00  0.00    +0.000 A 
ATOM     13  C   UNL     1      -4.263  11.407  16.345  0.00  0.00    +0.000 A 
ATOM     14  C   UNL     1      -4.218  10.912  15.039  0.00  0.00    +0.000 A 
ATOM     15  C   UNL     1      -3.212  10.030  14.656  0.00  0.00    +0.000 A 
ATOM     16  C   UNL     1      -2.270   9.607  15.592  0.00  0.00    +0.000 A 
ATOM     17  C   UNL     1      -2.314  10.088  16.906  0.00  0.00    +0.000 A 
ATOM     18  C   UNL     1      -1.364   9.568  17.951  0.00  0.00    +0.000 C 
ENDBRANCH   1   8
BRANCH   4  19
ATOM     19  N   UNL     1       1.803   5.309  19.322  0.00  0.00    +0.000 N 
ATOM     20  C   UNL     1       2.680   4.502  20.031  0.00  0.00    +0.000 C 
ATOM     21  O   UNL     1       2.715   4.223  21.218  0.00  0.00    +0.000 OA
ATOM     22  C   UNL     1       3.698   4.073  19.070  0.00  0.00    +0.000 A 
ATOM     23  C   UNL     1       5.059   3.937  19.272  0.00  0.00    +0.000 A 
ATOM     24  C   UNL     1       5.875   4.009  18.139  0.00  0.00    +0.000 A 
ATOM     25  C   UNL     1       5.319   4.181  16.852  0.00  0.00    +0.000 A 
ATOM     26  C   UNL     1       3.938   4.299  16.674  0.00  0.00    +0.000 A 
ATOM     27  C   UNL     1       3.158   4.264  17.814  0.00  0.00    +0.000 A 
ATOM     28  C   UNL     1       1.831   4.856  18.014  0.00  0.00    +0.000 C 
ATOM     29  O   UNL     1       1.003   4.979  17.131  0.00  0.00    +0.000 OA
ENDBRANCH   4  19
TORSDOF 2
ENDMDL
MODEL 8
REMARK VINA RESULT:      -8.7      7.906      9.369
REMARK  Name = 
REMARK  2 active torsions:
REMARK  status: ('A' for Active; 'I' for Inactive)
REMARK    1  A    between atoms: C_2  and  C_3
REMARK    2  A    between atoms: C_6  and  N_7
REMARK                            x       y       z     vdW  Elec       q    Type
REMARK                         _______ _______ _______ _____ _____    ______ ____
ROOT
ATOM      1  C   UNL     1       6.471  15.485  18.980  0.00  0.00    +0.000 A 
ATOM      2  C   UNL     1       7.369  16.560  18.967  0.00  0.00    +0.000 A 
ATOM      3  C   UNL     1       8.656  16.401  18.450  0.00  0.00    +0.000 A 
ATOM      4  C   UNL     1       9.090  15.119  18.077  0.00  0.00    +0.000 A 
ATOM      5  C   UNL     1       8.114  14.149  17.814  0.00  0.00    +0.000 A 
ATOM      6  C   UNL     1       6.791  14.360  18.221  0.00  0.00    +0.000 A 
ENDROOT
BRANCH   1   8
ATOM      7  O   UNL     1       5.470  15.407  21.081  0.00  0.00    +0.000 OA
ATOM      8  C   UNL     1       5.279  15.613  19.882  0.00  0.00    +0.000 C 
ATOM      9  N   UNL     1       3.979  15.793  19.368  0.00  0.00    +0.000 N 
ATOM     10  C   UNL     1       2.863  15.567  20.306  0.00  0.00    +0.000 C 
ATOM     11  C   UNL     1       1.448  15.486  19.697  0.00  0.00    +0.000 C 
ATOM     12  C   UNL     1       1.249  16.473  18.582  0.00  0.00    +0.000 A 
ATOM     13  C   UNL     1       0.013  17.069  18.312  0.00  0.00    +0.000 A 
ATOM     14  C   UNL     1      -0.107  17.991  17.269  0.00  0.00    +0.000 A 
ATOM     15  C   UNL     1       0.999  18.317  16.489  0.00  0.00    +0.000 A 
ATOM     16  C   UNL     1       2.220  17.690  16.725  0.00  0.00    +0.000 A 
ATOM     17  C   UNL     1       2.347  16.756  17.760  0.00  0.00    +0.000 A 
ATOM     18  C   UNL     1       3.633  16.001  17.965  0.00  0.00    +0.000 C 
ENDBRANCH   1   8
BRANCH   4  19
ATOM     19  N   UNL     1      10.457  14.698  18.401  0.00  0.00    +0.000 N 
ATOM     20  C   UNL     1      10.815  13.580  17.663  0.00  0.00    +0.000 C 
ATOM     21  O   UNL     1      11.189  13.483  16.506  0.00  0.00    +0.000 OA
ATOM     22  C   UNL     1      10.567  12.427  18.531  0.00  0.00    +0.000 A 
ATOM     23  C   UNL     1      10.045  11.195  18.185  0.00  0.00    +0.000 A 
ATOM     24  C   UNL     1       9.441  10.456  19.207  0.00  0.00    +0.000 A 
ATOM     25  C   UNL     1       9.402  10.944  20.532  0.00  0.00    +0.000 A 
ATOM     26  C   UNL     1       9.952  12.187  20.858  0.00  0.00    +0.000 A 
ATOM     27  C   UNL     1      10.507  12.914  19.821  0.00  0.00    +0.000 A 
ATOM     28  C   UNL     1      10.669  14.368  19.730  0.00  0.00    +0.000 C 
ATOM     29  O   UNL     1      10.856  15.093  20.690  0.00  0.00    +0.000 OA
ENDBRANCH   4  19
TORSDOF 2
ENDMDL
MODEL 9
REMARK VINA RESULT:      -8.7      2.378      4.130
REMARK  Name = 
REMARK  2 active torsions:
REMARK  status: ('A' for Active; 'I' for Inactive)
REMARK    1  A    between atoms: C_2  and  C_3
REMARK    2  A    between atoms: C_6  and  N_7
REMARK                            x       y       z     vdW  Elec       q    Type
REMARK                         _______ _______ _______ _____ _____    ______ ____
ROOT
ATOM      1  C   UNL     1       1.995   8.191  18.487  0.00  0.00    +0.000 A 
ATOM      2  C   UNL     1       1.839   7.405  19.635  0.00  0.00    +0.000 A 
ATOM      3  C   UNL     1       2.677   6.312  19.863  0.00  0.00    +0.000 A 
ATOM      4  C   UNL     1       3.579   5.920  18.861  0.00  0.00    +0.000 A 
ATOM      5  C   UNL     1       3.927   6.867  17.889  0.00  0.00    +0.000 A 
ATOM      6  C   UNL     1       3.161   8.030  17.740  0.00  0.00    +0.000 A 
ENDROOT
BRANCH   1   8
ATOM      7  O   UNL     1       0.465   9.038  16.950  0.00  0.00    +0.000 OA
ATOM      8  C   UNL     1       0.846   9.084  18.120  0.00  0.00    +0.000 C 
ATOM      9  N   UNL     1       0.338  10.044  19.018  0.00  0.00    +0.000 N 
ATOM     10  C   UNL     1      -0.546  11.077  18.446  0.00  0.00    +0.000 C 
ATOM     11  C   UNL     1      -0.880  12.283  19.349  0.00  0.00    +0.000 C 
ATOM     12  C   UNL     1      -1.090  11.883  20.781  0.00  0.00    +0.000 A 
ATOM     13  C   UNL     1      -1.982  12.548  21.628  0.00  0.00    +0.000 A 
ATOM     14  C   UNL     1      -2.145  12.121  22.949  0.00  0.00    +0.000 A 
ATOM     15  C   UNL     1      -1.418  11.036  23.431  0.00  0.00    +0.000 A 
ATOM     16  C   UNL     1      -0.494  10.401  22.604  0.00  0.00    +0.000 A 
ATOM     17  C   UNL     1      -0.316  10.829  21.283  0.00  0.00    +0.000 A 
ATOM     18  C   UNL     1       0.745  10.216  20.409  0.00  0.00    +0.000 C 
ENDBRANCH   1   8
BRANCH   4  19
ATOM     19  N   UNL     1       3.772   4.494  18.581  0.00  0.00    +0.000 N 
ATOM     20  C   UNL     1       5.102   4.137  18.741  0.00  0.00    +0.000 C 
ATOM     21  O   UNL     1       5.742   3.901  19.752  0.00  0.00    +0.000 OA
ATOM     22  C   UNL     1       5.693   4.180  17.401  0.00  0.00    +0.000 A 
ATOM     23  C   UNL     1       6.947   4.635  17.036  0.00  0.00    +0.000 A 
ATOM     24  C   UNL     1       7.106   5.046  15.709  0.00  0.00    +0.000 A 
ATOM     25  C   UNL     1       6.038   4.963  14.789  0.00  0.00    +0.000 A 
ATOM     26  C   UNL     1       4.785   4.483  15.181  0.00  0.00    +0.000 A 
ATOM     27  C   UNL     1       4.644   4.122  16.507  0.00  0.00    +0.000 A 
ATOM     28  C   UNL     1       3.414   4.094  17.304  0.00  0.00    +0.000 C 
ATOM     29  O   UNL     1       2.313   3.852  16.846  0.00  0.00    +0.000 OA
ENDBRANCH   4  19
TORSDOF 2
ENDMDL
