MODEL 1
REMARK VINA RESULT:      -8.9      0.000      0.000
REMARK  Name = 
REMARK  6 active torsions:
REMARK  status: ('A' for Active; 'I' for Inactive)
REMARK    1  A    between atoms: C_1  and  C_2
REMARK    2  A    between atoms: C_6  and  N_7
REMARK    3  A    between atoms: C_8  and  C_10
REMARK    4  A    between atoms: C_14  and  S_15
REMARK    5  A    between atoms: S_15  and  N_18
REMARK    6  A    between atoms: C_21  and  C_22
REMARK                            x       y       z     vdW  Elec       q    Type
REMARK                         _______ _______ _______ _____ _____    ______ ____
ROOT
ATOM      1  C   UNL     1       7.952   7.428  18.270  0.00  0.00    +0.000 A 
ATOM      2  C   UNL     1       8.345   6.589  19.320  0.00  0.00    +0.000 A 
ATOM      3  C   UNL     1       7.929   5.253  19.337  0.00  0.00    +0.000 A 
ATOM      4  C   UNL     1       7.083   4.765  18.338  0.00  0.00    +0.000 A 
ATOM      5  C   UNL     1       6.636   5.619  17.327  0.00  0.00    +0.000 A 
ATOM      6  C   UNL     1       7.118   6.927  17.255  0.00  0.00    +0.000 A 
ENDROOT
BRANCH   1   8
ATOM      7  N   UNL     1       9.247   9.337  19.106  0.00  0.00    +0.000 N 
ATOM      8  C   UNL     1       8.268   8.883  18.238  0.00  0.00    +0.000 C 
ATOM      9  O   UNL     1       7.621   9.562  17.442  0.00  0.00    +0.000 OA
ATOM     10  H   UNL     1       9.777   8.675  19.649  0.00  0.00    +0.000 HD
BRANCH   7  16
ATOM     11  C   UNL     1      10.920  13.362  17.131  0.00  0.00    +0.000 C 
ATOM     12  C   UNL     1      10.377  12.656  18.332  0.00  0.00    +0.000 A 
ATOM     13  N   UNL     1      10.234  13.340  19.476  0.00  0.00    +0.000 NA
ATOM     14  C   UNL     1       9.746  12.641  20.521  0.00  0.00    +0.000 A 
ATOM     15  C   UNL     1       9.401  11.312  20.458  0.00  0.00    +0.000 A 
ATOM     16  C   UNL     1       9.586  10.698  19.239  0.00  0.00    +0.000 A 
ATOM     17  N   UNL     1      10.063  11.364  18.182  0.00  0.00    +0.000 NA
ENDBRANCH   7  16
ENDBRANCH   1   8
BRANCH   5  18
ATOM     18  S   UNL     1       5.462   5.037  16.110  0.00  0.00    +0.000 S 
ATOM     19  O   UNL     1       5.501   5.965  14.998  0.00  0.00    +0.000 OA
ATOM     20  O   UNL     1       5.730   3.629  15.904  0.00  0.00    +0.000 OA
BRANCH  18  21
ATOM     21  N   UNL     1       3.922   5.177  16.879  0.00  0.00    +0.000 NA
ATOM     22  C   UNL     1       3.105   3.936  16.847  0.00  0.00    +0.000 C 
ATOM     23  C   UNL     1       1.718   4.135  17.458  0.00  0.00    +0.000 C 
ATOM     24  C   UNL     1       1.759   4.777  18.846  0.00  0.00    +0.000 C 
ATOM     25  C   UNL     1       2.534   6.089  18.754  0.00  0.00    +0.000 C 
ATOM     26  C   UNL     1       3.935   5.908  18.174  0.00  0.00    +0.000 C 
BRANCH  24  27
ATOM     27  C   UNL     1       2.318   3.849  19.890  0.00  0.00    +0.000 A 
ATOM     28  N   UNL     1       3.435   3.153  19.811  0.00  0.00    +0.000 NA
ATOM     29  C   UNL     1       3.525   2.445  20.978  0.00  0.00    +0.000 A 
ATOM     30  C   UNL     1       2.451   2.711  21.789  0.00  0.00    +0.000 A 
ATOM     31  N   UNL     1       1.692   3.609  21.091  0.00  0.00    +0.000 N 
ATOM     32  H   UNL     1       0.819   4.019  21.399  0.00  0.00    +0.000 HD
ENDBRANCH  24  27
ENDBRANCH  18  21
ENDBRANCH   5  18
TORSDOF 5
ENDMDL
MODEL 2
REMARK VINA RESULT:      -8.7      0.582      1.242
REMARK  Name = 
REMARK  6 active torsions:
REMARK  status: ('A' for Active; 'I' for Inactive)
REMARK    1  A    between atoms: C_1  and  C_2
REMARK    2  A    between atoms: C_6  and  N_7
REMARK    3  A    between atoms: C_8  and  C_10
REMARK    4  A    between atoms: C_14  and  S_15
REMARK    5  A    between atoms: S_15  and  N_18
REMARK    6  A    between atoms: C_21  and  C_22
REMARK                            x       y       z     vdW  Elec       q    Type
REMARK                         _______ _______ _______ _____ _____    ______ ____
ROOT
ATOM      1  C   UNL     1       7.989   7.486  18.281  0.00  0.00    +0.000 A 
ATOM      2  C   UNL     1       8.384   6.644  19.329  0.00  0.00    +0.000 A 
ATOM      3  C   UNL     1       7.970   5.308  19.342  0.00  0.00    +0.000 A 
ATOM      4  C   UNL     1       7.124   4.822  18.342  0.00  0.00    +0.000 A 
ATOM      5  C   UNL     1       6.675   5.679  17.335  0.00  0.00    +0.000 A 
ATOM      6  C   UNL     1       7.155   6.988  17.265  0.00  0.00    +0.000 A 
ENDROOT
BRANCH   1   8
ATOM      7  N   UNL     1       9.240   9.404  19.164  0.00  0.00    +0.000 N 
ATOM      8  C   UNL     1       8.304   8.942  18.254  0.00  0.00    +0.000 C 
ATOM      9  O   UNL     1       7.694   9.613  17.423  0.00  0.00    +0.000 OA
ATOM     10  H   UNL     1       9.745   8.747  19.736  0.00  0.00    +0.000 HD
BRANCH   7  16
ATOM     11  C   UNL     1       9.021  13.437  21.731  0.00  0.00    +0.000 C 
ATOM     12  C   UNL     1       9.495  12.725  20.505  0.00  0.00    +0.000 A 
ATOM     13  N   UNL     1      10.209  13.405  19.595  0.00  0.00    +0.000 NA
ATOM     14  C   UNL     1      10.599  12.706  18.511  0.00  0.00    +0.000 A 
ATOM     15  C   UNL     1      10.308  11.376  18.313  0.00  0.00    +0.000 A 
ATOM     16  C   UNL     1       9.569  10.767  19.303  0.00  0.00    +0.000 A 
ATOM     17  N   UNL     1       9.171  11.431  20.393  0.00  0.00    +0.000 NA
ENDBRANCH   7  16
ENDBRANCH   1   8
BRANCH   5  18
ATOM     18  S   UNL     1       5.500   5.099  16.117  0.00  0.00    +0.000 S 
ATOM     19  O   UNL     1       5.536   6.032  15.008  0.00  0.00    +0.000 OA
ATOM     20  O   UNL     1       5.769   3.693  15.906  0.00  0.00    +0.000 OA
BRANCH  18  21
ATOM     21  N   UNL     1       3.961   5.234  16.888  0.00  0.00    +0.000 NA
ATOM     22  C   UNL     1       3.139   3.996  16.839  0.00  0.00    +0.000 C 
ATOM     23  C   UNL     1       1.753   4.191  17.454  0.00  0.00    +0.000 C 
ATOM     24  C   UNL     1       1.797   4.813  18.851  0.00  0.00    +0.000 C 
ATOM     25  C   UNL     1       2.577   6.124  18.777  0.00  0.00    +0.000 C 
ATOM     26  C   UNL     1       3.977   5.947  18.194  0.00  0.00    +0.000 C 
BRANCH  24  27
ATOM     27  C   UNL     1       2.353   3.869  19.881  0.00  0.00    +0.000 A 
ATOM     28  N   UNL     1       3.436   3.125  19.767  0.00  0.00    +0.000 NA
ATOM     29  C   UNL     1       3.537   2.421  20.936  0.00  0.00    +0.000 A 
ATOM     30  C   UNL     1       2.505   2.738  21.783  0.00  0.00    +0.000 A 
ATOM     31  N   UNL     1       1.761   3.664  21.105  0.00  0.00    +0.000 N 
ATOM     32  H   UNL     1       0.918   4.113  21.442  0.00  0.00    +0.000 HD
ENDBRANCH  24  27
ENDBRANCH  18  21
ENDBRANCH   5  18
TORSDOF 5
ENDMDL
MODEL 3
REMARK VINA RESULT:      -8.4      0.721      1.008
REMARK  Name = 
REMARK  6 active torsions:
REMARK  status: ('A' for Active; 'I' for Inactive)
REMARK    1  A    between atoms: C_1  and  C_2
REMARK    2  A    between atoms: C_6  and  N_7
REMARK    3  A    between atoms: C_8  and  C_10
REMARK    4  A    between atoms: C_14  and  S_15
REMARK    5  A    between atoms: S_15  and  N_18
REMARK    6  A    between atoms: C_21  and  C_22
REMARK                            x       y       z     vdW  Elec       q    Type
REMARK                         _______ _______ _______ _____ _____    ______ ____
ROOT
ATOM      1  C   UNL     1       8.044   7.663  18.248  0.00  0.00    +0.000 A 
ATOM      2  C   UNL     1       8.402   6.728  19.228  0.00  0.00    +0.000 A 
ATOM      3  C   UNL     1       7.953   5.408  19.128  0.00  0.00    +0.000 A 
ATOM      4  C   UNL     1       7.109   5.027  18.082  0.00  0.00    +0.000 A 
ATOM      5  C   UNL     1       6.697   5.974  17.142  0.00  0.00    +0.000 A 
ATOM      6  C   UNL     1       7.212   7.271  17.185  0.00  0.00    +0.000 A 
ENDROOT
BRANCH   1   8
ATOM      7  N   UNL     1       9.301   9.474  19.325  0.00  0.00    +0.000 N 
ATOM      8  C   UNL     1       8.398   9.106  18.342  0.00  0.00    +0.000 C 
ATOM      9  O   UNL     1       7.845   9.854  17.536  0.00  0.00    +0.000 OA
ATOM     10  H   UNL     1       9.762   8.763  19.869  0.00  0.00    +0.000 HD
BRANCH   7  16
ATOM     11  C   UNL     1      11.359  13.528  17.828  0.00  0.00    +0.000 C 
ATOM     12  C   UNL     1      10.630  12.783  18.900  0.00  0.00    +0.000 A 
ATOM     13  N   UNL     1      10.346  13.414  20.049  0.00  0.00    +0.000 NA
ATOM     14  C   UNL     1       9.694  12.683  20.975  0.00  0.00    +0.000 A 
ATOM     15  C   UNL     1       9.321  11.372  20.791  0.00  0.00    +0.000 A 
ATOM     16  C   UNL     1       9.658  10.813  19.579  0.00  0.00    +0.000 A 
ATOM     17  N   UNL     1      10.301  11.513  18.637  0.00  0.00    +0.000 NA
ENDBRANCH   7  16
ENDBRANCH   1   8
BRANCH   5  18
ATOM     18  S   UNL     1       5.525   5.526  15.867  0.00  0.00    +0.000 S 
ATOM     19  O   UNL     1       5.301   6.706  15.056  0.00  0.00    +0.000 OA
ATOM     20  O   UNL     1       6.002   4.299  15.266  0.00  0.00    +0.000 OA
BRANCH  18  21
ATOM     21  N   UNL     1       4.064   5.169  16.716  0.00  0.00    +0.000 NA
ATOM     22  C   UNL     1       3.581   3.773  16.545  0.00  0.00    +0.000 C 
ATOM     23  C   UNL     1       2.241   3.530  17.240  0.00  0.00    +0.000 C 
ATOM     24  C   UNL     1       2.231   3.981  18.702  0.00  0.00    +0.000 C 
ATOM     25  C   UNL     1       2.646   5.449  18.762  0.00  0.00    +0.000 C 
ATOM     26  C   UNL     1       3.997   5.709  18.100  0.00  0.00    +0.000 C 
BRANCH  24  27
ATOM     27  C   UNL     1       3.084   3.105  19.578  0.00  0.00    +0.000 A 
ATOM     28  N   UNL     1       3.031   3.011  20.892  0.00  0.00    +0.000 NA
ATOM     29  C   UNL     1       3.999   2.113  21.248  0.00  0.00    +0.000 A 
ATOM     30  C   UNL     1       4.656   1.645  20.138  0.00  0.00    +0.000 A 
ATOM     31  N   UNL     1       4.064   2.278  19.080  0.00  0.00    +0.000 N 
ATOM     32  H   UNL     1       4.309   2.164  18.105  0.00  0.00    +0.000 HD
ENDBRANCH  24  27
ENDBRANCH  18  21
ENDBRANCH   5  18
TORSDOF 5
ENDMDL
MODEL 4
REMARK VINA RESULT:      -8.1      4.638      7.609
REMARK  Name = 
REMARK  6 active torsions:
REMARK  status: ('A' for Active; 'I' for Inactive)
REMARK    1  A    between atoms: C_1  and  C_2
REMARK    2  A    between atoms: C_6  and  N_7
REMARK    3  A    between atoms: C_8  and  C_10
REMARK    4  A    between atoms: C_14  and  S_15
REMARK    5  A    between atoms: S_15  and  N_18
REMARK    6  A    between atoms: C_21  and  C_22
REMARK                            x       y       z     vdW  Elec       q    Type
REMARK                         _______ _______ _______ _____ _____    ______ ____
ROOT
ATOM      1  C   UNL     1       1.602   5.534  20.461  0.00  0.00    +0.000 A 
ATOM      2  C   UNL     1       0.547   4.647  20.711  0.00  0.00    +0.000 A 
ATOM      3  C   UNL     1       0.716   3.279  20.473  0.00  0.00    +0.000 A 
ATOM      4  C   UNL     1       1.915   2.799  19.941  0.00  0.00    +0.000 A 
ATOM      5  C   UNL     1       2.943   3.692  19.628  0.00  0.00    +0.000 A 
ATOM      6  C   UNL     1       2.814   5.045  19.945  0.00  0.00    +0.000 A 
ENDROOT
BRANCH   1   8
ATOM      7  N   UNL     1       0.357   7.484  21.279  0.00  0.00    +0.000 N 
ATOM      8  C   UNL     1       1.461   7.011  20.591  0.00  0.00    +0.000 C 
ATOM      9  O   UNL     1       2.344   7.689  20.065  0.00  0.00    +0.000 OA
ATOM     10  H   UNL     1      -0.253   6.834  21.749  0.00  0.00    +0.000 HD
BRANCH   7  16
ATOM     11  C   UNL     1      -0.504  11.704  19.192  0.00  0.00    +0.000 C 
ATOM     12  C   UNL     1      -0.368  10.900  20.446  0.00  0.00    +0.000 A 
ATOM     13  N   UNL     1      -0.536  11.511  21.628  0.00  0.00    +0.000 NA
ATOM     14  C   UNL     1      -0.392  10.731  22.718  0.00  0.00    +0.000 A 
ATOM     15  C   UNL     1      -0.097   9.389  22.665  0.00  0.00    +0.000 A 
ATOM     16  C   UNL     1       0.057   8.855  21.405  0.00  0.00    +0.000 A 
ATOM     17  N   UNL     1      -0.083   9.601  20.303  0.00  0.00    +0.000 NA
ENDBRANCH   7  16
ENDBRANCH   1   8
BRANCH   5  18
ATOM     18  S   UNL     1       4.437   3.104  18.838  0.00  0.00    +0.000 S 
ATOM     19  O   UNL     1       5.333   2.666  19.889  0.00  0.00    +0.000 OA
ATOM     20  O   UNL     1       4.031   2.193  17.789  0.00  0.00    +0.000 OA
BRANCH  18  21
ATOM     21  N   UNL     1       5.121   4.502  18.091  0.00  0.00    +0.000 NA
ATOM     22  C   UNL     1       6.582   4.405  17.828  0.00  0.00    +0.000 C 
ATOM     23  C   UNL     1       7.158   5.697  17.250  0.00  0.00    +0.000 C 
ATOM     24  C   UNL     1       6.376   6.218  16.042  0.00  0.00    +0.000 C 
ATOM     25  C   UNL     1       4.910   6.375  16.442  0.00  0.00    +0.000 C 
ATOM     26  C   UNL     1       4.305   5.087  16.993  0.00  0.00    +0.000 C 
BRANCH  24  27
ATOM     27  C   UNL     1       6.551   5.347  14.828  0.00  0.00    +0.000 A 
ATOM     28  N   UNL     1       5.741   4.389  14.419  0.00  0.00    +0.000 NA
ATOM     29  C   UNL     1       6.312   3.865  13.292  0.00  0.00    +0.000 A 
ATOM     30  C   UNL     1       7.488   4.510  13.001  0.00  0.00    +0.000 A 
ATOM     31  N   UNL     1       7.628   5.455  13.980  0.00  0.00    +0.000 N 
ATOM     32  H   UNL     1       8.394   6.111  14.069  0.00  0.00    +0.000 HD
ENDBRANCH  24  27
ENDBRANCH  18  21
ENDBRANCH   5  18
TORSDOF 5
ENDMDL
MODEL 5
REMARK VINA RESULT:      -8.0      7.970     10.574
REMARK  Name = 
REMARK  6 active torsions:
REMARK  status: ('A' for Active; 'I' for Inactive)
REMARK    1  A    between atoms: C_1  and  C_2
REMARK    2  A    between atoms: C_6  and  N_7
REMARK    3  A    between atoms: C_8  and  C_10
REMARK    4  A    between atoms: C_14  and  S_15
REMARK    5  A    between atoms: S_15  and  N_18
REMARK    6  A    between atoms: C_21  and  C_22
REMARK                            x       y       z     vdW  Elec       q    Type
REMARK                         _______ _______ _______ _____ _____    ______ ____
ROOT
ATOM      1  C   UNL     1       0.981   9.258  19.458  0.00  0.00    +0.000 A 
ATOM      2  C   UNL     1       1.063   9.052  20.841  0.00  0.00    +0.000 A 
ATOM      3  C   UNL     1       0.294   9.834  21.709  0.00  0.00    +0.000 A 
ATOM      4  C   UNL     1      -0.520  10.853  21.207  0.00  0.00    +0.000 A 
ATOM      5  C   UNL     1      -0.550  11.104  19.832  0.00  0.00    +0.000 A 
ATOM      6  C   UNL     1       0.145  10.270  18.955  0.00  0.00    +0.000 A 
ENDROOT
BRANCH   1   8
ATOM      7  N   UNL     1       2.367   7.318  18.879  0.00  0.00    +0.000 N 
ATOM      8  C   UNL     1       1.845   8.537  18.483  0.00  0.00    +0.000 C 
ATOM      9  O   UNL     1       2.026   9.097  17.402  0.00  0.00    +0.000 OA
ATOM     10  H   UNL     1       2.075   6.912  19.754  0.00  0.00    +0.000 HD
BRANCH   7  16
ATOM     11  C   UNL     1       3.906   3.061  17.327  0.00  0.00    +0.000 C 
ATOM     12  C   UNL     1       4.033   4.550  17.313  0.00  0.00    +0.000 A 
ATOM     13  N   UNL     1       4.987   5.111  16.556  0.00  0.00    +0.000 NA
ATOM     14  C   UNL     1       5.052   6.457  16.594  0.00  0.00    +0.000 A 
ATOM     15  C   UNL     1       4.209   7.242  17.346  0.00  0.00    +0.000 A 
ATOM     16  C   UNL     1       3.264   6.572  18.090  0.00  0.00    +0.000 A 
ATOM     17  N   UNL     1       3.170   5.238  18.070  0.00  0.00    +0.000 NA
ENDBRANCH   7  16
ENDBRANCH   1   8
BRANCH   5  18
ATOM     18  S   UNL     1      -1.497  12.478  19.189  0.00  0.00    +0.000 S 
ATOM     19  O   UNL     1      -1.281  13.601  20.080  0.00  0.00    +0.000 OA
ATOM     20  O   UNL     1      -1.184  12.585  17.780  0.00  0.00    +0.000 OA
BRANCH  18  21
ATOM     21  N   UNL     1      -3.145  11.984  19.331  0.00  0.00    +0.000 NA
ATOM     22  C   UNL     1      -3.983  12.877  20.175  0.00  0.00    +0.000 C 
ATOM     23  C   UNL     1      -5.408  12.351  20.344  0.00  0.00    +0.000 C 
ATOM     24  C   UNL     1      -6.080  11.996  19.016  0.00  0.00    +0.000 C 
ATOM     25  C   UNL     1      -5.191  11.005  18.269  0.00  0.00    +0.000 C 
ATOM     26  C   UNL     1      -3.770  11.523  18.062  0.00  0.00    +0.000 C 
BRANCH  24  27
ATOM     27  C   UNL     1      -6.401  13.214  18.193  0.00  0.00    +0.000 A 
ATOM     28  N   UNL     1      -6.678  13.246  16.903  0.00  0.00    +0.000 NA
ATOM     29  C   UNL     1      -6.882  14.562  16.591  0.00  0.00    +0.000 A 
ATOM     30  C   UNL     1      -6.732  15.352  17.704  0.00  0.00    +0.000 A 
ATOM     31  N   UNL     1      -6.431  14.485  18.718  0.00  0.00    +0.000 N 
ATOM     32  H   UNL     1      -6.254  14.735  19.683  0.00  0.00    +0.000 HD
ENDBRANCH  24  27
ENDBRANCH  18  21
ENDBRANCH   5  18
TORSDOF 5
ENDMDL
MODEL 6
REMARK VINA RESULT:      -7.8      4.132      6.722
REMARK  Name = 
REMARK  6 active torsions:
REMARK  status: ('A' for Active; 'I' for Inactive)
REMARK    1  A    between atoms: C_1  and  C_2
REMARK    2  A    between atoms: C_6  and  N_7
REMARK    3  A    between atoms: C_8  and  C_10
REMARK    4  A    between atoms: C_14  and  S_15
REMARK    5  A    between atoms: S_15  and  N_18
REMARK    6  A    between atoms: C_21  and  C_22
REMARK                            x       y       z     vdW  Elec       q    Type
REMARK                         _______ _______ _______ _____ _____    ______ ____
ROOT
ATOM      1  C   UNL     1       2.116   7.194  19.239  0.00  0.00    +0.000 A 
ATOM      2  C   UNL     1       1.900   6.875  20.586  0.00  0.00    +0.000 A 
ATOM      3  C   UNL     1       2.121   5.570  21.036  0.00  0.00    +0.000 A 
ATOM      4  C   UNL     1       2.509   4.570  20.140  0.00  0.00    +0.000 A 
ATOM      5  C   UNL     1       2.658   4.872  18.784  0.00  0.00    +0.000 A 
ATOM      6  C   UNL     1       2.526   6.190  18.344  0.00  0.00    +0.000 A 
ENDROOT
BRANCH   1   8
ATOM      7  N   UNL     1       1.160   9.440  19.492  0.00  0.00    +0.000 N 
ATOM      8  C   UNL     1       1.802   8.533  18.667  0.00  0.00    +0.000 C 
ATOM      9  O   UNL     1       2.139   8.716  17.497  0.00  0.00    +0.000 OA
ATOM     10  H   UNL     1       1.015   9.214  20.463  0.00  0.00    +0.000 HD
BRANCH   7  16
ATOM     11  C   UNL     1       2.223  13.966  18.359  0.00  0.00    +0.000 C 
ATOM     12  C   UNL     1       1.196  12.888  18.494  0.00  0.00    +0.000 A 
ATOM     13  N   UNL     1      -0.081  13.169  18.195  0.00  0.00    +0.000 NA
ATOM     14  C   UNL     1      -0.957  12.156  18.345  0.00  0.00    +0.000 A 
ATOM     15  C   UNL     1      -0.604  10.897  18.772  0.00  0.00    +0.000 A 
ATOM     16  C   UNL     1       0.730  10.708  19.055  0.00  0.00    +0.000 A 
ATOM     17  N   UNL     1       1.626  11.692  18.911  0.00  0.00    +0.000 NA
ENDBRANCH   7  16
ENDBRANCH   1   8
BRANCH   5  18
ATOM     18  S   UNL     1       3.040   3.578  17.610  0.00  0.00    +0.000 S 
ATOM     19  O   UNL     1       3.629   2.484  18.355  0.00  0.00    +0.000 OA
ATOM     20  O   UNL     1       1.852   3.369  16.810  0.00  0.00    +0.000 OA
BRANCH  18  21
ATOM     21  N   UNL     1       4.256   4.254  16.588  0.00  0.00    +0.000 NA
ATOM     22  C   UNL     1       4.246   5.739  16.521  0.00  0.00    +0.000 C 
ATOM     23  C   UNL     1       5.279   6.286  15.536  0.00  0.00    +0.000 C 
ATOM     24  C   UNL     1       6.682   5.717  15.758  0.00  0.00    +0.000 C 
ATOM     25  C   UNL     1       6.602   4.193  15.714  0.00  0.00    +0.000 C 
ATOM     26  C   UNL     1       5.597   3.623  16.712  0.00  0.00    +0.000 C 
BRANCH  24  27
ATOM     27  C   UNL     1       7.311   6.223  17.027  0.00  0.00    +0.000 A 
ATOM     28  N   UNL     1       7.596   5.517  18.104  0.00  0.00    +0.000 NA
ATOM     29  C   UNL     1       8.134   6.396  19.004  0.00  0.00    +0.000 A 
ATOM     30  C   UNL     1       8.185   7.661  18.472  0.00  0.00    +0.000 A 
ATOM     31  N   UNL     1       7.664   7.540  17.214  0.00  0.00    +0.000 N 
ATOM     32  H   UNL     1       7.551   8.288  16.541  0.00  0.00    +0.000 HD
ENDBRANCH  24  27
ENDBRANCH  18  21
ENDBRANCH   5  18
TORSDOF 5
ENDMDL
MODEL 7
REMARK VINA RESULT:      -7.8      6.745      9.720
REMARK  Name = 
REMARK  6 active torsions:
REMARK  status: ('A' for Active; 'I' for Inactive)
REMARK    1  A    between atoms: C_1  and  C_2
REMARK    2  A    between atoms: C_6  and  N_7
REMARK    3  A    between atoms: C_8  and  C_10
REMARK    4  A    between atoms: C_14  and  S_15
REMARK    5  A    between atoms: S_15  and  N_18
REMARK    6  A    between atoms: C_21  and  C_22
REMARK                            x       y       z     vdW  Elec       q    Type
REMARK                         _______ _______ _______ _____ _____    ______ ____
ROOT
ATOM      1  C   UNL     1       1.445   8.411  20.398  0.00  0.00    +0.000 A 
ATOM      2  C   UNL     1       1.421   8.433  21.798  0.00  0.00    +0.000 A 
ATOM      3  C   UNL     1       0.721   9.443  22.467  0.00  0.00    +0.000 A 
ATOM      4  C   UNL     1       0.087  10.458  21.746  0.00  0.00    +0.000 A 
ATOM      5  C   UNL     1       0.169  10.474  20.351  0.00  0.00    +0.000 A 
ATOM      6  C   UNL     1       0.788   9.422  19.675  0.00  0.00    +0.000 A 
ENDROOT
BRANCH   1   8
ATOM      7  N   UNL     1       2.541   6.222  20.232  0.00  0.00    +0.000 N 
ATOM      8  C   UNL     1       2.253   7.430  19.621  0.00  0.00    +0.000 C 
ATOM      9  O   UNL     1       2.603   7.786  18.496  0.00  0.00    +0.000 OA
ATOM     10  H   UNL     1       2.123   6.001  21.121  0.00  0.00    +0.000 HD
BRANCH   7  16
ATOM     11  C   UNL     1       3.016   1.828  18.394  0.00  0.00    +0.000 C 
ATOM     12  C   UNL     1       3.637   3.141  18.748  0.00  0.00    +0.000 A 
ATOM     13  N   UNL     1       4.940   3.330  18.495  0.00  0.00    +0.000 NA
ATOM     14  C   UNL     1       5.439   4.533  18.845  0.00  0.00    +0.000 A 
ATOM     15  C   UNL     1       4.691   5.531  19.424  0.00  0.00    +0.000 A 
ATOM     16  C   UNL     1       3.364   5.240  19.645  0.00  0.00    +0.000 A 
ATOM     17  N   UNL     1       2.837   4.059  19.305  0.00  0.00    +0.000 NA
ENDBRANCH   7  16
ENDBRANCH   1   8
BRANCH   5  18
ATOM     18  S   UNL     1      -0.539  11.831  19.424  0.00  0.00    +0.000 S 
ATOM     19  O   UNL     1      -1.416  12.554  20.323  0.00  0.00    +0.000 OA
ATOM     20  O   UNL     1       0.556  12.506  18.761  0.00  0.00    +0.000 OA
BRANCH  18  21
ATOM     21  N   UNL     1      -1.510  11.077  18.211  0.00  0.00    +0.000 NA
ATOM     22  C   UNL     1      -2.530  10.133  18.741  0.00  0.00    +0.000 C 
ATOM     23  C   UNL     1      -3.302   9.425  17.628  0.00  0.00    +0.000 C 
ATOM     24  C   UNL     1      -3.877  10.387  16.587  0.00  0.00    +0.000 C 
ATOM     25  C   UNL     1      -2.739  11.243  16.035  0.00  0.00    +0.000 C 
ATOM     26  C   UNL     1      -1.972  11.985  17.128  0.00  0.00    +0.000 C 
BRANCH  24  27
ATOM     27  C   UNL     1      -5.007  11.216  17.134  0.00  0.00    +0.000 A 
ATOM     28  N   UNL     1      -5.355  12.429  16.750  0.00  0.00    +0.000 NA
ATOM     29  C   UNL     1      -6.417  12.785  17.536  0.00  0.00    +0.000 A 
ATOM     30  C   UNL     1      -6.729  11.777  18.413  0.00  0.00    +0.000 A 
ATOM     31  N   UNL     1      -5.830  10.782  18.147  0.00  0.00    +0.000 N 
ATOM     32  H   UNL     1      -5.775   9.887  18.617  0.00  0.00    +0.000 HD
ENDBRANCH  24  27
ENDBRANCH  18  21
ENDBRANCH   5  18
TORSDOF 5
ENDMDL
MODEL 8
REMARK VINA RESULT:      -7.8      5.243      8.766
REMARK  Name = 
REMARK  6 active torsions:
REMARK  status: ('A' for Active; 'I' for Inactive)
REMARK    1  A    between atoms: C_1  and  C_2
REMARK    2  A    between atoms: C_6  and  N_7
REMARK    3  A    between atoms: C_8  and  C_10
REMARK    4  A    between atoms: C_14  and  S_15
REMARK    5  A    between atoms: S_15  and  N_18
REMARK    6  A    between atoms: C_21  and  C_22
REMARK                            x       y       z     vdW  Elec       q    Type
REMARK                         _______ _______ _______ _____ _____    ______ ____
ROOT
ATOM      1  C   UNL     1       0.586   9.396  19.681  0.00  0.00    +0.000 A 
ATOM      2  C   UNL     1       0.710   9.661  21.051  0.00  0.00    +0.000 A 
ATOM      3  C   UNL     1       1.489   8.821  21.855  0.00  0.00    +0.000 A 
ATOM      4  C   UNL     1       2.103   7.692  21.308  0.00  0.00    +0.000 A 
ATOM      5  C   UNL     1       1.924   7.389  19.956  0.00  0.00    +0.000 A 
ATOM      6  C   UNL     1       1.223   8.271  19.130  0.00  0.00    +0.000 A 
ENDROOT
BRANCH   1   8
ATOM      7  N   UNL     1      -1.540   9.634  18.480  0.00  0.00    +0.000 N 
ATOM      8  C   UNL     1      -0.306  10.183  18.786  0.00  0.00    +0.000 C 
ATOM      9  O   UNL     1       0.138  11.259  18.387  0.00  0.00    +0.000 OA
ATOM     10  H   UNL     1      -1.836   8.788  18.939  0.00  0.00    +0.000 HD
BRANCH   7  16
ATOM     11  C   UNL     1      -3.168  10.108  14.004  0.00  0.00    +0.000 C 
ATOM     12  C   UNL     1      -3.264  10.485  15.448  0.00  0.00    +0.000 A 
ATOM     13  N   UNL     1      -4.201  11.368  15.825  0.00  0.00    +0.000 NA
ATOM     14  C   UNL     1      -4.229  11.670  17.138  0.00  0.00    +0.000 A 
ATOM     15  C   UNL     1      -3.372  11.126  18.066  0.00  0.00    +0.000 A 
ATOM     16  C   UNL     1      -2.446  10.231  17.580  0.00  0.00    +0.000 A 
ATOM     17  N   UNL     1      -2.394   9.906  16.284  0.00  0.00    +0.000 NA
ENDBRANCH   7  16
ENDBRANCH   1   8
BRANCH   5  18
ATOM     18  S   UNL     1       2.608   5.885  19.271  0.00  0.00    +0.000 S 
ATOM     19  O   UNL     1       2.618   4.897  20.331  0.00  0.00    +0.000 OA
ATOM     20  O   UNL     1       1.908   5.628  18.031  0.00  0.00    +0.000 OA
BRANCH  18  21
ATOM     21  N   UNL     1       4.244   6.281  18.884  0.00  0.00    +0.000 NA
ATOM     22  C   UNL     1       5.211   5.171  19.098  0.00  0.00    +0.000 C 
ATOM     23  C   UNL     1       6.654   5.595  18.829  0.00  0.00    +0.000 C 
ATOM     24  C   UNL     1       6.838   6.282  17.475  0.00  0.00    +0.000 C 
ATOM     25  C   UNL     1       5.872   7.463  17.393  0.00  0.00    +0.000 C 
ATOM     26  C   UNL     1       4.419   7.057  17.628  0.00  0.00    +0.000 C 
BRANCH  24  27
ATOM     27  C   UNL     1       6.680   5.329  16.322  0.00  0.00    +0.000 A 
ATOM     28  N   UNL     1       6.036   4.177  16.332  0.00  0.00    +0.000 NA
ATOM     29  C   UNL     1       6.175   3.655  15.075  0.00  0.00    +0.000 A 
ATOM     30  C   UNL     1       6.911   4.496  14.280  0.00  0.00    +0.000 A 
ATOM     31  N   UNL     1       7.223   5.560  15.080  0.00  0.00    +0.000 N 
ATOM     32  H   UNL     1       7.765   6.371  14.809  0.00  0.00    +0.000 HD
ENDBRANCH  24  27
ENDBRANCH  18  21
ENDBRANCH   5  18
TORSDOF 5
ENDMDL
MODEL 9
REMARK VINA RESULT:      -7.8      6.620     10.529
REMARK  Name = 
REMARK  6 active torsions:
REMARK  status: ('A' for Active; 'I' for Inactive)
REMARK    1  A    between atoms: C_1  and  C_2
REMARK    2  A    between atoms: C_6  and  N_7
REMARK    3  A    between atoms: C_8  and  C_10
REMARK    4  A    between atoms: C_14  and  S_15
REMARK    5  A    between atoms: S_15  and  N_18
REMARK    6  A    between atoms: C_21  and  C_22
REMARK                            x       y       z     vdW  Elec       q    Type
REMARK                         _______ _______ _______ _____ _____    ______ ____
ROOT
ATOM      1  C   UNL     1       1.297   8.628  20.384  0.00  0.00    +0.000 A 
ATOM      2  C   UNL     1       1.167   8.504  21.773  0.00  0.00    +0.000 A 
ATOM      3  C   UNL     1       0.556   9.524  22.509  0.00  0.00    +0.000 A 
ATOM      4  C   UNL     1       0.118  10.688  21.873  0.00  0.00    +0.000 A 
ATOM      5  C   UNL     1       0.308  10.841  20.497  0.00  0.00    +0.000 A 
ATOM      6  C   UNL     1       0.836   9.791  19.744  0.00  0.00    +0.000 A 
ENDROOT
BRANCH   1   8
ATOM      7  N   UNL     1       2.338   6.419  20.139  0.00  0.00    +0.000 N 
ATOM      8  C   UNL     1       2.027   7.633  19.550  0.00  0.00    +0.000 C 
ATOM      9  O   UNL     1       2.299   7.983  18.402  0.00  0.00    +0.000 OA
ATOM     10  H   UNL     1       1.983   6.206  21.057  0.00  0.00    +0.000 HD
BRANCH   7  16
ATOM     11  C   UNL     1       2.483   2.300  17.708  0.00  0.00    +0.000 C 
ATOM     12  C   UNL     1       3.215   3.451  18.319  0.00  0.00    +0.000 A 
ATOM     13  N   UNL     1       4.553   3.491  18.228  0.00  0.00    +0.000 NA
ATOM     14  C   UNL     1       5.150   4.552  18.805  0.00  0.00    +0.000 A 
ATOM     15  C   UNL     1       4.468   5.555  19.453  0.00  0.00    +0.000 A 
ATOM     16  C   UNL     1       3.098   5.423  19.494  0.00  0.00    +0.000 A 
ATOM     17  N   UNL     1       2.474   4.385  18.926  0.00  0.00    +0.000 NA
ENDBRANCH   7  16
ENDBRANCH   1   8
BRANCH   5  18
ATOM     18  S   UNL     1      -0.143  12.373  19.692  0.00  0.00    +0.000 S 
ATOM     19  O   UNL     1      -0.502  12.050  18.326  0.00  0.00    +0.000 OA
ATOM     20  O   UNL     1      -1.082  13.048  20.561  0.00  0.00    +0.000 OA
BRANCH  18  21
ATOM     21  N   UNL     1       1.314  13.302  19.662  0.00  0.00    +0.000 NA
ATOM     22  C   UNL     1       1.866  13.534  18.301  0.00  0.00    +0.000 C 
ATOM     23  C   UNL     1       3.199  14.280  18.332  0.00  0.00    +0.000 C 
ATOM     24  C   UNL     1       3.155  15.557  19.175  0.00  0.00    +0.000 C 
ATOM     25  C   UNL     1       2.669  15.198  20.577  0.00  0.00    +0.000 C 
ATOM     26  C   UNL     1       1.323  14.478  20.572  0.00  0.00    +0.000 C 
BRANCH  24  27
ATOM     27  C   UNL     1       2.324  16.636  18.536  0.00  0.00    +0.000 A 
ATOM     28  N   UNL     1       2.473  17.135  17.324  0.00  0.00    +0.000 NA
ATOM     29  C   UNL     1       1.510  18.097  17.189  0.00  0.00    +0.000 A 
ATOM     30  C   UNL     1       0.756  18.190  18.331  0.00  0.00    +0.000 A 
ATOM     31  N   UNL     1       1.277  17.254  19.180  0.00  0.00    +0.000 N 
ATOM     32  H   UNL     1       0.956  17.056  20.119  0.00  0.00    +0.000 HD
ENDBRANCH  24  27
ENDBRANCH  18  21
ENDBRANCH   5  18
TORSDOF 5
ENDMDL
