MODEL 1
REMARK VINA RESULT:      -8.4      0.000      0.000
REMARK  Name = 
REMARK  4 active torsions:
REMARK  status: ('A' for Active; 'I' for Inactive)
REMARK    1  A    between atoms: C_2  and  C_19
REMARK    2  A    between atoms: N_3  and  C_4
REMARK    3  A    between atoms: C_7  and  S_8
REMARK    4  A    between atoms: S_8  and  N_11
REMARK                            x       y       z     vdW  Elec       q    Type
REMARK                         _______ _______ _______ _____ _____    ______ ____
ROOT
ATOM      1  C   UNL     1       7.628   8.263  17.767  0.00  0.00    +0.000 A 
ATOM      2  C   UNL     1       8.148   7.119  18.380  0.00  0.00    +0.000 A 
ATOM      3  C   UNL     1       7.404   5.936  18.435  0.00  0.00    +0.000 A 
ATOM      4  C   UNL     1       6.125   5.897  17.880  0.00  0.00    +0.000 A 
ATOM      5  C   UNL     1       5.589   7.030  17.264  0.00  0.00    +0.000 A 
ATOM      6  C   UNL     1       6.340   8.210  17.216  0.00  0.00    +0.000 A 
ENDROOT
BRANCH   1   9
ATOM      7  O   UNL     1       9.044   9.876  19.832  0.00  0.00    +0.000 OA
ATOM      8  C   UNL     1       8.985  10.171  18.644  0.00  0.00    +0.000 C 
ATOM      9  N   UNL     1       8.335   9.473  17.645  0.00  0.00    +0.000 N 
ATOM     10  H   UNL     1       8.409   9.894  16.721  0.00  0.00    +0.000 HD
BRANCH   8  11
ATOM     11  C   UNL     1       9.675  11.410  18.165  0.00  0.00    +0.000 A 
ATOM     12  C   UNL     1      11.025  11.351  17.854  0.00  0.00    +0.000 A 
ATOM     13  C   UNL     1      11.676  12.538  17.555  0.00  0.00    +0.000 A 
ATOM     14  C   UNL     1      10.980  13.745  17.657  0.00  0.00    +0.000 A 
ATOM     15  C   UNL     1      11.654  14.972  17.572  0.00  0.00    +0.000 A 
ATOM     16  C   UNL     1      10.964  16.164  17.763  0.00  0.00    +0.000 A 
ATOM     17  C   UNL     1       9.587  16.138  17.957  0.00  0.00    +0.000 A 
ATOM     18  C   UNL     1       8.911  14.913  18.009  0.00  0.00    +0.000 A 
ATOM     19  C   UNL     1       9.588  13.704  17.916  0.00  0.00    +0.000 A 
ATOM     20  N   UNL     1       8.928  12.551  18.130  0.00  0.00    +0.000 NA
ENDBRANCH   8  11
ENDBRANCH   1   9
BRANCH   4  21
ATOM     21  S   UNL     1       5.250   4.350  17.819  0.00  0.00    +0.000 S 
ATOM     22  O   UNL     1       5.714   3.641  16.642  0.00  0.00    +0.000 OA
ATOM     23  O   UNL     1       5.334   3.750  19.133  0.00  0.00    +0.000 OA
BRANCH  21  24
ATOM     24  N   UNL     1       3.671   4.843  17.466  0.00  0.00    +0.000 N 
ATOM     25  C   UNL     1       2.715   4.134  18.228  0.00  0.00    +0.000 A 
ATOM     26  N   UNL     1       2.050   3.160  17.661  0.00  0.00    +0.000 NA
ATOM     27  C   UNL     1       1.199   2.601  18.596  0.00  0.00    +0.000 A 
ATOM     28  C   UNL     1       1.150   3.242  19.817  0.00  0.00    +0.000 A 
ATOM     29  S   UNL     1       2.253   4.557  19.818  0.00  0.00    +0.000 S 
ATOM     30  H   UNL     1       3.530   4.619  16.484  0.00  0.00    +0.000 HD
ENDBRANCH  21  24
ENDBRANCH   4  21
TORSDOF 4
ENDMDL
MODEL 2
REMARK VINA RESULT:      -8.2      7.414     10.373
REMARK  Name = 
REMARK  4 active torsions:
REMARK  status: ('A' for Active; 'I' for Inactive)
REMARK    1  A    between atoms: C_2  and  C_19
REMARK    2  A    between atoms: N_3  and  C_4
REMARK    3  A    between atoms: C_7  and  S_8
REMARK    4  A    between atoms: S_8  and  N_11
REMARK                            x       y       z     vdW  Elec       q    Type
REMARK                         _______ _______ _______ _____ _____    ______ ____
ROOT
ATOM      1  C   UNL     1       1.187   8.984  20.291  0.00  0.00    +0.000 A 
ATOM      2  C   UNL     1       1.156   8.927  21.688  0.00  0.00    +0.000 A 
ATOM      3  C   UNL     1       0.420   9.862  22.425  0.00  0.00    +0.000 A 
ATOM      4  C   UNL     1      -0.281  10.869  21.762  0.00  0.00    +0.000 A 
ATOM      5  C   UNL     1      -0.260  10.941  20.367  0.00  0.00    +0.000 A 
ATOM      6  C   UNL     1       0.479  10.002  19.639  0.00  0.00    +0.000 A 
ENDROOT
BRANCH   1   9
ATOM      7  O   UNL     1       1.678   6.076  20.709  0.00  0.00    +0.000 OA
ATOM      8  C   UNL     1       2.059   6.708  19.731  0.00  0.00    +0.000 C 
ATOM      9  N   UNL     1       1.875   8.056  19.488  0.00  0.00    +0.000 N 
ATOM     10  H   UNL     1       2.274   8.384  18.612  0.00  0.00    +0.000 HD
BRANCH   8  11
ATOM     11  C   UNL     1       2.810   5.997  18.648  0.00  0.00    +0.000 A 
ATOM     12  C   UNL     1       2.407   4.724  18.275  0.00  0.00    +0.000 A 
ATOM     13  C   UNL     1       3.201   4.026  17.379  0.00  0.00    +0.000 A 
ATOM     14  C   UNL     1       4.407   4.589  16.953  0.00  0.00    +0.000 A 
ATOM     15  C   UNL     1       5.334   3.831  16.221  0.00  0.00    +0.000 A 
ATOM     16  C   UNL     1       6.567   4.374  15.879  0.00  0.00    +0.000 A 
ATOM     17  C   UNL     1       6.846   5.700  16.194  0.00  0.00    +0.000 A 
ATOM     18  C   UNL     1       5.906   6.464  16.896  0.00  0.00    +0.000 A 
ATOM     19  C   UNL     1       4.706   5.920  17.333  0.00  0.00    +0.000 A 
ATOM     20  N   UNL     1       3.902   6.636  18.140  0.00  0.00    +0.000 NA
ENDBRANCH   8  11
ENDBRANCH   1   9
BRANCH   4  21
ATOM     21  S   UNL     1      -1.333  11.956  22.696  0.00  0.00    +0.000 S 
ATOM     22  O   UNL     1      -2.182  11.124  23.525  0.00  0.00    +0.000 OA
ATOM     23  O   UNL     1      -0.493  12.979  23.280  0.00  0.00    +0.000 OA
BRANCH  21  24
ATOM     24  N   UNL     1      -2.342  12.596  21.499  0.00  0.00    +0.000 N 
ATOM     25  C   UNL     1      -3.535  13.125  22.042  0.00  0.00    +0.000 A 
ATOM     26  N   UNL     1      -4.636  12.424  21.953  0.00  0.00    +0.000 NA
ATOM     27  C   UNL     1      -5.657  13.122  22.571  0.00  0.00    +0.000 A 
ATOM     28  C   UNL     1      -5.334  14.391  23.007  0.00  0.00    +0.000 A 
ATOM     29  S   UNL     1      -3.676  14.700  22.688  0.00  0.00    +0.000 S 
ATOM     30  H   UNL     1      -2.583  11.811  20.899  0.00  0.00    +0.000 HD
ENDBRANCH  21  24
ENDBRANCH   4  21
TORSDOF 4
ENDMDL
MODEL 3
REMARK VINA RESULT:      -8.2      7.882     11.301
REMARK  Name = 
REMARK  4 active torsions:
REMARK  status: ('A' for Active; 'I' for Inactive)
REMARK    1  A    between atoms: C_2  and  C_19
REMARK    2  A    between atoms: N_3  and  C_4
REMARK    3  A    between atoms: C_7  and  S_8
REMARK    4  A    between atoms: S_8  and  N_11
REMARK                            x       y       z     vdW  Elec       q    Type
REMARK                         _______ _______ _______ _____ _____    ______ ____
ROOT
ATOM      1  C   UNL     1       0.493   9.088  21.116  0.00  0.00    +0.000 A 
ATOM      2  C   UNL     1       0.277   9.145  22.496  0.00  0.00    +0.000 A 
ATOM      3  C   UNL     1      -0.487  10.175  23.058  0.00  0.00    +0.000 A 
ATOM      4  C   UNL     1      -1.031  11.161  22.235  0.00  0.00    +0.000 A 
ATOM      5  C   UNL     1      -0.824  11.120  20.854  0.00  0.00    +0.000 A 
ATOM      6  C   UNL     1      -0.057  10.087  20.302  0.00  0.00    +0.000 A 
ENDROOT
BRANCH   1   9
ATOM      7  O   UNL     1       1.984   9.104  18.537  0.00  0.00    +0.000 OA
ATOM      8  C   UNL     1       1.904   8.135  19.284  0.00  0.00    +0.000 C 
ATOM      9  N   UNL     1       1.219   8.063  20.482  0.00  0.00    +0.000 N 
ATOM     10  H   UNL     1       1.280   7.160  20.947  0.00  0.00    +0.000 HD
BRANCH   8  11
ATOM     11  C   UNL     1       2.606   6.866  18.912  0.00  0.00    +0.000 A 
ATOM     12  C   UNL     1       3.524   6.885  17.873  0.00  0.00    +0.000 A 
ATOM     13  C   UNL     1       4.050   5.675  17.448  0.00  0.00    +0.000 A 
ATOM     14  C   UNL     1       3.582   4.488  18.017  0.00  0.00    +0.000 A 
ATOM     15  C   UNL     1       3.930   3.244  17.470  0.00  0.00    +0.000 A 
ATOM     16  C   UNL     1       3.387   2.074  17.992  0.00  0.00    +0.000 A 
ATOM     17  C   UNL     1       2.562   2.138  19.110  0.00  0.00    +0.000 A 
ATOM     18  C   UNL     1       2.243   3.378  19.673  0.00  0.00    +0.000 A 
ATOM     19  C   UNL     1       2.694   4.568  19.117  0.00  0.00    +0.000 A 
ATOM     20  N   UNL     1       2.236   5.742  19.590  0.00  0.00    +0.000 NA
ENDBRANCH   8  11
ENDBRANCH   1   9
BRANCH   4  21
ATOM     21  S   UNL     1      -2.124  12.375  22.937  0.00  0.00    +0.000 S 
ATOM     22  O   UNL     1      -3.075  11.665  23.770  0.00  0.00    +0.000 OA
ATOM     23  O   UNL     1      -1.304  13.436  23.480  0.00  0.00    +0.000 OA
BRANCH  21  24
ATOM     24  N   UNL     1      -2.995  12.899  21.586  0.00  0.00    +0.000 N 
ATOM     25  C   UNL     1      -4.337  13.200  21.909  0.00  0.00    +0.000 A 
ATOM     26  N   UNL     1      -5.271  12.335  21.606  0.00  0.00    +0.000 NA
ATOM     27  C   UNL     1      -6.489  12.828  22.036  0.00  0.00    +0.000 A 
ATOM     28  C   UNL     1      -6.467  14.110  22.547  0.00  0.00    +0.000 A 
ATOM     29  S   UNL     1      -4.855  14.700  22.545  0.00  0.00    +0.000 S 
ATOM     30  H   UNL     1      -2.989  12.115  20.938  0.00  0.00    +0.000 HD
ENDBRANCH  21  24
ENDBRANCH   4  21
TORSDOF 4
ENDMDL
MODEL 4
REMARK VINA RESULT:      -8.2      1.314      1.876
REMARK  Name = 
REMARK  4 active torsions:
REMARK  status: ('A' for Active; 'I' for Inactive)
REMARK    1  A    between atoms: C_2  and  C_19
REMARK    2  A    between atoms: N_3  and  C_4
REMARK    3  A    between atoms: C_7  and  S_8
REMARK    4  A    between atoms: S_8  and  N_11
REMARK                            x       y       z     vdW  Elec       q    Type
REMARK                         _______ _______ _______ _____ _____    ______ ____
ROOT
ATOM      1  C   UNL     1       7.827   7.602  18.225  0.00  0.00    +0.000 A 
ATOM      2  C   UNL     1       6.703   7.668  17.395  0.00  0.00    +0.000 A 
ATOM      3  C   UNL     1       5.894   6.543  17.197  0.00  0.00    +0.000 A 
ATOM      4  C   UNL     1       6.215   5.341  17.827  0.00  0.00    +0.000 A 
ATOM      5  C   UNL     1       7.333   5.257  18.659  0.00  0.00    +0.000 A 
ATOM      6  C   UNL     1       8.138   6.387  18.849  0.00  0.00    +0.000 A 
ENDROOT
BRANCH   1   9
ATOM      7  O   UNL     1       7.576  10.453  17.398  0.00  0.00    +0.000 OA
ATOM      8  C   UNL     1       8.484  10.011  18.092  0.00  0.00    +0.000 C 
ATOM      9  N   UNL     1       8.662   8.702  18.496  0.00  0.00    +0.000 N 
ATOM     10  H   UNL     1       9.487   8.547  19.070  0.00  0.00    +0.000 HD
BRANCH   8  11
ATOM     11  C   UNL     1       9.545  10.945  18.587  0.00  0.00    +0.000 A 
ATOM     12  C   UNL     1       9.826  10.985  19.944  0.00  0.00    +0.000 A 
ATOM     13  C   UNL     1      10.704  11.958  20.398  0.00  0.00    +0.000 A 
ATOM     14  C   UNL     1      11.203  12.902  19.497  0.00  0.00    +0.000 A 
ATOM     15  C   UNL     1      11.917  14.020  19.953  0.00  0.00    +0.000 A 
ATOM     16  C   UNL     1      12.333  14.998  19.055  0.00  0.00    +0.000 A 
ATOM     17  C   UNL     1      12.109  14.821  17.694  0.00  0.00    +0.000 A 
ATOM     18  C   UNL     1      11.425  13.688  17.239  0.00  0.00    +0.000 A 
ATOM     19  C   UNL     1      10.915  12.743  18.120  0.00  0.00    +0.000 A 
ATOM     20  N   UNL     1      10.127  11.756  17.657  0.00  0.00    +0.000 NA
ENDBRANCH   8  11
ENDBRANCH   1   9
BRANCH   4  21
ATOM     21  S   UNL     1       5.098   3.964  17.693  0.00  0.00    +0.000 S 
ATOM     22  O   UNL     1       5.414   3.274  16.458  0.00  0.00    +0.000 OA
ATOM     23  O   UNL     1       5.111   3.268  18.961  0.00  0.00    +0.000 OA
BRANCH  21  24
ATOM     24  N   UNL     1       3.613   4.729  17.426  0.00  0.00    +0.000 N 
ATOM     25  C   UNL     1       2.750   4.607  18.538  0.00  0.00    +0.000 A 
ATOM     26  N   UNL     1       1.785   3.725  18.496  0.00  0.00    +0.000 NA
ATOM     27  C   UNL     1       1.093   3.767  19.693  0.00  0.00    +0.000 A 
ATOM     28  C   UNL     1       1.475   4.764  20.567  0.00  0.00    +0.000 A 
ATOM     29  S   UNL     1       2.786   5.645  19.895  0.00  0.00    +0.000 S 
ATOM     30  H   UNL     1       3.194   4.240  16.638  0.00  0.00    +0.000 HD
ENDBRANCH  21  24
ENDBRANCH   4  21
TORSDOF 4
ENDMDL
MODEL 5
REMARK VINA RESULT:      -8.2      0.435      1.008
REMARK  Name = 
REMARK  4 active torsions:
REMARK  status: ('A' for Active; 'I' for Inactive)
REMARK    1  A    between atoms: C_2  and  C_19
REMARK    2  A    between atoms: N_3  and  C_4
REMARK    3  A    between atoms: C_7  and  S_8
REMARK    4  A    between atoms: S_8  and  N_11
REMARK                            x       y       z     vdW  Elec       q    Type
REMARK                         _______ _______ _______ _____ _____    ______ ____
ROOT
ATOM      1  C   UNL     1       7.655   8.303  17.682  0.00  0.00    +0.000 A 
ATOM      2  C   UNL     1       6.416   8.129  17.058  0.00  0.00    +0.000 A 
ATOM      3  C   UNL     1       5.706   6.932  17.200  0.00  0.00    +0.000 A 
ATOM      4  C   UNL     1       6.243   5.895  17.964  0.00  0.00    +0.000 A 
ATOM      5  C   UNL     1       7.480   6.052  18.594  0.00  0.00    +0.000 A 
ATOM      6  C   UNL     1       8.183   7.252  18.444  0.00  0.00    +0.000 A 
ENDROOT
BRANCH   1   9
ATOM      7  O   UNL     1       8.972   9.874  19.844  0.00  0.00    +0.000 OA
ATOM      8  C   UNL     1       9.005  10.171  18.655  0.00  0.00    +0.000 C 
ATOM      9  N   UNL     1       8.404   9.492  17.611  0.00  0.00    +0.000 N 
ATOM     10  H   UNL     1       8.555   9.910  16.696  0.00  0.00    +0.000 HD
BRANCH   8  11
ATOM     11  C   UNL     1       9.762  11.389  18.227  0.00  0.00    +0.000 A 
ATOM     12  C   UNL     1      11.132  11.296  18.033  0.00  0.00    +0.000 A 
ATOM     13  C   UNL     1      11.834  12.464  17.782  0.00  0.00    +0.000 A 
ATOM     14  C   UNL     1      11.160  13.688  17.814  0.00  0.00    +0.000 A 
ATOM     15  C   UNL     1      11.868  14.898  17.777  0.00  0.00    +0.000 A 
ATOM     16  C   UNL     1      11.192  16.108  17.898  0.00  0.00    +0.000 A 
ATOM     17  C   UNL     1       9.804  16.115  17.974  0.00  0.00    +0.000 A 
ATOM     18  C   UNL     1       9.097  14.906  17.977  0.00  0.00    +0.000 A 
ATOM     19  C   UNL     1       9.751  13.682  17.952  0.00  0.00    +0.000 A 
ATOM     20  N   UNL     1       9.048  12.546  18.119  0.00  0.00    +0.000 NA
ENDBRANCH   8  11
ENDBRANCH   1   9
BRANCH   4  21
ATOM     21  S   UNL     1       5.267   4.440  18.264  0.00  0.00    +0.000 S 
ATOM     22  O   UNL     1       5.232   3.684  17.027  0.00  0.00    +0.000 OA
ATOM     23  O   UNL     1       5.745   3.840  19.491  0.00  0.00    +0.000 OA
BRANCH  21  24
ATOM     24  N   UNL     1       3.714   5.081  18.456  0.00  0.00    +0.000 N 
ATOM     25  C   UNL     1       2.789   4.103  18.882  0.00  0.00    +0.000 A 
ATOM     26  N   UNL     1       1.969   3.581  18.005  0.00  0.00    +0.000 NA
ATOM     27  C   UNL     1       1.182   2.638  18.639  0.00  0.00    +0.000 A 
ATOM     28  C   UNL     1       1.340   2.552  20.007  0.00  0.00    +0.000 A 
ATOM     29  S   UNL     1       2.559   3.649  20.513  0.00  0.00    +0.000 S 
ATOM     30  H   UNL     1       3.438   5.404  17.531  0.00  0.00    +0.000 HD
ENDBRANCH  21  24
ENDBRANCH   4  21
TORSDOF 4
ENDMDL
MODEL 6
REMARK VINA RESULT:      -8.2      1.640      1.967
REMARK  Name = 
REMARK  4 active torsions:
REMARK  status: ('A' for Active; 'I' for Inactive)
REMARK    1  A    between atoms: C_2  and  C_19
REMARK    2  A    between atoms: N_3  and  C_4
REMARK    3  A    between atoms: C_7  and  S_8
REMARK    4  A    between atoms: S_8  and  N_11
REMARK                            x       y       z     vdW  Elec       q    Type
REMARK                         _______ _______ _______ _____ _____    ______ ____
ROOT
ATOM      1  C   UNL     1       7.914   7.641  18.281  0.00  0.00    +0.000 A 
ATOM      2  C   UNL     1       8.149   6.361  18.794  0.00  0.00    +0.000 A 
ATOM      3  C   UNL     1       7.292   5.299  18.485  0.00  0.00    +0.000 A 
ATOM      4  C   UNL     1       6.186   5.518  17.665  0.00  0.00    +0.000 A 
ATOM      5  C   UNL     1       5.935   6.790  17.144  0.00  0.00    +0.000 A 
ATOM      6  C   UNL     1       6.797   7.847  17.461  0.00  0.00    +0.000 A 
ENDROOT
BRANCH   1   9
ATOM      7  O   UNL     1       7.659  10.475  17.400  0.00  0.00    +0.000 OA
ATOM      8  C   UNL     1       8.574  10.045  18.094  0.00  0.00    +0.000 C 
ATOM      9  N   UNL     1       8.753   8.744  18.521  0.00  0.00    +0.000 N 
ATOM     10  H   UNL     1       9.584   8.599  19.090  0.00  0.00    +0.000 HD
BRANCH   8  11
ATOM     11  C   UNL     1       9.641  10.987  18.559  0.00  0.00    +0.000 A 
ATOM     12  C   UNL     1      10.026  10.963  19.891  0.00  0.00    +0.000 A 
ATOM     13  C   UNL     1      10.906  11.939  20.331  0.00  0.00    +0.000 A 
ATOM     14  C   UNL     1      11.305  12.948  19.451  0.00  0.00    +0.000 A 
ATOM     15  C   UNL     1      12.018  14.063  19.914  0.00  0.00    +0.000 A 
ATOM     16  C   UNL     1      12.333  15.103  19.045  0.00  0.00    +0.000 A 
ATOM     17  C   UNL     1      12.008  14.993  17.696  0.00  0.00    +0.000 A 
ATOM     18  C   UNL     1      11.325  13.864  17.231  0.00  0.00    +0.000 A 
ATOM     19  C   UNL     1      10.915  12.855  18.092  0.00  0.00    +0.000 A 
ATOM     20  N   UNL     1      10.124  11.867  17.635  0.00  0.00    +0.000 NA
ENDBRANCH   8  11
ENDBRANCH   1   9
BRANCH   4  21
ATOM     21  S   UNL     1       5.193   4.134  17.154  0.00  0.00    +0.000 S 
ATOM     22  O   UNL     1       3.843   4.625  16.957  0.00  0.00    +0.000 OA
ATOM     23  O   UNL     1       5.904   3.457  16.092  0.00  0.00    +0.000 OA
BRANCH  21  24
ATOM     24  N   UNL     1       5.140   3.192  18.558  0.00  0.00    +0.000 N 
ATOM     25  C   UNL     1       3.828   3.081  19.069  0.00  0.00    +0.000 A 
ATOM     26  N   UNL     1       3.483   3.814  20.096  0.00  0.00    +0.000 NA
ATOM     27  C   UNL     1       2.159   3.557  20.401  0.00  0.00    +0.000 A 
ATOM     28  C   UNL     1       1.566   2.546  19.674  0.00  0.00    +0.000 A 
ATOM     29  S   UNL     1       2.684   1.933  18.526  0.00  0.00    +0.000 S 
ATOM     30  H   UNL     1       5.709   3.689  19.240  0.00  0.00    +0.000 HD
ENDBRANCH  21  24
ENDBRANCH   4  21
TORSDOF 4
ENDMDL
MODEL 7
REMARK VINA RESULT:      -8.2      7.619      9.954
REMARK  Name = 
REMARK  4 active torsions:
REMARK  status: ('A' for Active; 'I' for Inactive)
REMARK    1  A    between atoms: C_2  and  C_19
REMARK    2  A    between atoms: N_3  and  C_4
REMARK    3  A    between atoms: C_7  and  S_8
REMARK    4  A    between atoms: S_8  and  N_11
REMARK                            x       y       z     vdW  Elec       q    Type
REMARK                         _______ _______ _______ _____ _____    ______ ____
ROOT
ATOM      1  C   UNL     1       0.515   9.290  20.176  0.00  0.00    +0.000 A 
ATOM      2  C   UNL     1       1.017   9.467  18.883  0.00  0.00    +0.000 A 
ATOM      3  C   UNL     1       1.967   8.584  18.358  0.00  0.00    +0.000 A 
ATOM      4  C   UNL     1       2.427   7.521  19.135  0.00  0.00    +0.000 A 
ATOM      5  C   UNL     1       1.938   7.330  20.429  0.00  0.00    +0.000 A 
ATOM      6  C   UNL     1       0.989   8.220  20.946  0.00  0.00    +0.000 A 
ENDROOT
BRANCH   1   9
ATOM      7  O   UNL     1       0.769  11.974  21.444  0.00  0.00    +0.000 OA
ATOM      8  C   UNL     1      -0.287  11.366  21.316  0.00  0.00    +0.000 C 
ATOM      9  N   UNL     1      -0.466  10.118  20.752  0.00  0.00    +0.000 N 
ATOM     10  H   UNL     1      -1.430   9.793  20.746  0.00  0.00    +0.000 HD
BRANCH   8  11
ATOM     11  C   UNL     1      -1.555  11.995  21.806  0.00  0.00    +0.000 A 
ATOM     12  C   UNL     1      -1.856  11.937  23.158  0.00  0.00    +0.000 A 
ATOM     13  C   UNL     1      -3.099  12.394  23.567  0.00  0.00    +0.000 A 
ATOM     14  C   UNL     1      -4.024  12.813  22.608  0.00  0.00    +0.000 A 
ATOM     15  C   UNL     1      -5.355  13.077  22.962  0.00  0.00    +0.000 A 
ATOM     16  C   UNL     1      -6.287  13.409  21.984  0.00  0.00    +0.000 A 
ATOM     17  C   UNL     1      -5.874  13.558  20.664  0.00  0.00    +0.000 A 
ATOM     18  C   UNL     1      -4.537  13.326  20.319  0.00  0.00    +0.000 A 
ATOM     19  C   UNL     1      -3.606  12.902  21.258  0.00  0.00    +0.000 A 
ATOM     20  N   UNL     1      -2.375  12.535  20.858  0.00  0.00    +0.000 NA
ENDBRANCH   8  11
ENDBRANCH   1   9
BRANCH   4  21
ATOM     21  S   UNL     1       3.517   6.319  18.407  0.00  0.00    +0.000 S 
ATOM     22  O   UNL     1       4.250   6.989  17.351  0.00  0.00    +0.000 OA
ATOM     23  O   UNL     1       4.208   5.648  19.487  0.00  0.00    +0.000 OA
BRANCH  21  24
ATOM     24  N   UNL     1       2.435   5.278  17.628  0.00  0.00    +0.000 N 
ATOM     25  C   UNL     1       2.347   4.027  18.277  0.00  0.00    +0.000 A 
ATOM     26  N   UNL     1       2.985   3.003  17.770  0.00  0.00    +0.000 NA
ATOM     27  C   UNL     1       2.777   1.903  18.581  0.00  0.00    +0.000 A 
ATOM     28  C   UNL     1       1.886   2.088  19.619  0.00  0.00    +0.000 A 
ATOM     29  S   UNL     1       1.334   3.713  19.618  0.00  0.00    +0.000 S 
ATOM     30  H   UNL     1       2.821   5.131  16.698  0.00  0.00    +0.000 HD
ENDBRANCH  21  24
ENDBRANCH   4  21
TORSDOF 4
ENDMDL
MODEL 8
REMARK VINA RESULT:      -8.1      1.463      1.594
REMARK  Name = 
REMARK  4 active torsions:
REMARK  status: ('A' for Active; 'I' for Inactive)
REMARK    1  A    between atoms: C_2  and  C_19
REMARK    2  A    between atoms: N_3  and  C_4
REMARK    3  A    between atoms: C_7  and  S_8
REMARK    4  A    between atoms: S_8  and  N_11
REMARK                            x       y       z     vdW  Elec       q    Type
REMARK                         _______ _______ _______ _____ _____    ______ ____
ROOT
ATOM      1  C   UNL     1       8.162   8.492  18.118  0.00  0.00    +0.000 A 
ATOM      2  C   UNL     1       8.449   7.305  18.799  0.00  0.00    +0.000 A 
ATOM      3  C   UNL     1       7.657   6.166  18.613  0.00  0.00    +0.000 A 
ATOM      4  C   UNL     1       6.564   6.216  17.748  0.00  0.00    +0.000 A 
ATOM      5  C   UNL     1       6.263   7.394  17.061  0.00  0.00    +0.000 A 
ATOM      6  C   UNL     1       7.059   8.528  17.254  0.00  0.00    +0.000 A 
ENDROOT
BRANCH   1   9
ATOM      7  O   UNL     1       8.905  10.080  20.526  0.00  0.00    +0.000 OA
ATOM      8  C   UNL     1       9.258  10.349  19.383  0.00  0.00    +0.000 C 
ATOM      9  N   UNL     1       8.936   9.662  18.229  0.00  0.00    +0.000 N 
ATOM     10  H   UNL     1       9.333  10.056  17.380  0.00  0.00    +0.000 HD
BRANCH   8  11
ATOM     11  C   UNL     1      10.136  11.541  19.152  0.00  0.00    +0.000 A 
ATOM     12  C   UNL     1      11.426  11.534  19.658  0.00  0.00    +0.000 A 
ATOM     13  C   UNL     1      12.169  12.700  19.561  0.00  0.00    +0.000 A 
ATOM     14  C   UNL     1      11.571  13.850  19.040  0.00  0.00    +0.000 A 
ATOM     15  C   UNL     1      12.215  15.094  19.123  0.00  0.00    +0.000 A 
ATOM     16  C   UNL     1      11.572  16.245  18.679  0.00  0.00    +0.000 A 
ATOM     17  C   UNL     1      10.322  16.146  18.079  0.00  0.00    +0.000 A 
ATOM     18  C   UNL     1       9.696  14.899  17.968  0.00  0.00    +0.000 A 
ATOM     19  C   UNL     1      10.272  13.747  18.487  0.00  0.00    +0.000 A 
ATOM     20  N   UNL     1       9.570  12.599  18.504  0.00  0.00    +0.000 NA
ENDBRANCH   8  11
ENDBRANCH   1   9
BRANCH   4  21
ATOM     21  S   UNL     1       5.659   4.724  17.403  0.00  0.00    +0.000 S 
ATOM     22  O   UNL     1       4.298   5.112  17.091  0.00  0.00    +0.000 OA
ATOM     23  O   UNL     1       6.445   3.945  16.471  0.00  0.00    +0.000 OA
BRANCH  21  24
ATOM     24  N   UNL     1       5.592   3.985  18.922  0.00  0.00    +0.000 N 
ATOM     25  C   UNL     1       4.294   3.515  19.222  0.00  0.00    +0.000 A 
ATOM     26  N   UNL     1       3.540   4.210  20.034  0.00  0.00    +0.000 NA
ATOM     27  C   UNL     1       2.317   3.576  20.157  0.00  0.00    +0.000 A 
ATOM     28  C   UNL     1       2.215   2.351  19.531  0.00  0.00    +0.000 A 
ATOM     29  S   UNL     1       3.681   2.004  18.708  0.00  0.00    +0.000 S 
ATOM     30  H   UNL     1       5.832   4.714  19.590  0.00  0.00    +0.000 HD
ENDBRANCH  21  24
ENDBRANCH   4  21
TORSDOF 4
ENDMDL
MODEL 9
REMARK VINA RESULT:      -8.0      8.014     11.189
REMARK  Name = 
REMARK  4 active torsions:
REMARK  status: ('A' for Active; 'I' for Inactive)
REMARK    1  A    between atoms: C_2  and  C_19
REMARK    2  A    between atoms: N_3  and  C_4
REMARK    3  A    between atoms: C_7  and  S_8
REMARK    4  A    between atoms: S_8  and  N_11
REMARK                            x       y       z     vdW  Elec       q    Type
REMARK                         _______ _______ _______ _____ _____    ______ ____
ROOT
ATOM      1  C   UNL     1       0.444   9.980  19.653  0.00  0.00    +0.000 A 
ATOM      2  C   UNL     1       0.791  10.805  20.726  0.00  0.00    +0.000 A 
ATOM      3  C   UNL     1      -0.002  11.908  21.065  0.00  0.00    +0.000 A 
ATOM      4  C   UNL     1      -1.145  12.194  20.319  0.00  0.00    +0.000 A 
ATOM      5  C   UNL     1      -1.506  11.380  19.243  0.00  0.00    +0.000 A 
ATOM      6  C   UNL     1      -0.706  10.281  18.911  0.00  0.00    +0.000 A 
ENDROOT
BRANCH   1   9
ATOM      7  O   UNL     1       2.284   9.542  17.351  0.00  0.00    +0.000 OA
ATOM      8  C   UNL     1       2.026   8.698  18.202  0.00  0.00    +0.000 C 
ATOM      9  N   UNL     1       1.174   8.836  19.280  0.00  0.00    +0.000 N 
ATOM     10  H   UNL     1       1.100   8.008  19.867  0.00  0.00    +0.000 HD
BRANCH   8  11
ATOM     11  C   UNL     1       2.677   7.352  18.114  0.00  0.00    +0.000 A 
ATOM     12  C   UNL     1       3.883   7.230  17.441  0.00  0.00    +0.000 A 
ATOM     13  C   UNL     1       4.392   5.956  17.245  0.00  0.00    +0.000 A 
ATOM     14  C   UNL     1       3.644   4.850  17.653  0.00  0.00    +0.000 A 
ATOM     15  C   UNL     1       4.023   3.551  17.283  0.00  0.00    +0.000 A 
ATOM     16  C   UNL     1       3.221   2.465  17.621  0.00  0.00    +0.000 A 
ATOM     17  C   UNL     1       2.085   2.665  18.397  0.00  0.00    +0.000 A 
ATOM     18  C   UNL     1       1.727   3.959  18.793  0.00  0.00    +0.000 A 
ATOM     19  C   UNL     1       2.455   5.071  18.391  0.00  0.00    +0.000 A 
ATOM     20  N   UNL     1       1.990   6.305  18.657  0.00  0.00    +0.000 NA
ENDBRANCH   8  11
ENDBRANCH   1   9
BRANCH   4  21
ATOM     21  S   UNL     1      -2.226  13.502  20.851  0.00  0.00    +0.000 S 
ATOM     22  O   UNL     1      -2.510  13.280  22.255  0.00  0.00    +0.000 OA
ATOM     23  O   UNL     1      -1.655  14.750  20.393  0.00  0.00    +0.000 OA
BRANCH  21  24
ATOM     24  N   UNL     1      -3.659  13.142  20.028  0.00  0.00    +0.000 N 
ATOM     25  C   UNL     1      -4.797  13.337  20.841  0.00  0.00    +0.000 A 
ATOM     26  N   UNL     1      -5.379  12.294  21.377  0.00  0.00    +0.000 NA
ATOM     27  C   UNL     1      -6.445  12.727  22.145  0.00  0.00    +0.000 A 
ATOM     28  C   UNL     1      -6.720  14.077  22.076  0.00  0.00    +0.000 A 
ATOM     29  S   UNL     1      -5.568  14.846  21.062  0.00  0.00    +0.000 S 
ATOM     30  H   UNL     1      -3.596  12.153  19.794  0.00  0.00    +0.000 HD
ENDBRANCH  21  24
ENDBRANCH   4  21
TORSDOF 4
ENDMDL
