MODEL 1
REMARK VINA RESULT:      -8.5      0.000      0.000
REMARK  Name = 
REMARK  3 active torsions:
REMARK  status: ('A' for Active; 'I' for Inactive)
REMARK    1  A    between atoms: C_2  and  C_3
REMARK    2  A    between atoms: C_3  and  C_4
REMARK    3  A    between atoms: C_17  and  C_18
REMARK                            x       y       z     vdW  Elec       q    Type
REMARK                         _______ _______ _______ _____ _____    ______ ____
ROOT
ATOM      1  O   UNL     1       3.037   6.894  19.958  0.00  0.00    +0.000 OA
ATOM      2  C   UNL     1       2.058   6.225  20.272  0.00  0.00    +0.000 C 
ATOM      3  N   UNL     1       2.004   4.837  20.106  0.00  0.00    +0.000 N 
ATOM      4  C   UNL     1       0.829   4.049  20.391  0.00  0.00    +0.000 C 
ATOM      5  C   UNL     1       1.331   2.789  21.053  0.00  0.00    +0.000 C 
ATOM      6  C   UNL     1       2.731   2.602  20.501  0.00  0.00    +0.000 C 
ATOM      7  C   UNL     1       3.215   4.012  20.091  0.00  0.00    +0.000 C 
ENDROOT
BRANCH   7   8
ATOM      8  C   UNL     1       3.924   3.989  18.765  0.00  0.00    +0.000 A 
ATOM      9  N   UNL     1       3.661   3.189  17.746  0.00  0.00    +0.000 NA
ATOM     10  N   UNL     1       4.572   3.408  16.752  0.00  0.00    +0.000 NA
ATOM     11  C   UNL     1       5.421   4.338  17.175  0.00  0.00    +0.000 A 
ATOM     12  N   UNL     1       5.041   4.729  18.439  0.00  0.00    +0.000 N 
ATOM     13  C   UNL     1       5.714   5.707  19.263  0.00  0.00    +0.000 C 
ATOM     14  C   UNL     1       7.221   5.516  19.293  0.00  0.00    +0.000 C 
ATOM     15  C   UNL     1       7.914   6.216  18.124  0.00  0.00    +0.000 C 
ATOM     16  C   UNL     1       7.125   6.210  16.808  0.00  0.00    +0.000 C 
ATOM     17  C   UNL     1       6.616   4.827  16.414  0.00  0.00    +0.000 C 
ENDBRANCH   7   8
BRANCH   2  18
ATOM     18  C   UNL     1       0.855   6.868  20.967  0.00  0.00    +0.000 C 
BRANCH  18  19
ATOM     19  C   UNL     1       0.775   8.340  20.652  0.00  0.00    +0.000 A 
ATOM     20  C   UNL     1       1.285   8.989  19.539  0.00  0.00    +0.000 A 
ATOM     21  N   UNL     1       0.975  10.320  19.626  0.00  0.00    +0.000 N 
ATOM     22  C   UNL     1       0.297  10.572  20.795  0.00  0.00    +0.000 A 
ATOM     23  C   UNL     1      -0.190  11.780  21.311  0.00  0.00    +0.000 A 
ATOM     24  C   UNL     1      -0.841  11.736  22.546  0.00  0.00    +0.000 A 
ATOM     25  C   UNL     1      -1.001  10.537  23.233  0.00  0.00    +0.000 A 
ATOM     26  C   UNL     1      -0.511   9.342  22.700  0.00  0.00    +0.000 A 
ATOM     27  C   UNL     1       0.156   9.354  21.459  0.00  0.00    +0.000 A 
ATOM     28  H   UNL     1       1.219  11.024  18.944  0.00  0.00    +0.000 HD
ENDBRANCH  18  19
ENDBRANCH   2  18
TORSDOF 3
ENDMDL
MODEL 2
REMARK VINA RESULT:      -8.4      5.088     10.530
REMARK  Name = 
REMARK  3 active torsions:
REMARK  status: ('A' for Active; 'I' for Inactive)
REMARK    1  A    between atoms: C_2  and  C_3
REMARK    2  A    between atoms: C_3  and  C_4
REMARK    3  A    between atoms: C_17  and  C_18
REMARK                            x       y       z     vdW  Elec       q    Type
REMARK                         _______ _______ _______ _____ _____    ______ ____
ROOT
ATOM      1  O   UNL     1      -2.637  12.454  20.222  0.00  0.00    +0.000 OA
ATOM      2  C   UNL     1      -2.124  11.860  19.279  0.00  0.00    +0.000 C 
ATOM      3  N   UNL     1      -2.874  11.262  18.261  0.00  0.00    +0.000 N 
ATOM      4  C   UNL     1      -2.288  10.487  17.193  0.00  0.00    +0.000 C 
ATOM      5  C   UNL     1      -3.047  10.869  15.946  0.00  0.00    +0.000 C 
ATOM      6  C   UNL     1      -4.419  11.278  16.446  0.00  0.00    +0.000 C 
ATOM      7  C   UNL     1      -4.215  11.735  17.909  0.00  0.00    +0.000 C 
ENDROOT
BRANCH   7   8
ATOM      8  C   UNL     1      -5.303  11.214  18.807  0.00  0.00    +0.000 A 
ATOM      9  N   UNL     1      -5.896  10.035  18.722  0.00  0.00    +0.000 NA
ATOM     10  N   UNL     1      -6.891   9.962  19.656  0.00  0.00    +0.000 NA
ATOM     11  C   UNL     1      -6.926  11.119  20.307  0.00  0.00    +0.000 A 
ATOM     12  N   UNL     1      -5.937  11.932  19.800  0.00  0.00    +0.000 N 
ATOM     13  C   UNL     1      -5.653  13.285  20.219  0.00  0.00    +0.000 C 
ATOM     14  C   UNL     1      -6.904  14.138  20.348  0.00  0.00    +0.000 C 
ATOM     15  C   UNL     1      -7.562  13.990  21.720  0.00  0.00    +0.000 C 
ATOM     16  C   UNL     1      -7.476  12.585  22.330  0.00  0.00    +0.000 C 
ATOM     17  C   UNL     1      -7.916  11.482  21.372  0.00  0.00    +0.000 C 
ENDBRANCH   7   8
BRANCH   2  18
ATOM     18  C   UNL     1      -0.602  11.821  19.107  0.00  0.00    +0.000 C 
BRANCH  18  19
ATOM     19  C   UNL     1      -0.008  10.642  19.834  0.00  0.00    +0.000 A 
ATOM     20  C   UNL     1      -0.158  10.320  21.173  0.00  0.00    +0.000 A 
ATOM     21  N   UNL     1       0.524   9.159  21.424  0.00  0.00    +0.000 N 
ATOM     22  C   UNL     1       1.153   8.723  20.282  0.00  0.00    +0.000 A 
ATOM     23  C   UNL     1       1.975   7.608  20.076  0.00  0.00    +0.000 A 
ATOM     24  C   UNL     1       2.491   7.417  18.792  0.00  0.00    +0.000 A 
ATOM     25  C   UNL     1       2.197   8.302  17.760  0.00  0.00    +0.000 A 
ATOM     26  C   UNL     1       1.372   9.407  17.985  0.00  0.00    +0.000 A 
ATOM     27  C   UNL     1       0.840   9.630  19.270  0.00  0.00    +0.000 A 
ATOM     28  H   UNL     1       0.576   8.691  22.319  0.00  0.00    +0.000 HD
ENDBRANCH  18  19
ENDBRANCH   2  18
TORSDOF 3
ENDMDL
MODEL 3
REMARK VINA RESULT:      -8.2      3.541      8.424
REMARK  Name = 
REMARK  3 active torsions:
REMARK  status: ('A' for Active; 'I' for Inactive)
REMARK    1  A    between atoms: C_2  and  C_3
REMARK    2  A    between atoms: C_3  and  C_4
REMARK    3  A    between atoms: C_17  and  C_18
REMARK                            x       y       z     vdW  Elec       q    Type
REMARK                         _______ _______ _______ _____ _____    ______ ____
ROOT
ATOM      1  O   UNL     1       2.919  10.609  17.860  0.00  0.00    +0.000 OA
ATOM      2  C   UNL     1       1.876  10.060  18.198  0.00  0.00    +0.000 C 
ATOM      3  N   UNL     1       0.892  10.703  18.957  0.00  0.00    +0.000 N 
ATOM      4  C   UNL     1      -0.300  10.043  19.434  0.00  0.00    +0.000 C 
ATOM      5  C   UNL     1      -1.418  11.043  19.263  0.00  0.00    +0.000 C 
ATOM      6  C   UNL     1      -0.737  12.395  19.362  0.00  0.00    +0.000 C 
ATOM      7  C   UNL     1       0.732  12.159  18.942  0.00  0.00    +0.000 C 
ENDROOT
BRANCH   7   8
ATOM      8  C   UNL     1       1.689  12.890  19.843  0.00  0.00    +0.000 A 
ATOM      9  N   UNL     1       1.702  12.861  21.165  0.00  0.00    +0.000 NA
ATOM     10  N   UNL     1       2.661  13.719  21.626  0.00  0.00    +0.000 NA
ATOM     11  C   UNL     1       3.227  14.301  20.575  0.00  0.00    +0.000 A 
ATOM     12  N   UNL     1       2.641  13.800  19.434  0.00  0.00    +0.000 N 
ATOM     13  C   UNL     1       2.956  14.188  18.078  0.00  0.00    +0.000 C 
ATOM     14  C   UNL     1       3.050  15.694  17.903  0.00  0.00    +0.000 C 
ATOM     15  C   UNL     1       4.443  16.227  18.239  0.00  0.00    +0.000 C 
ATOM     16  C   UNL     1       5.151  15.502  19.392  0.00  0.00    +0.000 C 
ATOM     17  C   UNL     1       4.285  15.361  20.640  0.00  0.00    +0.000 C 
ENDBRANCH   7   8
BRANCH   2  18
ATOM     18  C   UNL     1       1.539   8.646  17.716  0.00  0.00    +0.000 C 
BRANCH  18  19
ATOM     19  C   UNL     1       2.317   7.613  18.491  0.00  0.00    +0.000 A 
ATOM     20  C   UNL     1       2.072   7.172  19.781  0.00  0.00    +0.000 A 
ATOM     21  N   UNL     1       2.996   6.212  20.099  0.00  0.00    +0.000 N 
ATOM     22  C   UNL     1       3.871   6.033  19.055  0.00  0.00    +0.000 A 
ATOM     23  C   UNL     1       4.981   5.185  18.944  0.00  0.00    +0.000 A 
ATOM     24  C   UNL     1       5.704   5.223  17.750  0.00  0.00    +0.000 A 
ATOM     25  C   UNL     1       5.332   6.070  16.711  0.00  0.00    +0.000 A 
ATOM     26  C   UNL     1       4.220   6.907  16.839  0.00  0.00    +0.000 A 
ATOM     27  C   UNL     1       3.474   6.896  18.033  0.00  0.00    +0.000 A 
ATOM     28  H   UNL     1       3.045   5.714  20.977  0.00  0.00    +0.000 HD
ENDBRANCH  18  19
ENDBRANCH   2  18
TORSDOF 3
ENDMDL
MODEL 4
REMARK VINA RESULT:      -8.2      1.534      2.445
REMARK  Name = 
REMARK  3 active torsions:
REMARK  status: ('A' for Active; 'I' for Inactive)
REMARK    1  A    between atoms: C_2  and  C_3
REMARK    2  A    between atoms: C_3  and  C_4
REMARK    3  A    between atoms: C_17  and  C_18
REMARK                            x       y       z     vdW  Elec       q    Type
REMARK                         _______ _______ _______ _____ _____    ______ ____
ROOT
ATOM      1  O   UNL     1       3.924   8.085  18.251  0.00  0.00    +0.000 OA
ATOM      2  C   UNL     1       2.898   7.413  18.226  0.00  0.00    +0.000 C 
ATOM      3  N   UNL     1       2.853   6.081  18.653  0.00  0.00    +0.000 N 
ATOM      4  C   UNL     1       1.675   5.254  18.551  0.00  0.00    +0.000 C 
ATOM      5  C   UNL     1       1.622   4.456  19.831  0.00  0.00    +0.000 C 
ATOM      6  C   UNL     1       3.070   4.340  20.267  0.00  0.00    +0.000 C 
ATOM      7  C   UNL     1       3.796   5.555  19.643  0.00  0.00    +0.000 C 
ENDROOT
BRANCH   7   8
ATOM      8  C   UNL     1       5.132   5.166  19.071  0.00  0.00    +0.000 A 
ATOM      9  N   UNL     1       6.271   5.059  19.734  0.00  0.00    +0.000 NA
ATOM     10  N   UNL     1       7.278   4.771  18.858  0.00  0.00    +0.000 NA
ATOM     11  C   UNL     1       6.757   4.725  17.638  0.00  0.00    +0.000 A 
ATOM     12  N   UNL     1       5.405   4.967  17.734  0.00  0.00    +0.000 N 
ATOM     13  C   UNL     1       4.473   5.026  16.632  0.00  0.00    +0.000 C 
ATOM     14  C   UNL     1       4.988   5.854  15.467  0.00  0.00    +0.000 C 
ATOM     15  C   UNL     1       5.858   5.032  14.516  0.00  0.00    +0.000 C 
ATOM     16  C   UNL     1       6.726   3.964  15.195  0.00  0.00    +0.000 C 
ATOM     17  C   UNL     1       7.532   4.500  16.375  0.00  0.00    +0.000 C 
ENDBRANCH   7   8
BRANCH   2  18
ATOM     18  C   UNL     1       1.561   8.033  17.812  0.00  0.00    +0.000 C 
BRANCH  18  19
ATOM     19  C   UNL     1       1.288   9.294  18.592  0.00  0.00    +0.000 A 
ATOM     20  C   UNL     1       1.473  10.600  18.168  0.00  0.00    +0.000 A 
ATOM     21  N   UNL     1       1.081  11.447  19.171  0.00  0.00    +0.000 N 
ATOM     22  C   UNL     1       0.670  10.725  20.266  0.00  0.00    +0.000 A 
ATOM     23  C   UNL     1       0.215  11.165  21.516  0.00  0.00    +0.000 A 
ATOM     24  C   UNL     1      -0.130  10.190  22.455  0.00  0.00    +0.000 A 
ATOM     25  C   UNL     1      -0.027   8.835  22.156  0.00  0.00    +0.000 A 
ATOM     26  C   UNL     1       0.426   8.416  20.902  0.00  0.00    +0.000 A 
ATOM     27  C   UNL     1       0.787   9.375  19.936  0.00  0.00    +0.000 A 
ATOM     28  H   UNL     1       1.102  12.456  19.127  0.00  0.00    +0.000 HD
ENDBRANCH  18  19
ENDBRANCH   2  18
TORSDOF 3
ENDMDL
MODEL 5
REMARK VINA RESULT:      -8.1      1.066      1.588
REMARK  Name = 
REMARK  3 active torsions:
REMARK  status: ('A' for Active; 'I' for Inactive)
REMARK    1  A    between atoms: C_2  and  C_3
REMARK    2  A    between atoms: C_3  and  C_4
REMARK    3  A    between atoms: C_17  and  C_18
REMARK                            x       y       z     vdW  Elec       q    Type
REMARK                         _______ _______ _______ _____ _____    ______ ____
ROOT
ATOM      1  O   UNL     1       2.767   7.058  19.775  0.00  0.00    +0.000 OA
ATOM      2  C   UNL     1       1.843   6.337  20.138  0.00  0.00    +0.000 C 
ATOM      3  N   UNL     1       1.900   4.941  20.075  0.00  0.00    +0.000 N 
ATOM      4  C   UNL     1       0.791   4.084  20.418  0.00  0.00    +0.000 C 
ATOM      5  C   UNL     1       1.389   2.920  21.171  0.00  0.00    +0.000 C 
ATOM      6  C   UNL     1       2.802   2.806  20.634  0.00  0.00    +0.000 C 
ATOM      7  C   UNL     1       3.173   4.217  20.120  0.00  0.00    +0.000 C 
ENDROOT
BRANCH   7   8
ATOM      8  C   UNL     1       3.889   4.153  18.799  0.00  0.00    +0.000 A 
ATOM      9  N   UNL     1       3.606   3.349  17.789  0.00  0.00    +0.000 NA
ATOM     10  N   UNL     1       4.529   3.525  16.798  0.00  0.00    +0.000 NA
ATOM     11  C   UNL     1       5.406   4.432  17.214  0.00  0.00    +0.000 A 
ATOM     12  N   UNL     1       5.032   4.852  18.470  0.00  0.00    +0.000 N 
ATOM     13  C   UNL     1       5.732   5.818  19.286  0.00  0.00    +0.000 C 
ATOM     14  C   UNL     1       7.232   5.578  19.328  0.00  0.00    +0.000 C 
ATOM     15  C   UNL     1       7.954   6.240  18.154  0.00  0.00    +0.000 C 
ATOM     16  C   UNL     1       7.173   6.243  16.834  0.00  0.00    +0.000 C 
ATOM     17  C   UNL     1       6.621   4.872  16.454  0.00  0.00    +0.000 C 
ENDBRANCH   7   8
BRANCH   2  18
ATOM     18  C   UNL     1       0.588   6.932  20.785  0.00  0.00    +0.000 C 
BRANCH  18  19
ATOM     19  C   UNL     1       0.778   8.398  21.081  0.00  0.00    +0.000 A 
ATOM     20  C   UNL     1       1.331   8.958  22.221  0.00  0.00    +0.000 A 
ATOM     21  N   UNL     1       1.341  10.321  22.080  0.00  0.00    +0.000 N 
ATOM     22  C   UNL     1       0.773  10.676  20.880  0.00  0.00    +0.000 A 
ATOM     23  C   UNL     1       0.548  11.944  20.330  0.00  0.00    +0.000 A 
ATOM     24  C   UNL     1      -0.067  12.003  19.077  0.00  0.00    +0.000 A 
ATOM     25  C   UNL     1      -0.439  10.845  18.403  0.00  0.00    +0.000 A 
ATOM     26  C   UNL     1      -0.203   9.587  18.967  0.00  0.00    +0.000 A 
ATOM     27  C   UNL     1       0.410   9.495  20.232  0.00  0.00    +0.000 A 
ATOM     28  H   UNL     1       1.697  10.978  22.760  0.00  0.00    +0.000 HD
ENDBRANCH  18  19
ENDBRANCH   2  18
TORSDOF 3
ENDMDL
MODEL 6
REMARK VINA RESULT:      -8.0      1.098      1.282
REMARK  Name = 
REMARK  3 active torsions:
REMARK  status: ('A' for Active; 'I' for Inactive)
REMARK    1  A    between atoms: C_2  and  C_3
REMARK    2  A    between atoms: C_3  and  C_4
REMARK    3  A    between atoms: C_17  and  C_18
REMARK                            x       y       z     vdW  Elec       q    Type
REMARK                         _______ _______ _______ _____ _____    ______ ____
ROOT
ATOM      1  O   UNL     1       3.200   7.303  19.073  0.00  0.00    +0.000 OA
ATOM      2  C   UNL     1       2.357   6.791  19.803  0.00  0.00    +0.000 C 
ATOM      3  N   UNL     1       2.224   5.407  19.954  0.00  0.00    +0.000 N 
ATOM      4  C   UNL     1       1.184   4.790  20.741  0.00  0.00    +0.000 C 
ATOM      5  C   UNL     1       1.844   3.641  21.464  0.00  0.00    +0.000 C 
ATOM      6  C   UNL     1       2.993   3.234  20.561  0.00  0.00    +0.000 C 
ATOM      7  C   UNL     1       3.351   4.495  19.740  0.00  0.00    +0.000 C 
ENDROOT
BRANCH   7   8
ATOM      8  C   UNL     1       3.602   4.160  18.295  0.00  0.00    +0.000 A 
ATOM      9  N   UNL     1       2.838   3.413  17.516  0.00  0.00    +0.000 NA
ATOM     10  N   UNL     1       3.440   3.268  16.298  0.00  0.00    +0.000 NA
ATOM     11  C   UNL     1       4.600   3.912  16.338  0.00  0.00    +0.000 A 
ATOM     12  N   UNL     1       4.735   4.488  17.580  0.00  0.00    +0.000 N 
ATOM     13  C   UNL     1       5.866   5.261  18.040  0.00  0.00    +0.000 C 
ATOM     14  C   UNL     1       7.198   4.610  17.707  0.00  0.00    +0.000 C 
ATOM     15  C   UNL     1       7.684   4.977  16.305  0.00  0.00    +0.000 C 
ATOM     16  C   UNL     1       6.575   5.127  15.256  0.00  0.00    +0.000 C 
ATOM     17  C   UNL     1       5.606   3.949  15.226  0.00  0.00    +0.000 C 
ENDBRANCH   7   8
BRANCH   2  18
ATOM     18  C   UNL     1       1.450   7.655  20.684  0.00  0.00    +0.000 C 
BRANCH  18  19
ATOM     19  C   UNL     1       1.077   8.935  19.981  0.00  0.00    +0.000 A 
ATOM     20  C   UNL     1       1.280   9.249  18.647  0.00  0.00    +0.000 A 
ATOM     21  N   UNL     1       0.774  10.499  18.408  0.00  0.00    +0.000 N 
ATOM     22  C   UNL     1       0.268  11.034  19.569  0.00  0.00    +0.000 A 
ATOM     23  C   UNL     1      -0.318  12.285  19.803  0.00  0.00    +0.000 A 
ATOM     24  C   UNL     1      -0.737  12.565  21.106  0.00  0.00    +0.000 A 
ATOM     25  C   UNL     1      -0.579  11.635  22.128  0.00  0.00    +0.000 A 
ATOM     26  C   UNL     1       0.005  10.390  21.873  0.00  0.00    +0.000 A 
ATOM     27  C   UNL     1       0.443  10.080  20.571  0.00  0.00    +0.000 A 
ATOM     28  H   UNL     1       0.780  10.973  17.516  0.00  0.00    +0.000 HD
ENDBRANCH  18  19
ENDBRANCH   2  18
TORSDOF 3
ENDMDL
MODEL 7
REMARK VINA RESULT:      -7.8      3.859      6.674
REMARK  Name = 
REMARK  3 active torsions:
REMARK  status: ('A' for Active; 'I' for Inactive)
REMARK    1  A    between atoms: C_2  and  C_3
REMARK    2  A    between atoms: C_3  and  C_4
REMARK    3  A    between atoms: C_17  and  C_18
REMARK                            x       y       z     vdW  Elec       q    Type
REMARK                         _______ _______ _______ _____ _____    ______ ____
ROOT
ATOM      1  O   UNL     1      -1.631   9.722  17.562  0.00  0.00    +0.000 OA
ATOM      2  C   UNL     1      -1.597  10.904  17.889  0.00  0.00    +0.000 C 
ATOM      3  N   UNL     1      -0.533  11.463  18.606  0.00  0.00    +0.000 N 
ATOM      4  C   UNL     1      -0.518  12.829  19.070  0.00  0.00    +0.000 C 
ATOM      5  C   UNL     1       0.890  13.324  18.844  0.00  0.00    +0.000 C 
ATOM      6  C   UNL     1       1.748  12.076  18.925  0.00  0.00    +0.000 C 
ATOM      7  C   UNL     1       0.818  10.899  18.548  0.00  0.00    +0.000 C 
ENDROOT
BRANCH   7   8
ATOM      8  C   UNL     1       1.029   9.716  19.453  0.00  0.00    +0.000 A 
ATOM      9  N   UNL     1       0.802   9.672  20.755  0.00  0.00    +0.000 NA
ATOM     10  N   UNL     1       1.194   8.457  21.240  0.00  0.00    +0.000 NA
ATOM     11  C   UNL     1       1.691   7.755  20.229  0.00  0.00    +0.000 A 
ATOM     12  N   UNL     1       1.601   8.517  19.086  0.00  0.00    +0.000 N 
ATOM     13  C   UNL     1       2.050   8.128  17.769  0.00  0.00    +0.000 C 
ATOM     14  C   UNL     1       3.438   7.509  17.779  0.00  0.00    +0.000 C 
ATOM     15  C   UNL     1       3.397   6.007  18.065  0.00  0.00    +0.000 C 
ATOM     16  C   UNL     1       2.309   5.568  19.053  0.00  0.00    +0.000 C 
ATOM     17  C   UNL     1       2.295   6.387  20.341  0.00  0.00    +0.000 C 
ENDBRANCH   7   8
BRANCH   2  18
ATOM     18  C   UNL     1      -2.689  11.878  17.437  0.00  0.00    +0.000 C 
BRANCH  18  19
ATOM     19  C   UNL     1      -4.003  11.560  18.103  0.00  0.00    +0.000 A 
ATOM     20  C   UNL     1      -4.998  10.717  17.636  0.00  0.00    +0.000 A 
ATOM     21  N   UNL     1      -6.015  10.687  18.553  0.00  0.00    +0.000 N 
ATOM     22  C   UNL     1      -5.727  11.523  19.606  0.00  0.00    +0.000 A 
ATOM     23  C   UNL     1      -6.480  11.826  20.748  0.00  0.00    +0.000 A 
ATOM     24  C   UNL     1      -5.932  12.733  21.658  0.00  0.00    +0.000 A 
ATOM     25  C   UNL     1      -4.684  13.308  21.438  0.00  0.00    +0.000 A 
ATOM     26  C   UNL     1      -3.947  12.990  20.294  0.00  0.00    +0.000 A 
ATOM     27  C   UNL     1      -4.475  12.084  19.354  0.00  0.00    +0.000 A 
ATOM     28  H   UNL     1      -6.864  10.145  18.470  0.00  0.00    +0.000 HD
ENDBRANCH  18  19
ENDBRANCH   2  18
TORSDOF 3
ENDMDL
MODEL 8
REMARK VINA RESULT:      -7.8      3.960      6.572
REMARK  Name = 
REMARK  3 active torsions:
REMARK  status: ('A' for Active; 'I' for Inactive)
REMARK    1  A    between atoms: C_2  and  C_3
REMARK    2  A    between atoms: C_3  and  C_4
REMARK    3  A    between atoms: C_17  and  C_18
REMARK                            x       y       z     vdW  Elec       q    Type
REMARK                         _______ _______ _______ _____ _____    ______ ____
ROOT
ATOM      1  O   UNL     1      -1.786   9.809  18.138  0.00  0.00    +0.000 OA
ATOM      2  C   UNL     1      -1.453  10.970  18.355  0.00  0.00    +0.000 C 
ATOM      3  N   UNL     1      -0.155  11.328  18.737  0.00  0.00    +0.000 N 
ATOM      4  C   UNL     1       0.229  12.677  19.077  0.00  0.00    +0.000 C 
ATOM      5  C   UNL     1       1.594  12.880  18.467  0.00  0.00    +0.000 C 
ATOM      6  C   UNL     1       2.202  11.491  18.424  0.00  0.00    +0.000 C 
ATOM      7  C   UNL     1       1.007  10.510  18.383  0.00  0.00    +0.000 C 
ENDROOT
BRANCH   7   8
ATOM      8  C   UNL     1       1.229   9.332  19.293  0.00  0.00    +0.000 A 
ATOM      9  N   UNL     1       0.976   9.283  20.590  0.00  0.00    +0.000 NA
ATOM     10  N   UNL     1       1.388   8.078  21.085  0.00  0.00    +0.000 NA
ATOM     11  C   UNL     1       1.923   7.388  20.084  0.00  0.00    +0.000 A 
ATOM     12  N   UNL     1       1.838   8.147  18.939  0.00  0.00    +0.000 N 
ATOM     13  C   UNL     1       2.324   7.769  17.632  0.00  0.00    +0.000 C 
ATOM     14  C   UNL     1       3.726   7.185  17.671  0.00  0.00    +0.000 C 
ATOM     15  C   UNL     1       3.716   5.683  17.957  0.00  0.00    +0.000 C 
ATOM     16  C   UNL     1       2.620   5.217  18.924  0.00  0.00    +0.000 C 
ATOM     17  C   UNL     1       2.558   6.036  20.210  0.00  0.00    +0.000 C 
ENDBRANCH   7   8
BRANCH   2  18
ATOM     18  C   UNL     1      -2.429  12.126  18.120  0.00  0.00    +0.000 C 
BRANCH  18  19
ATOM     19  C   UNL     1      -3.406  12.247  19.262  0.00  0.00    +0.000 A 
ATOM     20  C   UNL     1      -3.157  12.753  20.527  0.00  0.00    +0.000 A 
ATOM     21  N   UNL     1      -4.317  12.707  21.255  0.00  0.00    +0.000 N 
ATOM     22  C   UNL     1      -5.323  12.147  20.504  0.00  0.00    +0.000 A 
ATOM     23  C   UNL     1      -6.656  11.879  20.842  0.00  0.00    +0.000 A 
ATOM     24  C   UNL     1      -7.461  11.286  19.866  0.00  0.00    +0.000 A 
ATOM     25  C   UNL     1      -6.955  10.977  18.607  0.00  0.00    +0.000 A 
ATOM     26  C   UNL     1      -5.623  11.256  18.288  0.00  0.00    +0.000 A 
ATOM     27  C   UNL     1      -4.785  11.848  19.252  0.00  0.00    +0.000 A 
ATOM     28  H   UNL     1      -4.424  13.021  22.209  0.00  0.00    +0.000 HD
ENDBRANCH  18  19
ENDBRANCH   2  18
TORSDOF 3
ENDMDL
MODEL 9
REMARK VINA RESULT:      -7.8      7.616      9.808
REMARK  Name = 
REMARK  3 active torsions:
REMARK  status: ('A' for Active; 'I' for Inactive)
REMARK    1  A    between atoms: C_2  and  C_3
REMARK    2  A    between atoms: C_3  and  C_4
REMARK    3  A    between atoms: C_17  and  C_18
REMARK                            x       y       z     vdW  Elec       q    Type
REMARK                         _______ _______ _______ _____ _____    ______ ____
ROOT
ATOM      1  O   UNL     1       0.118  13.370  18.609  0.00  0.00    +0.000 OA
ATOM      2  C   UNL     1       0.189  13.814  19.750  0.00  0.00    +0.000 C 
ATOM      3  N   UNL     1      -0.731  13.484  20.751  0.00  0.00    +0.000 N 
ATOM      4  C   UNL     1      -0.709  14.064  22.073  0.00  0.00    +0.000 C 
ATOM      5  C   UNL     1      -1.022  12.933  23.022  0.00  0.00    +0.000 C 
ATOM      6  C   UNL     1      -1.866  11.974  22.204  0.00  0.00    +0.000 C 
ATOM      7  C   UNL     1      -1.479  12.224  20.728  0.00  0.00    +0.000 C 
ENDROOT
BRANCH   7   8
ATOM      8  C   UNL     1      -2.689  12.246  19.836  0.00  0.00    +0.000 A 
ATOM      9  N   UNL     1      -3.883  12.725  20.142  0.00  0.00    +0.000 NA
ATOM     10  N   UNL     1      -4.743  12.489  19.107  0.00  0.00    +0.000 NA
ATOM     11  C   UNL     1      -4.076  11.834  18.164  0.00  0.00    +0.000 A 
ATOM     12  N   UNL     1      -2.777  11.666  18.588  0.00  0.00    +0.000 N 
ATOM     13  C   UNL     1      -1.729  10.984  17.864  0.00  0.00    +0.000 C 
ATOM     14  C   UNL     1      -2.181   9.654  17.286  0.00  0.00    +0.000 C 
ATOM     15  C   UNL     1      -2.842   9.815  15.917  0.00  0.00    +0.000 C 
ATOM     16  C   UNL     1      -3.673  11.093  15.748  0.00  0.00    +0.000 C 
ATOM     17  C   UNL     1      -4.666  11.324  16.883  0.00  0.00    +0.000 C 
ENDBRANCH   7   8
BRANCH   2  18
ATOM     18  C   UNL     1       1.367  14.693  20.181  0.00  0.00    +0.000 C 
BRANCH  18  19
ATOM     19  C   UNL     1       1.723  15.682  19.101  0.00  0.00    +0.000 A 
ATOM     20  C   UNL     1       2.965  15.877  18.519  0.00  0.00    +0.000 A 
ATOM     21  N   UNL     1       2.854  16.853  17.564  0.00  0.00    +0.000 N 
ATOM     22  C   UNL     1       1.567  17.333  17.525  0.00  0.00    +0.000 A 
ATOM     23  C   UNL     1       1.005  18.342  16.732  0.00  0.00    +0.000 A 
ATOM     24  C   UNL     1      -0.349  18.628  16.919  0.00  0.00    +0.000 A 
ATOM     25  C   UNL     1      -1.109  17.935  17.857  0.00  0.00    +0.000 A 
ATOM     26  C   UNL     1      -0.530  16.929  18.637  0.00  0.00    +0.000 A 
ATOM     27  C   UNL     1       0.835  16.621  18.475  0.00  0.00    +0.000 A 
ATOM     28  H   UNL     1       3.607  17.188  16.978  0.00  0.00    +0.000 HD
ENDBRANCH  18  19
ENDBRANCH   2  18
TORSDOF 3
ENDMDL
