MODEL 1
REMARK VINA RESULT:      -8.9      0.000      0.000
REMARK  Name = 
REMARK  6 active torsions:
REMARK  status: ('A' for Active; 'I' for Inactive)
REMARK    1  A    between atoms: C_1  and  C_2
REMARK    2  A    between atoms: C_5  and  S_6
REMARK    3  A    between atoms: S_6  and  N_9
REMARK    4  A    between atoms: N_9  and  C_10
REMARK    5  A    between atoms: C_15  and  C_16
REMARK    6  A    between atoms: C_27  and  C_28
REMARK                            x       y       z     vdW  Elec       q    Type
REMARK                         _______ _______ _______ _____ _____    ______ ____
ROOT
ATOM      1  C   UNL     1       2.883   4.912  20.196  0.00  0.00    +0.000 A 
ATOM      2  C   UNL     1       1.687   4.520  20.815  0.00  0.00    +0.000 A 
ATOM      3  C   UNL     1       1.376   3.174  20.988  0.00  0.00    +0.000 A 
ATOM      4  C   UNL     1       2.272   2.203  20.561  0.00  0.00    +0.000 A 
ATOM      5  C   UNL     1       3.480   2.581  19.974  0.00  0.00    +0.000 A 
ATOM      6  C   UNL     1       3.800   3.935  19.744  0.00  0.00    +0.000 A 
ENDROOT
BRANCH   6   7
ATOM      7  C   UNL     1       5.080   4.287  19.113  0.00  0.00    +0.000 A 
ATOM      8  N   UNL     1       6.180   4.611  19.768  0.00  0.00    +0.000 NA
ATOM      9  N   UNL     1       7.178   4.850  18.862  0.00  0.00    +0.000 NA
ATOM     10  C   UNL     1       6.688   4.694  17.648  0.00  0.00    +0.000 A 
ATOM     11  N   UNL     1       5.363   4.341  17.756  0.00  0.00    +0.000 N 
ATOM     12  C   UNL     1       4.454   4.060  16.661  0.00  0.00    +0.000 C 
ATOM     13  C   UNL     1       4.616   4.947  15.433  0.00  0.00    +0.000 C 
ATOM     14  C   UNL     1       5.762   4.532  14.513  0.00  0.00    +0.000 C 
ATOM     15  C   UNL     1       7.019   4.024  15.219  0.00  0.00    +0.000 C 
ATOM     16  C   UNL     1       7.455   4.907  16.384  0.00  0.00    +0.000 C 
ENDBRANCH   6   7
BRANCH   1  17
ATOM     17  N   UNL     1       3.067   6.323  20.038  0.00  0.00    +0.000 N 
ATOM     18  H   UNL     1       3.980   6.675  20.340  0.00  0.00    +0.000 HD
BRANCH  17  19
ATOM     19  S   UNL     1       2.658   7.026  18.550  0.00  0.00    +0.000 S 
ATOM     20  O   UNL     1       1.788   6.129  17.807  0.00  0.00    +0.000 OA
ATOM     21  O   UNL     1       3.889   7.528  17.965  0.00  0.00    +0.000 OA
BRANCH  19  26
ATOM     22  C   UNL     1      -0.689  11.817  20.229  0.00  0.00    +0.000 C 
ATOM     23  C   UNL     1       0.126  10.621  19.824  0.00  0.00    +0.000 A 
ATOM     24  C   UNL     1       0.526  10.476  18.481  0.00  0.00    +0.000 A 
ATOM     25  C   UNL     1       1.295   9.386  18.074  0.00  0.00    +0.000 A 
ATOM     26  C   UNL     1       1.681   8.441  19.022  0.00  0.00    +0.000 A 
ATOM     27  C   UNL     1       1.267   8.548  20.352  0.00  0.00    +0.000 A 
ATOM     28  C   UNL     1       0.495   9.640  20.766  0.00  0.00    +0.000 A 
ATOM     29  C   UNL     1       0.079   9.733  22.211  0.00  0.00    +0.000 C 
ENDBRANCH  19  26
ENDBRANCH  17  19
ENDBRANCH   1  17
TORSDOF 4
ENDMDL
MODEL 2
REMARK VINA RESULT:      -8.2      1.134      2.027
REMARK  Name = 
REMARK  6 active torsions:
REMARK  status: ('A' for Active; 'I' for Inactive)
REMARK    1  A    between atoms: C_1  and  C_2
REMARK    2  A    between atoms: C_5  and  S_6
REMARK    3  A    between atoms: S_6  and  N_9
REMARK    4  A    between atoms: N_9  and  C_10
REMARK    5  A    between atoms: C_15  and  C_16
REMARK    6  A    between atoms: C_27  and  C_28
REMARK                            x       y       z     vdW  Elec       q    Type
REMARK                         _______ _______ _______ _____ _____    ______ ____
ROOT
ATOM      1  C   UNL     1       2.690   4.921  19.927  0.00  0.00    +0.000 A 
ATOM      2  C   UNL     1       1.791   4.542  20.935  0.00  0.00    +0.000 A 
ATOM      3  C   UNL     1       1.383   3.217  21.070  0.00  0.00    +0.000 A 
ATOM      4  C   UNL     1       1.889   2.253  20.210  0.00  0.00    +0.000 A 
ATOM      5  C   UNL     1       2.811   2.613  19.225  0.00  0.00    +0.000 A 
ATOM      6  C   UNL     1       3.205   3.954  19.035  0.00  0.00    +0.000 A 
ENDROOT
BRANCH   6   7
ATOM      7  C   UNL     1       4.170   4.289  17.978  0.00  0.00    +0.000 A 
ATOM      8  N   UNL     1       4.047   3.946  16.709  0.00  0.00    +0.000 NA
ATOM      9  N   UNL     1       5.113   4.448  16.012  0.00  0.00    +0.000 NA
ATOM     10  C   UNL     1       5.904   5.082  16.855  0.00  0.00    +0.000 A 
ATOM     11  N   UNL     1       5.350   5.005  18.112  0.00  0.00    +0.000 N 
ATOM     12  C   UNL     1       5.890   5.582  19.328  0.00  0.00    +0.000 C 
ATOM     13  C   UNL     1       7.406   5.516  19.467  0.00  0.00    +0.000 C 
ATOM     14  C   UNL     1       8.149   6.601  18.690  0.00  0.00    +0.000 C 
ATOM     15  C   UNL     1       7.554   6.956  17.327  0.00  0.00    +0.000 C 
ATOM     16  C   UNL     1       7.197   5.734  16.488  0.00  0.00    +0.000 C 
ENDBRANCH   6   7
BRANCH   1  17
ATOM     17  N   UNL     1       2.997   6.318  19.864  0.00  0.00    +0.000 N 
ATOM     18  H   UNL     1       3.983   6.551  20.019  0.00  0.00    +0.000 HD
BRANCH  17  19
ATOM     19  S   UNL     1       2.410   7.213  18.549  0.00  0.00    +0.000 S 
ATOM     20  O   UNL     1       1.439   6.420  17.812  0.00  0.00    +0.000 OA
ATOM     21  O   UNL     1       3.562   7.792  17.881  0.00  0.00    +0.000 OA
BRANCH  19  26
ATOM     22  C   UNL     1      -0.627  11.725  21.268  0.00  0.00    +0.000 C 
ATOM     23  C   UNL     1       0.113  10.597  20.605  0.00  0.00    +0.000 A 
ATOM     24  C   UNL     1       0.378  10.658  19.223  0.00  0.00    +0.000 A 
ATOM     25  C   UNL     1       1.073   9.635  18.578  0.00  0.00    +0.000 A 
ATOM     26  C   UNL     1       1.522   8.549  19.327  0.00  0.00    +0.000 A 
ATOM     27  C   UNL     1       1.241   8.453  20.692  0.00  0.00    +0.000 A 
ATOM     28  C   UNL     1       0.543   9.477  21.344  0.00  0.00    +0.000 A 
ATOM     29  C   UNL     1       0.271   9.349  22.820  0.00  0.00    +0.000 C 
ENDBRANCH  19  26
ENDBRANCH  17  19
ENDBRANCH   1  17
TORSDOF 4
ENDMDL
MODEL 3
REMARK VINA RESULT:      -8.2      0.571      1.317
REMARK  Name = 
REMARK  6 active torsions:
REMARK  status: ('A' for Active; 'I' for Inactive)
REMARK    1  A    between atoms: C_1  and  C_2
REMARK    2  A    between atoms: C_5  and  S_6
REMARK    3  A    between atoms: S_6  and  N_9
REMARK    4  A    between atoms: N_9  and  C_10
REMARK    5  A    between atoms: C_15  and  C_16
REMARK    6  A    between atoms: C_27  and  C_28
REMARK                            x       y       z     vdW  Elec       q    Type
REMARK                         _______ _______ _______ _____ _____    ______ ____
ROOT
ATOM      1  C   UNL     1       2.693   4.869  20.066  0.00  0.00    +0.000 A 
ATOM      2  C   UNL     1       1.437   4.490  20.564  0.00  0.00    +0.000 A 
ATOM      3  C   UNL     1       1.033   3.157  20.549  0.00  0.00    +0.000 A 
ATOM      4  C   UNL     1       1.891   2.185  20.054  0.00  0.00    +0.000 A 
ATOM      5  C   UNL     1       3.156   2.547  19.587  0.00  0.00    +0.000 A 
ATOM      6  C   UNL     1       3.573   3.893  19.547  0.00  0.00    +0.000 A 
ENDROOT
BRANCH   6   7
ATOM      7  C   UNL     1       4.911   4.229  19.037  0.00  0.00    +0.000 A 
ATOM      8  N   UNL     1       5.974   4.440  19.791  0.00  0.00    +0.000 NA
ATOM      9  N   UNL     1       7.045   4.701  18.978  0.00  0.00    +0.000 NA
ATOM     10  C   UNL     1       6.638   4.670  17.725  0.00  0.00    +0.000 A 
ATOM     11  N   UNL     1       5.293   4.379  17.712  0.00  0.00    +0.000 N 
ATOM     12  C   UNL     1       4.454   4.236  16.538  0.00  0.00    +0.000 C 
ATOM     13  C   UNL     1       4.745   5.210  15.403  0.00  0.00    +0.000 C 
ATOM     14  C   UNL     1       5.934   4.813  14.532  0.00  0.00    +0.000 C 
ATOM     15  C   UNL     1       7.113   4.185  15.276  0.00  0.00    +0.000 C 
ATOM     16  C   UNL     1       7.503   4.946  16.539  0.00  0.00    +0.000 C 
ENDBRANCH   6   7
BRANCH   1  17
ATOM     17  N   UNL     1       2.974   6.272  20.096  0.00  0.00    +0.000 N 
ATOM     18  H   UNL     1       3.943   6.513  20.326  0.00  0.00    +0.000 HD
BRANCH  17  19
ATOM     19  S   UNL     1       2.452   7.226  18.796  0.00  0.00    +0.000 S 
ATOM     20  O   UNL     1       1.551   6.456  17.954  0.00  0.00    +0.000 OA
ATOM     21  O   UNL     1       3.630   7.867  18.239  0.00  0.00    +0.000 OA
BRANCH  19  26
ATOM     22  C   UNL     1      -0.844  11.609  21.424  0.00  0.00    +0.000 C 
ATOM     23  C   UNL     1      -0.018  10.539  20.766  0.00  0.00    +0.000 A 
ATOM     24  C   UNL     1       0.382   9.414  21.514  0.00  0.00    +0.000 A 
ATOM     25  C   UNL     1       1.138   8.396  20.932  0.00  0.00    +0.000 A 
ATOM     26  C   UNL     1       1.482   8.497  19.585  0.00  0.00    +0.000 A 
ATOM     27  C   UNL     1       1.123   9.620  18.836  0.00  0.00    +0.000 A 
ATOM     28  C   UNL     1       0.365  10.645  19.415  0.00  0.00    +0.000 A 
ATOM     29  C   UNL     1      -0.018  11.834  18.573  0.00  0.00    +0.000 C 
ENDBRANCH  19  26
ENDBRANCH  17  19
ENDBRANCH   1  17
TORSDOF 4
ENDMDL
MODEL 4
REMARK VINA RESULT:      -8.0      1.207      2.373
REMARK  Name = 
REMARK  6 active torsions:
REMARK  status: ('A' for Active; 'I' for Inactive)
REMARK    1  A    between atoms: C_1  and  C_2
REMARK    2  A    between atoms: C_5  and  S_6
REMARK    3  A    between atoms: S_6  and  N_9
REMARK    4  A    between atoms: N_9  and  C_10
REMARK    5  A    between atoms: C_15  and  C_16
REMARK    6  A    between atoms: C_27  and  C_28
REMARK                            x       y       z     vdW  Elec       q    Type
REMARK                         _______ _______ _______ _____ _____    ______ ____
ROOT
ATOM      1  C   UNL     1       2.767   4.809  19.972  0.00  0.00    +0.000 A 
ATOM      2  C   UNL     1       1.880   4.407  20.983  0.00  0.00    +0.000 A 
ATOM      3  C   UNL     1       1.455   3.085  21.080  0.00  0.00    +0.000 A 
ATOM      4  C   UNL     1       1.929   2.144  20.176  0.00  0.00    +0.000 A 
ATOM      5  C   UNL     1       2.837   2.525  19.187  0.00  0.00    +0.000 A 
ATOM      6  C   UNL     1       3.249   3.865  19.037  0.00  0.00    +0.000 A 
ENDROOT
BRANCH   6   7
ATOM      7  C   UNL     1       4.199   4.223  17.974  0.00  0.00    +0.000 A 
ATOM      8  N   UNL     1       4.074   3.881  16.705  0.00  0.00    +0.000 NA
ATOM      9  N   UNL     1       5.125   4.407  16.001  0.00  0.00    +0.000 NA
ATOM     10  C   UNL     1       5.908   5.055  16.840  0.00  0.00    +0.000 A 
ATOM     11  N   UNL     1       5.365   4.963  18.101  0.00  0.00    +0.000 N 
ATOM     12  C   UNL     1       5.902   5.548  19.315  0.00  0.00    +0.000 C 
ATOM     13  C   UNL     1       7.420   5.514  19.442  0.00  0.00    +0.000 C 
ATOM     14  C   UNL     1       8.135   6.615  18.663  0.00  0.00    +0.000 C 
ATOM     15  C   UNL     1       7.523   6.962  17.305  0.00  0.00    +0.000 C 
ATOM     16  C   UNL     1       7.184   5.735  16.465  0.00  0.00    +0.000 C 
ENDBRANCH   6   7
BRANCH   1  17
ATOM     17  N   UNL     1       3.095   6.202  19.952  0.00  0.00    +0.000 N 
ATOM     18  H   UNL     1       4.096   6.410  20.020  0.00  0.00    +0.000 HD
BRANCH  17  19
ATOM     19  S   UNL     1       2.398   7.176  18.753  0.00  0.00    +0.000 S 
ATOM     20  O   UNL     1       1.423   6.404  18.000  0.00  0.00    +0.000 OA
ATOM     21  O   UNL     1       3.485   7.866  18.081  0.00  0.00    +0.000 OA
BRANCH  19  26
ATOM     22  C   UNL     1      -0.666  11.391  21.887  0.00  0.00    +0.000 C 
ATOM     23  C   UNL     1       0.103  10.363  21.105  0.00  0.00    +0.000 A 
ATOM     24  C   UNL     1       0.530   9.182  21.743  0.00  0.00    +0.000 A 
ATOM     25  C   UNL     1       1.233   8.201  21.044  0.00  0.00    +0.000 A 
ATOM     26  C   UNL     1       1.497   8.397  19.690  0.00  0.00    +0.000 A 
ATOM     27  C   UNL     1       1.111   9.576  19.047  0.00  0.00    +0.000 A 
ATOM     28  C   UNL     1       0.405  10.563  19.744  0.00  0.00    +0.000 A 
ATOM     29  C   UNL     1      -0.009  11.815  19.016  0.00  0.00    +0.000 C 
ENDBRANCH  19  26
ENDBRANCH  17  19
ENDBRANCH   1  17
TORSDOF 4
ENDMDL
MODEL 5
REMARK VINA RESULT:      -7.8      4.043      9.633
REMARK  Name = 
REMARK  6 active torsions:
REMARK  status: ('A' for Active; 'I' for Inactive)
REMARK    1  A    between atoms: C_1  and  C_2
REMARK    2  A    between atoms: C_5  and  S_6
REMARK    3  A    between atoms: S_6  and  N_9
REMARK    4  A    between atoms: N_9  and  C_10
REMARK    5  A    between atoms: C_15  and  C_16
REMARK    6  A    between atoms: C_27  and  C_28
REMARK                            x       y       z     vdW  Elec       q    Type
REMARK                         _______ _______ _______ _____ _____    ______ ____
ROOT
ATOM      1  C   UNL     1      -0.264  10.792  19.519  0.00  0.00    +0.000 A 
ATOM      2  C   UNL     1      -0.595  10.019  18.397  0.00  0.00    +0.000 A 
ATOM      3  C   UNL     1      -1.756  10.270  17.670  0.00  0.00    +0.000 A 
ATOM      4  C   UNL     1      -2.590  11.313  18.048  0.00  0.00    +0.000 A 
ATOM      5  C   UNL     1      -2.254  12.110  19.144  0.00  0.00    +0.000 A 
ATOM      6  C   UNL     1      -1.110  11.850  19.925  0.00  0.00    +0.000 A 
ENDROOT
BRANCH   6   7
ATOM      7  C   UNL     1      -0.800  12.709  21.077  0.00  0.00    +0.000 A 
ATOM      8  N   UNL     1       0.362  13.300  21.286  0.00  0.00    +0.000 NA
ATOM      9  N   UNL     1       0.280  14.038  22.437  0.00  0.00    +0.000 NA
ATOM     10  C   UNL     1      -0.926  13.886  22.947  0.00  0.00    +0.000 A 
ATOM     11  N   UNL     1      -1.645  13.050  22.124  0.00  0.00    +0.000 N 
ATOM     12  C   UNL     1      -3.021  12.632  22.309  0.00  0.00    +0.000 C 
ATOM     13  C   UNL     1      -3.432  12.356  23.750  0.00  0.00    +0.000 C 
ATOM     14  C   UNL     1      -3.764  13.611  24.554  0.00  0.00    +0.000 C 
ATOM     15  C   UNL     1      -2.884  14.827  24.266  0.00  0.00    +0.000 C 
ATOM     16  C   UNL     1      -1.396  14.499  24.226  0.00  0.00    +0.000 C 
ENDBRANCH   6   7
BRANCH   1  17
ATOM     17  N   UNL     1       0.931  10.408  20.207  0.00  0.00    +0.000 N 
ATOM     18  H   UNL     1       1.449  11.181  20.636  0.00  0.00    +0.000 HD
BRANCH  17  19
ATOM     19  S   UNL     1       0.852   9.112  21.297  0.00  0.00    +0.000 S 
ATOM     20  O   UNL     1      -0.538   8.788  21.572  0.00  0.00    +0.000 OA
ATOM     21  O   UNL     1       1.777   9.409  22.377  0.00  0.00    +0.000 OA
BRANCH  19  26
ATOM     22  C   UNL     1       3.187   4.432  18.196  0.00  0.00    +0.000 C 
ATOM     23  C   UNL     1       2.618   5.583  18.979  0.00  0.00    +0.000 A 
ATOM     24  C   UNL     1       2.729   6.891  18.470  0.00  0.00    +0.000 A 
ATOM     25  C   UNL     1       2.200   7.980  19.164  0.00  0.00    +0.000 A 
ATOM     26  C   UNL     1       1.540   7.754  20.370  0.00  0.00    +0.000 A 
ATOM     27  C   UNL     1       1.448   6.468  20.908  0.00  0.00    +0.000 A 
ATOM     28  C   UNL     1       1.977   5.372  20.216  0.00  0.00    +0.000 A 
ATOM     29  C   UNL     1       1.846   3.998  20.817  0.00  0.00    +0.000 C 
ENDBRANCH  19  26
ENDBRANCH  17  19
ENDBRANCH   1  17
TORSDOF 4
ENDMDL
MODEL 6
REMARK VINA RESULT:      -7.7      2.053      7.493
REMARK  Name = 
REMARK  6 active torsions:
REMARK  status: ('A' for Active; 'I' for Inactive)
REMARK    1  A    between atoms: C_1  and  C_2
REMARK    2  A    between atoms: C_5  and  S_6
REMARK    3  A    between atoms: S_6  and  N_9
REMARK    4  A    between atoms: N_9  and  C_10
REMARK    5  A    between atoms: C_15  and  C_16
REMARK    6  A    between atoms: C_27  and  C_28
REMARK                            x       y       z     vdW  Elec       q    Type
REMARK                         _______ _______ _______ _____ _____    ______ ____
ROOT
ATOM      1  C   UNL     1       3.964   5.486  18.957  0.00  0.00    +0.000 A 
ATOM      2  C   UNL     1       4.322   4.173  19.298  0.00  0.00    +0.000 A 
ATOM      3  C   UNL     1       3.492   3.387  20.094  0.00  0.00    +0.000 A 
ATOM      4  C   UNL     1       2.283   3.902  20.541  0.00  0.00    +0.000 A 
ATOM      5  C   UNL     1       1.901   5.195  20.181  0.00  0.00    +0.000 A 
ATOM      6  C   UNL     1       2.742   6.029  19.415  0.00  0.00    +0.000 A 
ENDROOT
BRANCH   6   7
ATOM      7  C   UNL     1       2.304   7.388  19.068  0.00  0.00    +0.000 A 
ATOM      8  N   UNL     1       2.522   7.977  17.906  0.00  0.00    +0.000 NA
ATOM      9  N   UNL     1       1.952   9.222  17.930  0.00  0.00    +0.000 NA
ATOM     10  C   UNL     1       1.401   9.408  19.112  0.00  0.00    +0.000 A 
ATOM     11  N   UNL     1       1.601   8.277  19.869  0.00  0.00    +0.000 N 
ATOM     12  C   UNL     1       1.144   8.056  21.228  0.00  0.00    +0.000 C 
ATOM     13  C   UNL     1       1.219   9.268  22.148  0.00  0.00    +0.000 C 
ATOM     14  C   UNL     1       0.063  10.250  21.979  0.00  0.00    +0.000 C 
ATOM     15  C   UNL     1      -0.422  10.452  20.543  0.00  0.00    +0.000 C 
ATOM     16  C   UNL     1       0.713  10.662  19.547  0.00  0.00    +0.000 C 
ENDBRANCH   6   7
BRANCH   1  17
ATOM     17  N   UNL     1       4.921   6.205  18.172  0.00  0.00    +0.000 N 
ATOM     18  H   UNL     1       5.032   7.191  18.425  0.00  0.00    +0.000 HD
BRANCH  17  19
ATOM     19  S   UNL     1       6.448   5.511  17.928  0.00  0.00    +0.000 S 
ATOM     20  O   UNL     1       6.615   4.372  18.816  0.00  0.00    +0.000 OA
ATOM     21  O   UNL     1       7.411   6.598  17.918  0.00  0.00    +0.000 OA
BRANCH  19  26
ATOM     22  C   UNL     1       6.161   3.406  12.231  0.00  0.00    +0.000 C 
ATOM     23  C   UNL     1       6.233   3.945  13.633  0.00  0.00    +0.000 A 
ATOM     24  C   UNL     1       5.330   3.473  14.605  0.00  0.00    +0.000 A 
ATOM     25  C   UNL     1       5.378   3.940  15.918  0.00  0.00    +0.000 A 
ATOM     26  C   UNL     1       6.349   4.877  16.265  0.00  0.00    +0.000 A 
ATOM     27  C   UNL     1       7.233   5.383  15.308  0.00  0.00    +0.000 A 
ATOM     28  C   UNL     1       7.188   4.916  13.989  0.00  0.00    +0.000 A 
ATOM     29  C   UNL     1       8.166   5.471  12.986  0.00  0.00    +0.000 C 
ENDBRANCH  19  26
ENDBRANCH  17  19
ENDBRANCH   1  17
TORSDOF 4
ENDMDL
MODEL 7
REMARK VINA RESULT:      -7.6      1.595      2.433
REMARK  Name = 
REMARK  6 active torsions:
REMARK  status: ('A' for Active; 'I' for Inactive)
REMARK    1  A    between atoms: C_1  and  C_2
REMARK    2  A    between atoms: C_5  and  S_6
REMARK    3  A    between atoms: S_6  and  N_9
REMARK    4  A    between atoms: N_9  and  C_10
REMARK    5  A    between atoms: C_15  and  C_16
REMARK    6  A    between atoms: C_27  and  C_28
REMARK                            x       y       z     vdW  Elec       q    Type
REMARK                         _______ _______ _______ _____ _____    ______ ____
ROOT
ATOM      1  C   UNL     1       2.158   4.540  18.126  0.00  0.00    +0.000 A 
ATOM      2  C   UNL     1       1.152   3.888  18.855  0.00  0.00    +0.000 A 
ATOM      3  C   UNL     1       1.256   2.535  19.170  0.00  0.00    +0.000 A 
ATOM      4  C   UNL     1       2.381   1.824  18.775  0.00  0.00    +0.000 A 
ATOM      5  C   UNL     1       3.403   2.470  18.079  0.00  0.00    +0.000 A 
ATOM      6  C   UNL     1       3.303   3.827  17.706  0.00  0.00    +0.000 A 
ENDROOT
BRANCH   6   7
ATOM      7  C   UNL     1       4.401   4.463  16.964  0.00  0.00    +0.000 A 
ATOM      8  N   UNL     1       4.491   4.513  15.647  0.00  0.00    +0.000 NA
ATOM      9  N   UNL     1       5.625   5.202  15.309  0.00  0.00    +0.000 NA
ATOM     10  C   UNL     1       6.243   5.560  16.417  0.00  0.00    +0.000 A 
ATOM     11  N   UNL     1       5.508   5.112  17.490  0.00  0.00    +0.000 N 
ATOM     12  C   UNL     1       5.825   5.304  18.892  0.00  0.00    +0.000 C 
ATOM     13  C   UNL     1       7.303   5.205  19.248  0.00  0.00    +0.000 C 
ATOM     14  C   UNL     1       8.101   6.473  18.953  0.00  0.00    +0.000 C 
ATOM     15  C   UNL     1       7.705   7.215  17.676  0.00  0.00    +0.000 C 
ATOM     16  C   UNL     1       7.543   6.296  16.470  0.00  0.00    +0.000 C 
ENDBRANCH   6   7
BRANCH   1  17
ATOM     17  N   UNL     1       1.914   5.918  17.828  0.00  0.00    +0.000 N 
ATOM     18  H   UNL     1       0.925   6.188  17.812  0.00  0.00    +0.000 HD
BRANCH  17  19
ATOM     19  S   UNL     1       2.802   7.093  18.667  0.00  0.00    +0.000 S 
ATOM     20  O   UNL     1       3.790   7.686  17.781  0.00  0.00    +0.000 OA
ATOM     21  O   UNL     1       3.195   6.503  19.935  0.00  0.00    +0.000 OA
BRANCH  19  26
ATOM     22  C   UNL     1      -1.350  11.346  19.951  0.00  0.00    +0.000 C 
ATOM     23  C   UNL     1      -0.333  10.282  19.644  0.00  0.00    +0.000 A 
ATOM     24  C   UNL     1       0.100  10.098  18.317  0.00  0.00    +0.000 A 
ATOM     25  C   UNL     1       1.053   9.130  17.999  0.00  0.00    +0.000 A 
ATOM     26  C   UNL     1       1.587   8.349  19.022  0.00  0.00    +0.000 A 
ATOM     27  C   UNL     1       1.146   8.493  20.340  0.00  0.00    +0.000 A 
ATOM     28  C   UNL     1       0.191   9.463  20.664  0.00  0.00    +0.000 A 
ATOM     29  C   UNL     1      -0.250   9.602  22.097  0.00  0.00    +0.000 C 
ENDBRANCH  19  26
ENDBRANCH  17  19
ENDBRANCH   1  17
TORSDOF 4
ENDMDL
MODEL 8
REMARK VINA RESULT:      -7.6      3.982      9.582
REMARK  Name = 
REMARK  6 active torsions:
REMARK  status: ('A' for Active; 'I' for Inactive)
REMARK    1  A    between atoms: C_1  and  C_2
REMARK    2  A    between atoms: C_5  and  S_6
REMARK    3  A    between atoms: S_6  and  N_9
REMARK    4  A    between atoms: N_9  and  C_10
REMARK    5  A    between atoms: C_15  and  C_16
REMARK    6  A    between atoms: C_27  and  C_28
REMARK                            x       y       z     vdW  Elec       q    Type
REMARK                         _______ _______ _______ _____ _____    ______ ____
ROOT
ATOM      1  C   UNL     1      -0.179  10.676  19.379  0.00  0.00    +0.000 A 
ATOM      2  C   UNL     1      -0.507   9.904  18.255  0.00  0.00    +0.000 A 
ATOM      3  C   UNL     1      -1.647  10.177  17.505  0.00  0.00    +0.000 A 
ATOM      4  C   UNL     1      -2.463  11.243  17.860  0.00  0.00    +0.000 A 
ATOM      5  C   UNL     1      -2.129  12.039  18.956  0.00  0.00    +0.000 A 
ATOM      6  C   UNL     1      -1.006  11.757  19.761  0.00  0.00    +0.000 A 
ENDROOT
BRANCH   6   7
ATOM      7  C   UNL     1      -0.698  12.617  20.914  0.00  0.00    +0.000 A 
ATOM      8  N   UNL     1       0.464  13.208  21.124  0.00  0.00    +0.000 NA
ATOM      9  N   UNL     1       0.381  13.946  22.274  0.00  0.00    +0.000 NA
ATOM     10  C   UNL     1      -0.826  13.795  22.783  0.00  0.00    +0.000 A 
ATOM     11  N   UNL     1      -1.544  12.959  21.959  0.00  0.00    +0.000 N 
ATOM     12  C   UNL     1      -2.920  12.541  22.143  0.00  0.00    +0.000 C 
ATOM     13  C   UNL     1      -3.333  12.265  23.583  0.00  0.00    +0.000 C 
ATOM     14  C   UNL     1      -3.667  13.520  24.386  0.00  0.00    +0.000 C 
ATOM     15  C   UNL     1      -2.786  14.737  24.098  0.00  0.00    +0.000 C 
ATOM     16  C   UNL     1      -1.297  14.408  24.061  0.00  0.00    +0.000 C 
ENDBRANCH   6   7
BRANCH   1  17
ATOM     17  N   UNL     1       0.993  10.268  20.093  0.00  0.00    +0.000 N 
ATOM     18  H   UNL     1       1.548  11.035  20.484  0.00  0.00    +0.000 HD
BRANCH  17  19
ATOM     19  S   UNL     1       0.844   9.036  21.247  0.00  0.00    +0.000 S 
ATOM     20  O   UNL     1      -0.561   8.725  21.454  0.00  0.00    +0.000 OA
ATOM     21  O   UNL     1       1.702   9.394  22.364  0.00  0.00    +0.000 OA
BRANCH  19  26
ATOM     22  C   UNL     1       3.390   4.283  18.436  0.00  0.00    +0.000 C 
ATOM     23  C   UNL     1       2.755   5.465  19.114  0.00  0.00    +0.000 A 
ATOM     24  C   UNL     1       1.972   5.265  20.268  0.00  0.00    +0.000 A 
ATOM     25  C   UNL     1       1.380   6.340  20.930  0.00  0.00    +0.000 A 
ATOM     26  C   UNL     1       1.586   7.629  20.441  0.00  0.00    +0.000 A 
ATOM     27  C   UNL     1       2.330   7.845  19.279  0.00  0.00    +0.000 A 
ATOM     28  C   UNL     1       2.927   6.769  18.611  0.00  0.00    +0.000 A 
ATOM     29  C   UNL     1       3.737   7.040  17.371  0.00  0.00    +0.000 C 
ENDBRANCH  19  26
ENDBRANCH  17  19
ENDBRANCH   1  17
TORSDOF 4
ENDMDL
MODEL 9
REMARK VINA RESULT:      -7.4      1.902      7.057
REMARK  Name = 
REMARK  6 active torsions:
REMARK  status: ('A' for Active; 'I' for Inactive)
REMARK    1  A    between atoms: C_1  and  C_2
REMARK    2  A    between atoms: C_5  and  S_6
REMARK    3  A    between atoms: S_6  and  N_9
REMARK    4  A    between atoms: N_9  and  C_10
REMARK    5  A    between atoms: C_15  and  C_16
REMARK    6  A    between atoms: C_27  and  C_28
REMARK                            x       y       z     vdW  Elec       q    Type
REMARK                         _______ _______ _______ _____ _____    ______ ____
ROOT
ATOM      1  C   UNL     1       3.578   3.939  19.630  0.00  0.00    +0.000 A 
ATOM      2  C   UNL     1       3.599   2.729  20.339  0.00  0.00    +0.000 A 
ATOM      3  C   UNL     1       2.781   2.534  21.449  0.00  0.00    +0.000 A 
ATOM      4  C   UNL     1       1.917   3.544  21.850  0.00  0.00    +0.000 A 
ATOM      5  C   UNL     1       1.863   4.739  21.132  0.00  0.00    +0.000 A 
ATOM      6  C   UNL     1       2.712   4.981  20.032  0.00  0.00    +0.000 A 
ENDROOT
BRANCH   6   7
ATOM      7  C   UNL     1       2.629   6.260  19.312  0.00  0.00    +0.000 A 
ATOM      8  N   UNL     1       3.202   6.509  18.148  0.00  0.00    +0.000 NA
ATOM      9  N   UNL     1       2.890   7.787  17.768  0.00  0.00    +0.000 NA
ATOM     10  C   UNL     1       2.142   8.332  18.706  0.00  0.00    +0.000 A 
ATOM     11  N   UNL     1       1.952   7.406  19.705  0.00  0.00    +0.000 N 
ATOM     12  C   UNL     1       1.178   7.591  20.918  0.00  0.00    +0.000 C 
ATOM     13  C   UNL     1       1.283   8.971  21.556  0.00  0.00    +0.000 C 
ATOM     14  C   UNL     1       0.401  10.029  20.898  0.00  0.00    +0.000 C 
ATOM     15  C   UNL     1       0.286   9.935  19.376  0.00  0.00    +0.000 C 
ATOM     16  C   UNL     1       1.630   9.736  18.682  0.00  0.00    +0.000 C 
ENDBRANCH   6   7
BRANCH   1  17
ATOM     17  N   UNL     1       4.496   4.033  18.535  0.00  0.00    +0.000 N 
ATOM     18  H   UNL     1       5.475   3.849  18.776  0.00  0.00    +0.000 HD
BRANCH  17  19
ATOM     19  S   UNL     1       4.112   3.231  17.092  0.00  0.00    +0.000 S 
ATOM     20  O   UNL     1       2.786   3.628  16.649  0.00  0.00    +0.000 OA
ATOM     21  O   UNL     1       4.449   1.831  17.281  0.00  0.00    +0.000 OA
BRANCH  19  26
ATOM     22  C   UNL     1       8.082   5.469  13.066  0.00  0.00    +0.000 C 
ATOM     23  C   UNL     1       7.104   4.898  14.055  0.00  0.00    +0.000 A 
ATOM     24  C   UNL     1       7.137   5.334  15.394  0.00  0.00    +0.000 A 
ATOM     25  C   UNL     1       6.235   4.836  16.334  0.00  0.00    +0.000 A 
ATOM     26  C   UNL     1       5.282   3.904  15.927  0.00  0.00    +0.000 A 
ATOM     27  C   UNL     1       5.255   3.434  14.612  0.00  0.00    +0.000 A 
ATOM     28  C   UNL     1       6.158   3.931  13.664  0.00  0.00    +0.000 A 
ATOM     29  C   UNL     1       6.089   3.414  12.251  0.00  0.00    +0.000 C 
ENDBRANCH  19  26
ENDBRANCH  17  19
ENDBRANCH   1  17
TORSDOF 4
ENDMDL
