MODEL 1
REMARK VINA RESULT:      -8.2      0.000      0.000
REMARK  Name = 
REMARK  5 active torsions:
REMARK  status: ('A' for Active; 'I' for Inactive)
REMARK    1  A    between atoms: C_2  and  C_3
REMARK    2  A    between atoms: C_3  and  C_4
REMARK    3  A    between atoms: C_7  and  C_8
REMARK    4  A    between atoms: C_11  and  C_12
REMARK    5  A    between atoms: N_19  and  C_20
REMARK                            x       y       z     vdW  Elec       q    Type
REMARK                         _______ _______ _______ _____ _____    ______ ____
ROOT
ATOM      1  O   UNL     1       1.603   8.902  19.982  0.00  0.00    +0.000 OA
ATOM      2  C   UNL     1       1.418   8.915  18.769  0.00  0.00    +0.000 C 
ATOM      3  N   UNL     1       2.105   8.148  17.834  0.00  0.00    +0.000 N 
ATOM      4  H   UNL     1       1.782   8.229  16.878  0.00  0.00    +0.000 HD
ENDROOT
BRANCH   3   5
ATOM      5  C   UNL     1       3.132   7.212  18.075  0.00  0.00    +0.000 A 
ATOM      6  C   UNL     1       3.067   6.216  19.054  0.00  0.00    +0.000 A 
ATOM      7  C   UNL     1       4.126   5.320  19.235  0.00  0.00    +0.000 A 
ATOM      8  C   UNL     1       5.248   5.397  18.422  0.00  0.00    +0.000 A 
ATOM      9  C   UNL     1       5.302   6.362  17.408  0.00  0.00    +0.000 A 
ATOM     10  C   UNL     1       4.273   7.295  17.262  0.00  0.00    +0.000 A 
ATOM     11  N   UNL     1       6.312   6.291  16.436  0.00  0.00    +0.000 N 
ATOM     12  C   UNL     1       7.140   5.191  16.443  0.00  0.00    +0.000 C 
ATOM     13  O   UNL     1       7.651   4.736  15.427  0.00  0.00    +0.000 OA
ATOM     14  C   UNL     1       7.392   4.680  17.854  0.00  0.00    +0.000 C 
ATOM     15  O   UNL     1       6.217   4.447  18.621  0.00  0.00    +0.000 OA
ATOM     16  H   UNL     1       6.226   6.803  15.569  0.00  0.00    +0.000 HD
ENDBRANCH   3   5
BRANCH   2  17
ATOM     17  C   UNL     1       0.375   9.830  18.160  0.00  0.00    +0.000 C 
BRANCH  17  18
ATOM     18  C   UNL     1       0.049  10.990  19.036  0.00  0.00    +0.000 A 
ATOM     19  C   UNL     1       0.800  12.141  19.207  0.00  0.00    +0.000 A 
ATOM     20  S   UNL     1       0.014  13.208  20.283  0.00  0.00    +0.000 S 
ATOM     21  C   UNL     1      -1.288  12.089  20.451  0.00  0.00    +0.000 A 
ATOM     22  N   UNL     1      -1.136  10.971  19.763  0.00  0.00    +0.000 NA
BRANCH  21  23
ATOM     23  C   UNL     1      -2.475  12.408  21.266  0.00  0.00    +0.000 A 
ATOM     24  C   UNL     1      -3.661  12.799  20.624  0.00  0.00    +0.000 A 
ATOM     25  C   UNL     1      -4.810  13.119  21.356  0.00  0.00    +0.000 A 
ATOM     26  C   UNL     1      -4.806  13.041  22.754  0.00  0.00    +0.000 A 
ATOM     27  C   UNL     1      -3.629  12.643  23.403  0.00  0.00    +0.000 A 
ATOM     28  C   UNL     1      -2.478  12.330  22.668  0.00  0.00    +0.000 A 
BRANCH  26  29
ATOM     29  C   UNL     1      -6.037  13.375  23.564  0.00  0.00    +0.000 C 
ATOM     30  F   UNL     1      -7.186  13.378  22.829  0.00  0.00    +0.000 F 
ATOM     31  F   UNL     1      -6.247  12.496  24.580  0.00  0.00    +0.000 F 
ATOM     32  F   UNL     1      -5.962  14.604  24.142  0.00  0.00    +0.000 F 
ENDBRANCH  26  29
ENDBRANCH  21  23
ENDBRANCH  17  18
ENDBRANCH   2  17
TORSDOF 5
ENDMDL
MODEL 2
REMARK VINA RESULT:      -8.2      2.483      3.694
REMARK  Name = 
REMARK  5 active torsions:
REMARK  status: ('A' for Active; 'I' for Inactive)
REMARK    1  A    between atoms: C_2  and  C_3
REMARK    2  A    between atoms: C_3  and  C_4
REMARK    3  A    between atoms: C_7  and  C_8
REMARK    4  A    between atoms: C_11  and  C_12
REMARK    5  A    between atoms: N_19  and  C_20
REMARK                            x       y       z     vdW  Elec       q    Type
REMARK                         _______ _______ _______ _____ _____    ______ ____
ROOT
ATOM      1  O   UNL     1       1.614   8.572  19.752  0.00  0.00    +0.000 OA
ATOM      2  C   UNL     1       1.936   8.735  18.579  0.00  0.00    +0.000 C 
ATOM      3  N   UNL     1       2.746   7.886  17.833  0.00  0.00    +0.000 N 
ATOM      4  H   UNL     1       2.856   8.131  16.857  0.00  0.00    +0.000 HD
ENDROOT
BRANCH   3   5
ATOM      5  C   UNL     1       3.352   6.684  18.253  0.00  0.00    +0.000 A 
ATOM      6  C   UNL     1       4.702   6.379  18.049  0.00  0.00    +0.000 A 
ATOM      7  C   UNL     1       5.236   5.165  18.495  0.00  0.00    +0.000 A 
ATOM      8  C   UNL     1       4.430   4.258  19.172  0.00  0.00    +0.000 A 
ATOM      9  C   UNL     1       3.089   4.577  19.421  0.00  0.00    +0.000 A 
ATOM     10  C   UNL     1       2.538   5.761  18.926  0.00  0.00    +0.000 A 
ATOM     11  N   UNL     1       2.341   3.784  20.306  0.00  0.00    +0.000 N 
ATOM     12  C   UNL     1       2.999   2.793  20.999  0.00  0.00    +0.000 C 
ATOM     13  O   UNL     1       2.657   2.424  22.116  0.00  0.00    +0.000 OA
ATOM     14  C   UNL     1       4.125   2.179  20.180  0.00  0.00    +0.000 C 
ATOM     15  O   UNL     1       5.040   3.118  19.631  0.00  0.00    +0.000 OA
ATOM     16  H   UNL     1       1.476   4.130  20.696  0.00  0.00    +0.000 HD
ENDBRANCH   3   5
BRANCH   2  17
ATOM     17  C   UNL     1       1.456   9.951  17.813  0.00  0.00    +0.000 C 
BRANCH  17  18
ATOM     18  C   UNL     1       0.548  10.815  18.619  0.00  0.00    +0.000 A 
ATOM     19  C   UNL     1       0.916  11.734  19.587  0.00  0.00    +0.000 A 
ATOM     20  S   UNL     1      -0.465  12.514  20.220  0.00  0.00    +0.000 S 
ATOM     21  C   UNL     1      -1.473  11.598  19.161  0.00  0.00    +0.000 A 
ATOM     22  N   UNL     1      -0.822  10.741  18.395  0.00  0.00    +0.000 NA
BRANCH  21  23
ATOM     23  C   UNL     1      -2.931  11.816  19.111  0.00  0.00    +0.000 A 
ATOM     24  C   UNL     1      -3.540  12.600  20.104  0.00  0.00    +0.000 A 
ATOM     25  C   UNL     1      -4.921  12.828  20.102  0.00  0.00    +0.000 A 
ATOM     26  C   UNL     1      -5.730  12.286  19.095  0.00  0.00    +0.000 A 
ATOM     27  C   UNL     1      -5.128  11.509  18.095  0.00  0.00    +0.000 A 
ATOM     28  C   UNL     1      -3.747  11.277  18.104  0.00  0.00    +0.000 A 
BRANCH  26  29
ATOM     29  C   UNL     1      -7.221  12.524  19.069  0.00  0.00    +0.000 C 
ATOM     30  F   UNL     1      -7.595  13.690  19.672  0.00  0.00    +0.000 F 
ATOM     31  F   UNL     1      -7.718  12.582  17.805  0.00  0.00    +0.000 F 
ATOM     32  F   UNL     1      -7.916  11.540  19.700  0.00  0.00    +0.000 F 
ENDBRANCH  26  29
ENDBRANCH  21  23
ENDBRANCH  17  18
ENDBRANCH   2  17
TORSDOF 5
ENDMDL
MODEL 3
REMARK VINA RESULT:      -8.2      6.356     10.784
REMARK  Name = 
REMARK  5 active torsions:
REMARK  status: ('A' for Active; 'I' for Inactive)
REMARK    1  A    between atoms: C_2  and  C_3
REMARK    2  A    between atoms: C_3  and  C_4
REMARK    3  A    between atoms: C_7  and  C_8
REMARK    4  A    between atoms: C_11  and  C_12
REMARK    5  A    between atoms: N_19  and  C_20
REMARK                            x       y       z     vdW  Elec       q    Type
REMARK                         _______ _______ _______ _____ _____    ______ ____
ROOT
ATOM      1  O   UNL     1      -0.467  13.668  18.206  0.00  0.00    +0.000 OA
ATOM      2  C   UNL     1      -0.236  12.490  18.462  0.00  0.00    +0.000 C 
ATOM      3  N   UNL     1      -1.174  11.464  18.486  0.00  0.00    +0.000 N 
ATOM      4  H   UNL     1      -0.804  10.535  18.648  0.00  0.00    +0.000 HD
ENDROOT
BRANCH   3   5
ATOM      5  C   UNL     1      -2.557  11.554  18.225  0.00  0.00    +0.000 A 
ATOM      6  C   UNL     1      -3.140  11.242  16.992  0.00  0.00    +0.000 A 
ATOM      7  C   UNL     1      -4.522  11.355  16.807  0.00  0.00    +0.000 A 
ATOM      8  C   UNL     1      -5.335  11.757  17.859  0.00  0.00    +0.000 A 
ATOM      9  C   UNL     1      -4.764  12.026  19.109  0.00  0.00    +0.000 A 
ATOM     10  C   UNL     1      -3.379  11.971  19.283  0.00  0.00    +0.000 A 
ATOM     11  N   UNL     1      -5.594  12.193  20.229  0.00  0.00    +0.000 N 
ATOM     12  C   UNL     1      -6.941  11.955  20.075  0.00  0.00    +0.000 C 
ATOM     13  O   UNL     1      -7.651  11.540  20.984  0.00  0.00    +0.000 OA
ATOM     14  C   UNL     1      -7.432  12.343  18.688  0.00  0.00    +0.000 C 
ATOM     15  O   UNL     1      -6.684  11.785  17.616  0.00  0.00    +0.000 OA
ATOM     16  H   UNL     1      -5.213  12.131  21.162  0.00  0.00    +0.000 HD
ENDBRANCH   3   5
BRANCH   2  17
ATOM     17  C   UNL     1       1.171  12.039  18.803  0.00  0.00    +0.000 C 
BRANCH  17  18
ATOM     18  C   UNL     1       1.191  10.799  19.627  0.00  0.00    +0.000 A 
ATOM     19  C   UNL     1       0.789  10.670  20.947  0.00  0.00    +0.000 A 
ATOM     20  S   UNL     1       0.961   9.052  21.463  0.00  0.00    +0.000 S 
ATOM     21  C   UNL     1       1.546   8.610  19.902  0.00  0.00    +0.000 A 
ATOM     22  N   UNL     1       1.632   9.614  19.048  0.00  0.00    +0.000 NA
BRANCH  21  23
ATOM     23  C   UNL     1       1.868   7.209  19.571  0.00  0.00    +0.000 A 
ATOM     24  C   UNL     1       1.639   6.209  20.530  0.00  0.00    +0.000 A 
ATOM     25  C   UNL     1       1.936   4.868  20.264  0.00  0.00    +0.000 A 
ATOM     26  C   UNL     1       2.460   4.489  19.022  0.00  0.00    +0.000 A 
ATOM     27  C   UNL     1       2.683   5.479  18.056  0.00  0.00    +0.000 A 
ATOM     28  C   UNL     1       2.391   6.822  18.327  0.00  0.00    +0.000 A 
BRANCH  26  29
ATOM     29  C   UNL     1       2.782   3.046  18.710  0.00  0.00    +0.000 C 
ATOM     30  F   UNL     1       2.074   2.547  17.656  0.00  0.00    +0.000 F 
ATOM     31  F   UNL     1       4.093   2.859  18.401  0.00  0.00    +0.000 F 
ATOM     32  F   UNL     1       2.522   2.217  19.757  0.00  0.00    +0.000 F 
ENDBRANCH  26  29
ENDBRANCH  21  23
ENDBRANCH  17  18
ENDBRANCH   2  17
TORSDOF 5
ENDMDL
MODEL 4
REMARK VINA RESULT:      -8.2      7.850     10.362
REMARK  Name = 
REMARK  5 active torsions:
REMARK  status: ('A' for Active; 'I' for Inactive)
REMARK    1  A    between atoms: C_2  and  C_3
REMARK    2  A    between atoms: C_3  and  C_4
REMARK    3  A    between atoms: C_7  and  C_8
REMARK    4  A    between atoms: C_11  and  C_12
REMARK    5  A    between atoms: N_19  and  C_20
REMARK                            x       y       z     vdW  Elec       q    Type
REMARK                         _______ _______ _______ _____ _____    ______ ____
ROOT
ATOM      1  O   UNL     1       7.545   9.537  17.656  0.00  0.00    +0.000 OA
ATOM      2  C   UNL     1       8.386   9.032  18.394  0.00  0.00    +0.000 C 
ATOM      3  N   UNL     1       9.266   9.725  19.218  0.00  0.00    +0.000 N 
ATOM      4  H   UNL     1       9.849   9.153  19.816  0.00  0.00    +0.000 HD
ENDROOT
BRANCH   3   5
ATOM      5  C   UNL     1       9.375  11.122  19.380  0.00  0.00    +0.000 A 
ATOM      6  C   UNL     1       9.303  11.772  20.617  0.00  0.00    +0.000 A 
ATOM      7  C   UNL     1       9.421  13.163  20.700  0.00  0.00    +0.000 A 
ATOM      8  C   UNL     1       9.637  13.913  19.552  0.00  0.00    +0.000 A 
ATOM      9  C   UNL     1       9.757  13.266  18.316  0.00  0.00    +0.000 A 
ATOM     10  C   UNL     1       9.581  11.884  18.220  0.00  0.00    +0.000 A 
ATOM     11  N   UNL     1      10.214  13.983  17.199  0.00  0.00    +0.000 N 
ATOM     12  C   UNL     1      10.653  15.273  17.395  0.00  0.00    +0.000 C 
ATOM     13  O   UNL     1      11.525  15.790  16.708  0.00  0.00    +0.000 OA
ATOM     14  C   UNL     1       9.873  15.977  18.495  0.00  0.00    +0.000 C 
ATOM     15  O   UNL     1       9.803  15.264  19.723  0.00  0.00    +0.000 OA
ATOM     16  H   UNL     1      10.549  13.496  16.380  0.00  0.00    +0.000 HD
ENDBRANCH   3   5
BRANCH   2  17
ATOM     17  C   UNL     1       8.546   7.526  18.459  0.00  0.00    +0.000 C 
BRANCH  17  18
ATOM     18  C   UNL     1       7.458   6.803  17.744  0.00  0.00    +0.000 A 
ATOM     19  C   UNL     1       7.365   6.575  16.381  0.00  0.00    +0.000 A 
ATOM     20  S   UNL     1       5.959   5.673  16.025  0.00  0.00    +0.000 S 
ATOM     21  C   UNL     1       5.560   5.622  17.702  0.00  0.00    +0.000 A 
ATOM     22  N   UNL     1       6.412   6.261  18.484  0.00  0.00    +0.000 NA
BRANCH  21  23
ATOM     23  C   UNL     1       4.383   4.879  18.189  0.00  0.00    +0.000 A 
ATOM     24  C   UNL     1       3.099   5.330  17.846  0.00  0.00    +0.000 A 
ATOM     25  C   UNL     1       1.953   4.661  18.291  0.00  0.00    +0.000 A 
ATOM     26  C   UNL     1       2.063   3.511  19.082  0.00  0.00    +0.000 A 
ATOM     27  C   UNL     1       3.342   3.048  19.422  0.00  0.00    +0.000 A 
ATOM     28  C   UNL     1       4.487   3.724  18.981  0.00  0.00    +0.000 A 
BRANCH  26  29
ATOM     29  C   UNL     1       0.840   2.769  19.568  0.00  0.00    +0.000 C 
ATOM     30  F   UNL     1      -0.102   3.583  20.128  0.00  0.00    +0.000 F 
ATOM     31  F   UNL     1       0.207   2.097  18.570  0.00  0.00    +0.000 F 
ATOM     32  F   UNL     1       1.137   1.840  20.515  0.00  0.00    +0.000 F 
ENDBRANCH  26  29
ENDBRANCH  21  23
ENDBRANCH  17  18
ENDBRANCH   2  17
TORSDOF 5
ENDMDL
MODEL 5
REMARK VINA RESULT:      -8.2      6.759     11.580
REMARK  Name = 
REMARK  5 active torsions:
REMARK  status: ('A' for Active; 'I' for Inactive)
REMARK    1  A    between atoms: C_2  and  C_3
REMARK    2  A    between atoms: C_3  and  C_4
REMARK    3  A    between atoms: C_7  and  C_8
REMARK    4  A    between atoms: C_11  and  C_12
REMARK    5  A    between atoms: N_19  and  C_20
REMARK                            x       y       z     vdW  Elec       q    Type
REMARK                         _______ _______ _______ _____ _____    ______ ____
ROOT
ATOM      1  O   UNL     1       0.913  10.939  18.549  0.00  0.00    +0.000 OA
ATOM      2  C   UNL     1       0.415  10.294  19.466  0.00  0.00    +0.000 C 
ATOM      3  N   UNL     1      -0.942  10.037  19.637  0.00  0.00    +0.000 N 
ATOM      4  H   UNL     1      -1.178   9.429  20.411  0.00  0.00    +0.000 HD
ENDROOT
BRANCH   3   5
ATOM      5  C   UNL     1      -2.007  10.449  18.811  0.00  0.00    +0.000 A 
ATOM      6  C   UNL     1      -2.294   9.882  17.565  0.00  0.00    +0.000 A 
ATOM      7  C   UNL     1      -3.371  10.343  16.801  0.00  0.00    +0.000 A 
ATOM      8  C   UNL     1      -4.185  11.358  17.286  0.00  0.00    +0.000 A 
ATOM      9  C   UNL     1      -3.933  11.899  18.553  0.00  0.00    +0.000 A 
ATOM     10  C   UNL     1      -2.825  11.483  19.295  0.00  0.00    +0.000 A 
ATOM     11  N   UNL     1      -4.884  12.743  19.149  0.00  0.00    +0.000 N 
ATOM     12  C   UNL     1      -6.094  12.902  18.512  0.00  0.00    +0.000 C 
ATOM     13  O   UNL     1      -7.139  13.122  19.115  0.00  0.00    +0.000 OA
ATOM     14  C   UNL     1      -5.951  12.851  16.998  0.00  0.00    +0.000 C 
ATOM     15  O   UNL     1      -5.255  11.713  16.506  0.00  0.00    +0.000 OA
ATOM     16  H   UNL     1      -4.850  12.934  20.140  0.00  0.00    +0.000 HD
ENDBRANCH   3   5
BRANCH   2  17
ATOM     17  C   UNL     1       1.290   9.703  20.554  0.00  0.00    +0.000 C 
BRANCH  17  18
ATOM     18  C   UNL     1       1.658   8.285  20.285  0.00  0.00    +0.000 A 
ATOM     19  C   UNL     1       1.223   7.167  20.977  0.00  0.00    +0.000 A 
ATOM     20  S   UNL     1       1.883   5.750  20.289  0.00  0.00    +0.000 S 
ATOM     21  C   UNL     1       2.697   6.699  19.101  0.00  0.00    +0.000 A 
ATOM     22  N   UNL     1       2.509   8.001  19.223  0.00  0.00    +0.000 NA
BRANCH  21  23
ATOM     23  C   UNL     1       3.489   6.071  18.028  0.00  0.00    +0.000 A 
ATOM     24  C   UNL     1       4.259   6.884  17.180  0.00  0.00    +0.000 A 
ATOM     25  C   UNL     1       5.021   6.333  16.144  0.00  0.00    +0.000 A 
ATOM     26  C   UNL     1       5.044   4.948  15.936  0.00  0.00    +0.000 A 
ATOM     27  C   UNL     1       4.285   4.129  16.783  0.00  0.00    +0.000 A 
ATOM     28  C   UNL     1       3.517   4.684  17.816  0.00  0.00    +0.000 A 
BRANCH  26  29
ATOM     29  C   UNL     1       5.864   4.332  14.828  0.00  0.00    +0.000 C 
ATOM     30  F   UNL     1       5.189   4.229  13.646  0.00  0.00    +0.000 F 
ATOM     31  F   UNL     1       6.990   5.044  14.554  0.00  0.00    +0.000 F 
ATOM     32  F   UNL     1       6.281   3.073  15.128  0.00  0.00    +0.000 F 
ENDBRANCH  26  29
ENDBRANCH  21  23
ENDBRANCH  17  18
ENDBRANCH   2  17
TORSDOF 5
ENDMDL
MODEL 6
REMARK VINA RESULT:      -8.1      1.736      2.665
REMARK  Name = 
REMARK  5 active torsions:
REMARK  status: ('A' for Active; 'I' for Inactive)
REMARK    1  A    between atoms: C_2  and  C_3
REMARK    2  A    between atoms: C_3  and  C_4
REMARK    3  A    between atoms: C_7  and  C_8
REMARK    4  A    between atoms: C_11  and  C_12
REMARK    5  A    between atoms: N_19  and  C_20
REMARK                            x       y       z     vdW  Elec       q    Type
REMARK                         _______ _______ _______ _____ _____    ______ ____
ROOT
ATOM      1  O   UNL     1       1.578   8.623  19.968  0.00  0.00    +0.000 OA
ATOM      2  C   UNL     1       1.687   8.750  18.752  0.00  0.00    +0.000 C 
ATOM      3  N   UNL     1       2.382   7.894  17.904  0.00  0.00    +0.000 N 
ATOM      4  H   UNL     1       2.315   8.106  16.916  0.00  0.00    +0.000 HD
ENDROOT
BRANCH   3   5
ATOM      5  C   UNL     1       3.090   6.725  18.251  0.00  0.00    +0.000 A 
ATOM      6  C   UNL     1       4.444   6.518  17.967  0.00  0.00    +0.000 A 
ATOM      7  C   UNL     1       5.080   5.330  18.344  0.00  0.00    +0.000 A 
ATOM      8  C   UNL     1       4.375   4.351  19.030  0.00  0.00    +0.000 A 
ATOM      9  C   UNL     1       3.031   4.570  19.360  0.00  0.00    +0.000 A 
ATOM     10  C   UNL     1       2.376   5.728  18.935  0.00  0.00    +0.000 A 
ATOM     11  N   UNL     1       2.386   3.702  20.255  0.00  0.00    +0.000 N 
ATOM     12  C   UNL     1       3.145   2.737  20.879  0.00  0.00    +0.000 C 
ATOM     13  O   UNL     1       2.890   2.312  22.000  0.00  0.00    +0.000 OA
ATOM     14  C   UNL     1       4.264   2.226  19.983  0.00  0.00    +0.000 C 
ATOM     15  O   UNL     1       5.083   3.242  19.418  0.00  0.00    +0.000 OA
ATOM     16  H   UNL     1       1.522   3.976  20.701  0.00  0.00    +0.000 HD
ENDBRANCH   3   5
BRANCH   2  17
ATOM     17  C   UNL     1       1.045   9.925  18.041  0.00  0.00    +0.000 C 
BRANCH  17  18
ATOM     18  C   UNL     1       0.644  11.011  18.978  0.00  0.00    +0.000 A 
ATOM     19  C   UNL     1       1.403  12.105  19.358  0.00  0.00    +0.000 A 
ATOM     20  S   UNL     1       0.516  13.102  20.424  0.00  0.00    +0.000 S 
ATOM     21  C   UNL     1      -0.832  12.032  20.311  0.00  0.00    +0.000 A 
ATOM     22  N   UNL     1      -0.627  10.978  19.541  0.00  0.00    +0.000 NA
BRANCH  21  23
ATOM     23  C   UNL     1      -2.106  12.327  20.993  0.00  0.00    +0.000 A 
ATOM     24  C   UNL     1      -3.227  12.682  20.226  0.00  0.00    +0.000 A 
ATOM     25  C   UNL     1      -4.454  12.977  20.830  0.00  0.00    +0.000 A 
ATOM     26  C   UNL     1      -4.596  12.913  22.222  0.00  0.00    +0.000 A 
ATOM     27  C   UNL     1      -3.484  12.551  22.994  0.00  0.00    +0.000 A 
ATOM     28  C   UNL     1      -2.254  12.262  22.388  0.00  0.00    +0.000 A 
BRANCH  26  29
ATOM     29  C   UNL     1      -5.912  13.221  22.895  0.00  0.00    +0.000 C 
ATOM     30  F   UNL     1      -6.826  12.213  22.788  0.00  0.00    +0.000 F 
ATOM     31  F   UNL     1      -5.775  13.459  24.226  0.00  0.00    +0.000 F 
ATOM     32  F   UNL     1      -6.515  14.325  22.377  0.00  0.00    +0.000 F 
ENDBRANCH  26  29
ENDBRANCH  21  23
ENDBRANCH  17  18
ENDBRANCH   2  17
TORSDOF 5
ENDMDL
MODEL 7
REMARK VINA RESULT:      -8.1      2.519      3.080
REMARK  Name = 
REMARK  5 active torsions:
REMARK  status: ('A' for Active; 'I' for Inactive)
REMARK    1  A    between atoms: C_2  and  C_3
REMARK    2  A    between atoms: C_3  and  C_4
REMARK    3  A    between atoms: C_7  and  C_8
REMARK    4  A    between atoms: C_11  and  C_12
REMARK    5  A    between atoms: N_19  and  C_20
REMARK                            x       y       z     vdW  Elec       q    Type
REMARK                         _______ _______ _______ _____ _____    ______ ____
ROOT
ATOM      1  O   UNL     1       1.785   8.641  17.708  0.00  0.00    +0.000 OA
ATOM      2  C   UNL     1       1.917   8.256  18.866  0.00  0.00    +0.000 C 
ATOM      3  N   UNL     1       2.544   7.080  19.265  0.00  0.00    +0.000 N 
ATOM      4  H   UNL     1       2.627   6.947  20.266  0.00  0.00    +0.000 HD
ENDROOT
BRANCH   3   5
ATOM      5  C   UNL     1       3.149   6.105  18.446  0.00  0.00    +0.000 A 
ATOM      6  C   UNL     1       2.594   4.848  18.189  0.00  0.00    +0.000 A 
ATOM      7  C   UNL     1       3.253   3.930  17.364  0.00  0.00    +0.000 A 
ATOM      8  C   UNL     1       4.459   4.273  16.768  0.00  0.00    +0.000 A 
ATOM      9  C   UNL     1       4.999   5.547  16.983  0.00  0.00    +0.000 A 
ATOM     10  C   UNL     1       4.375   6.444  17.853  0.00  0.00    +0.000 A 
ATOM     11  N   UNL     1       6.080   5.983  16.200  0.00  0.00    +0.000 N 
ATOM     12  C   UNL     1       6.486   5.183  15.156  0.00  0.00    +0.000 C 
ATOM     13  O   UNL     1       6.984   5.631  14.130  0.00  0.00    +0.000 OA
ATOM     14  C   UNL     1       6.312   3.705  15.472  0.00  0.00    +0.000 C 
ATOM     15  O   UNL     1       5.013   3.343  15.925  0.00  0.00    +0.000 OA
ATOM     16  H   UNL     1       6.315   6.965  16.155  0.00  0.00    +0.000 HD
ENDBRANCH   3   5
BRANCH   2  17
ATOM     17  C   UNL     1       1.364   9.075  20.015  0.00  0.00    +0.000 C 
BRANCH  17  18
ATOM     18  C   UNL     1       0.648  10.297  19.555  0.00  0.00    +0.000 A 
ATOM     19  C   UNL     1       1.217  11.467  19.079  0.00  0.00    +0.000 A 
ATOM     20  S   UNL     1       0.002  12.581  18.637  0.00  0.00    +0.000 S 
ATOM     21  C   UNL     1      -1.213  11.444  19.089  0.00  0.00    +0.000 A 
ATOM     22  N   UNL     1      -0.743  10.305  19.565  0.00  0.00    +0.000 NA
BRANCH  21  23
ATOM     23  C   UNL     1      -2.646  11.736  18.902  0.00  0.00    +0.000 A 
ATOM     24  C   UNL     1      -3.270  11.362  17.700  0.00  0.00    +0.000 A 
ATOM     25  C   UNL     1      -4.626  11.625  17.475  0.00  0.00    +0.000 A 
ATOM     26  C   UNL     1      -5.399  12.260  18.454  0.00  0.00    +0.000 A 
ATOM     27  C   UNL     1      -4.787  12.629  19.660  0.00  0.00    +0.000 A 
ATOM     28  C   UNL     1      -3.428  12.371  19.880  0.00  0.00    +0.000 A 
BRANCH  26  29
ATOM     29  C   UNL     1      -6.866  12.549  18.235  0.00  0.00    +0.000 C 
ATOM     30  F   UNL     1      -7.692  11.733  18.952  0.00  0.00    +0.000 F 
ATOM     31  F   UNL     1      -7.205  13.819  18.580  0.00  0.00    +0.000 F 
ATOM     32  F   UNL     1      -7.236  12.403  16.935  0.00  0.00    +0.000 F 
ENDBRANCH  26  29
ENDBRANCH  21  23
ENDBRANCH  17  18
ENDBRANCH   2  17
TORSDOF 5
ENDMDL
MODEL 8
REMARK VINA RESULT:      -8.0      2.127      3.145
REMARK  Name = 
REMARK  5 active torsions:
REMARK  status: ('A' for Active; 'I' for Inactive)
REMARK    1  A    between atoms: C_2  and  C_3
REMARK    2  A    between atoms: C_3  and  C_4
REMARK    3  A    between atoms: C_7  and  C_8
REMARK    4  A    between atoms: C_11  and  C_12
REMARK    5  A    between atoms: N_19  and  C_20
REMARK                            x       y       z     vdW  Elec       q    Type
REMARK                         _______ _______ _______ _____ _____    ______ ____
ROOT
ATOM      1  O   UNL     1       1.578   8.531  19.961  0.00  0.00    +0.000 OA
ATOM      2  C   UNL     1       1.734   8.696  18.755  0.00  0.00    +0.000 C 
ATOM      3  N   UNL     1       2.455   7.863  17.906  0.00  0.00    +0.000 N 
ATOM      4  H   UNL     1       2.426   8.107  16.924  0.00  0.00    +0.000 HD
ENDROOT
BRANCH   3   5
ATOM      5  C   UNL     1       3.143   6.679  18.241  0.00  0.00    +0.000 A 
ATOM      6  C   UNL     1       4.487   6.442  17.933  0.00  0.00    +0.000 A 
ATOM      7  C   UNL     1       5.103   5.241  18.299  0.00  0.00    +0.000 A 
ATOM      8  C   UNL     1       4.389   4.278  19.000  0.00  0.00    +0.000 A 
ATOM      9  C   UNL     1       3.057   4.527  19.354  0.00  0.00    +0.000 A 
ATOM     10  C   UNL     1       2.420   5.698  18.939  0.00  0.00    +0.000 A 
ATOM     11  N   UNL     1       2.410   3.674  20.262  0.00  0.00    +0.000 N 
ATOM     12  C   UNL     1       3.159   2.693  20.873  0.00  0.00    +0.000 C 
ATOM     13  O   UNL     1       2.915   2.274  21.998  0.00  0.00    +0.000 OA
ATOM     14  C   UNL     1       4.249   2.157  19.956  0.00  0.00    +0.000 C 
ATOM     15  O   UNL     1       5.080   3.154  19.376  0.00  0.00    +0.000 OA
ATOM     16  H   UNL     1       1.561   3.967  20.723  0.00  0.00    +0.000 HD
ENDBRANCH   3   5
BRANCH   2  17
ATOM     17  C   UNL     1       1.124   9.897  18.059  0.00  0.00    +0.000 C 
BRANCH  17  18
ATOM     18  C   UNL     1       1.078  11.102  18.933  0.00  0.00    +0.000 A 
ATOM     19  C   UNL     1       1.894  12.219  18.855  0.00  0.00    +0.000 A 
ATOM     20  S   UNL     1       1.449  13.362  20.043  0.00  0.00    +0.000 S 
ATOM     21  C   UNL     1       0.188  12.317  20.585  0.00  0.00    +0.000 A 
ATOM     22  N   UNL     1       0.116  11.169  19.934  0.00  0.00    +0.000 NA
BRANCH  21  23
ATOM     23  C   UNL     1      -0.740  12.725  21.655  0.00  0.00    +0.000 A 
ATOM     24  C   UNL     1      -0.503  13.925  22.346  0.00  0.00    +0.000 A 
ATOM     25  C   UNL     1      -1.353  14.349  23.374  0.00  0.00    +0.000 A 
ATOM     26  C   UNL     1      -2.473  13.587  23.731  0.00  0.00    +0.000 A 
ATOM     27  C   UNL     1      -2.721  12.393  23.041  0.00  0.00    +0.000 A 
ATOM     28  C   UNL     1      -1.865  11.967  22.016  0.00  0.00    +0.000 A 
BRANCH  26  29
ATOM     29  C   UNL     1      -3.406  14.029  24.833  0.00  0.00    +0.000 C 
ATOM     30  F   UNL     1      -4.368  14.901  24.412  0.00  0.00    +0.000 F 
ATOM     31  F   UNL     1      -4.071  12.988  25.402  0.00  0.00    +0.000 F 
ATOM     32  F   UNL     1      -2.754  14.656  25.848  0.00  0.00    +0.000 F 
ENDBRANCH  26  29
ENDBRANCH  21  23
ENDBRANCH  17  18
ENDBRANCH   2  17
TORSDOF 5
ENDMDL
MODEL 9
REMARK VINA RESULT:      -8.0      6.732     11.915
REMARK  Name = 
REMARK  5 active torsions:
REMARK  status: ('A' for Active; 'I' for Inactive)
REMARK    1  A    between atoms: C_2  and  C_3
REMARK    2  A    between atoms: C_3  and  C_4
REMARK    3  A    between atoms: C_7  and  C_8
REMARK    4  A    between atoms: C_11  and  C_12
REMARK    5  A    between atoms: N_19  and  C_20
REMARK                            x       y       z     vdW  Elec       q    Type
REMARK                         _______ _______ _______ _____ _____    ______ ____
ROOT
ATOM      1  O   UNL     1       1.379   9.780  23.141  0.00  0.00    +0.000 OA
ATOM      2  C   UNL     1       0.588   9.494  22.247  0.00  0.00    +0.000 C 
ATOM      3  N   UNL     1      -0.450  10.300  21.792  0.00  0.00    +0.000 N 
ATOM      4  H   UNL     1      -0.968   9.941  20.999  0.00  0.00    +0.000 HD
ENDROOT
BRANCH   3   5
ATOM      5  C   UNL     1      -0.805  11.586  22.247  0.00  0.00    +0.000 A 
ATOM      6  C   UNL     1      -0.059  12.740  21.983  0.00  0.00    +0.000 A 
ATOM      7  C   UNL     1      -0.474  13.986  22.467  0.00  0.00    +0.000 A 
ATOM      8  C   UNL     1      -1.651  14.091  23.197  0.00  0.00    +0.000 A 
ATOM      9  C   UNL     1      -2.428  12.948  23.425  0.00  0.00    +0.000 A 
ATOM     10  C   UNL     1      -1.988  11.694  22.995  0.00  0.00    +0.000 A 
ATOM     11  N   UNL     1      -3.725  13.084  23.943  0.00  0.00    +0.000 N 
ATOM     12  C   UNL     1      -4.234  14.355  24.087  0.00  0.00    +0.000 C 
ATOM     13  O   UNL     1      -5.430  14.607  23.993  0.00  0.00    +0.000 OA
ATOM     14  C   UNL     1      -3.153  15.363  24.447  0.00  0.00    +0.000 C 
ATOM     15  O   UNL     1      -2.022  15.354  23.584  0.00  0.00    +0.000 OA
ATOM     16  H   UNL     1      -4.386  12.322  23.876  0.00  0.00    +0.000 HD
ENDBRANCH   3   5
BRANCH   2  17
ATOM     17  C   UNL     1       0.680   8.158  21.538  0.00  0.00    +0.000 C 
BRANCH  17  18
ATOM     18  C   UNL     1       1.292   8.269  20.184  0.00  0.00    +0.000 A 
ATOM     19  C   UNL     1       1.128   9.305  19.279  0.00  0.00    +0.000 A 
ATOM     20  S   UNL     1       2.050   9.015  17.872  0.00  0.00    +0.000 S 
ATOM     21  C   UNL     1       2.628   7.537  18.549  0.00  0.00    +0.000 A 
ATOM     22  N   UNL     1       2.144   7.261  19.746  0.00  0.00    +0.000 NA
BRANCH  21  23
ATOM     23  C   UNL     1       3.615   6.702  17.839  0.00  0.00    +0.000 A 
ATOM     24  C   UNL     1       4.771   7.304  17.316  0.00  0.00    +0.000 A 
ATOM     25  C   UNL     1       5.732   6.553  16.630  0.00  0.00    +0.000 A 
ATOM     26  C   UNL     1       5.567   5.173  16.459  0.00  0.00    +0.000 A 
ATOM     27  C   UNL     1       4.420   4.563  16.985  0.00  0.00    +0.000 A 
ATOM     28  C   UNL     1       3.457   5.318  17.667  0.00  0.00    +0.000 A 
BRANCH  26  29
ATOM     29  C   UNL     1       6.594   4.342  15.727  0.00  0.00    +0.000 C 
ATOM     30  F   UNL     1       7.073   4.942  14.598  0.00  0.00    +0.000 F 
ATOM     31  F   UNL     1       7.683   4.066  16.492  0.00  0.00    +0.000 F 
ATOM     32  F   UNL     1       6.102   3.139  15.328  0.00  0.00    +0.000 F 
ENDBRANCH  26  29
ENDBRANCH  21  23
ENDBRANCH  17  18
ENDBRANCH   2  17
TORSDOF 5
ENDMDL
