MODEL 1
REMARK VINA RESULT:      -9.0      0.000      0.000
REMARK  Name = 
REMARK  4 active torsions:
REMARK  status: ('A' for Active; 'I' for Inactive)
REMARK    1  A    between atoms: C_2  and  C_15
REMARK    2  A    between atoms: C_6  and  C_7
REMARK    3  A    between atoms: C_19  and  S_20
REMARK    4  A    between atoms: S_20  and  N_23
REMARK                            x       y       z     vdW  Elec       q    Type
REMARK                         _______ _______ _______ _____ _____    ______ ____
ROOT
ATOM      1  O   UNL     1       1.850   8.772  19.086  0.00  0.00    +0.000 OA
ATOM      2  C   UNL     1       1.468   8.392  20.188  0.00  0.00    +0.000 C 
ATOM      3  N   UNL     1       1.695   7.170  20.782  0.00  0.00    +0.000 N 
ATOM      4  C   UNL     1       2.407   6.211  20.111  0.00  0.00    +0.000 A 
ATOM      5  N   UNL     1       3.134   6.358  19.039  0.00  0.00    +0.000 NA
ATOM      6  C   UNL     1       3.592   5.128  18.602  0.00  0.00    +0.000 A 
ATOM      7  C   UNL     1       3.211   4.059  19.396  0.00  0.00    +0.000 A 
ATOM      8  S   UNL     1       2.300   4.631  20.742  0.00  0.00    +0.000 S 
ATOM      9  H   UNL     1       1.207   6.881  21.615  0.00  0.00    +0.000 HD
ENDROOT
BRANCH   6  10
ATOM     10  C   UNL     1       4.399   5.014  17.384  0.00  0.00    +0.000 A 
ATOM     11  C   UNL     1       4.691   6.157  16.646  0.00  0.00    +0.000 A 
ATOM     12  C   UNL     1       5.455   6.032  15.490  0.00  0.00    +0.000 A 
ATOM     13  C   UNL     1       5.893   4.771  15.103  0.00  0.00    +0.000 A 
ATOM     14  C   UNL     1       5.551   3.687  15.896  0.00  0.00    +0.000 A 
ATOM     15  N   UNL     1       4.818   3.776  17.029  0.00  0.00    +0.000 NA
ENDBRANCH   6  10
BRANCH   2  16
ATOM     16  C   UNL     1       0.607   9.329  20.952  0.00  0.00    +0.000 A 
ATOM     17  C   UNL     1       0.538   9.158  22.343  0.00  0.00    +0.000 A 
ATOM     18  C   UNL     1      -0.287   9.976  23.114  0.00  0.00    +0.000 A 
ATOM     19  C   UNL     1      -1.058  10.961  22.497  0.00  0.00    +0.000 A 
ATOM     20  C   UNL     1      -1.007  11.116  21.105  0.00  0.00    +0.000 A 
ATOM     21  C   UNL     1      -0.159  10.316  20.326  0.00  0.00    +0.000 A 
BRANCH  20  22
ATOM     22  S   UNL     1      -1.933  12.439  20.327  0.00  0.00    +0.000 S 
ATOM     23  O   UNL     1      -2.924  12.880  21.280  0.00  0.00    +0.000 OA
ATOM     24  O   UNL     1      -0.950  13.359  19.789  0.00  0.00    +0.000 OA
BRANCH  22  25
ATOM     25  N   UNL     1      -2.736  11.683  19.012  0.00  0.00    +0.000 NA
ATOM     26  C   UNL     1      -4.204  11.909  18.960  0.00  0.00    +0.000 C 
ATOM     27  C   UNL     1      -4.873  11.143  17.825  0.00  0.00    +0.000 C 
ATOM     28  C   UNL     1      -4.178  11.409  16.500  0.00  0.00    +0.000 C 
ATOM     29  C   UNL     1      -2.726  10.977  16.614  0.00  0.00    +0.000 C 
ATOM     30  C   UNL     1      -2.011  11.748  17.718  0.00  0.00    +0.000 C 
ENDBRANCH  22  25
ENDBRANCH  20  22
ENDBRANCH   2  16
TORSDOF 4
ENDMDL
MODEL 2
REMARK VINA RESULT:      -8.8      3.191      9.792
REMARK  Name = 
REMARK  4 active torsions:
REMARK  status: ('A' for Active; 'I' for Inactive)
REMARK    1  A    between atoms: C_2  and  C_15
REMARK    2  A    between atoms: C_6  and  C_7
REMARK    3  A    between atoms: C_19  and  S_20
REMARK    4  A    between atoms: S_20  and  N_23
REMARK                            x       y       z     vdW  Elec       q    Type
REMARK                         _______ _______ _______ _____ _____    ______ ____
ROOT
ATOM      1  O   UNL     1       2.787   8.631  17.476  0.00  0.00    +0.000 OA
ATOM      2  C   UNL     1       2.726   7.648  18.207  0.00  0.00    +0.000 C 
ATOM      3  N   UNL     1       2.114   7.553  19.438  0.00  0.00    +0.000 N 
ATOM      4  C   UNL     1       1.499   8.651  19.977  0.00  0.00    +0.000 A 
ATOM      5  N   UNL     1       1.187   9.768  19.380  0.00  0.00    +0.000 NA
ATOM      6  C   UNL     1       0.687  10.675  20.297  0.00  0.00    +0.000 A 
ATOM      7  C   UNL     1       0.605  10.193  21.593  0.00  0.00    +0.000 A 
ATOM      8  S   UNL     1       1.124   8.551  21.637  0.00  0.00    +0.000 S 
ATOM      9  H   UNL     1       2.253   6.760  20.044  0.00  0.00    +0.000 HD
ENDROOT
BRANCH   6  10
ATOM     10  C   UNL     1       0.304  12.028  19.887  0.00  0.00    +0.000 A 
ATOM     11  C   UNL     1       0.339  13.063  20.817  0.00  0.00    +0.000 A 
ATOM     12  C   UNL     1      -0.031  14.341  20.413  0.00  0.00    +0.000 A 
ATOM     13  C   UNL     1      -0.433  14.543  19.098  0.00  0.00    +0.000 A 
ATOM     14  C   UNL     1      -0.442  13.455  18.241  0.00  0.00    +0.000 A 
ATOM     15  N   UNL     1      -0.080  12.202  18.600  0.00  0.00    +0.000 NA
ENDBRANCH   6  10
BRANCH   2  16
ATOM     16  C   UNL     1       3.447   6.434  17.750  0.00  0.00    +0.000 A 
ATOM     17  C   UNL     1       2.795   5.200  17.895  0.00  0.00    +0.000 A 
ATOM     18  C   UNL     1       3.434   4.018  17.527  0.00  0.00    +0.000 A 
ATOM     19  C   UNL     1       4.735   4.060  17.026  0.00  0.00    +0.000 A 
ATOM     20  C   UNL     1       5.395   5.290  16.904  0.00  0.00    +0.000 A 
ATOM     21  C   UNL     1       4.749   6.487  17.245  0.00  0.00    +0.000 A 
BRANCH  20  22
ATOM     22  S   UNL     1       7.033   5.348  16.178  0.00  0.00    +0.000 S 
ATOM     23  O   UNL     1       7.515   6.702  16.327  0.00  0.00    +0.000 OA
ATOM     24  O   UNL     1       7.764   4.228  16.736  0.00  0.00    +0.000 OA
BRANCH  22  25
ATOM     25  N   UNL     1       6.772   5.041  14.509  0.00  0.00    +0.000 NA
ATOM     26  C   UNL     1       7.897   5.426  13.617  0.00  0.00    +0.000 C 
ATOM     27  C   UNL     1       7.573   5.213  12.144  0.00  0.00    +0.000 C 
ATOM     28  C   UNL     1       7.064   3.803  11.893  0.00  0.00    +0.000 C 
ATOM     29  C   UNL     1       5.811   3.581  12.724  0.00  0.00    +0.000 C 
ATOM     30  C   UNL     1       6.103   3.751  14.210  0.00  0.00    +0.000 C 
ENDBRANCH  22  25
ENDBRANCH  20  22
ENDBRANCH   2  16
TORSDOF 4
ENDMDL
MODEL 3
REMARK VINA RESULT:      -8.7      1.117      1.309
REMARK  Name = 
REMARK  4 active torsions:
REMARK  status: ('A' for Active; 'I' for Inactive)
REMARK    1  A    between atoms: C_2  and  C_15
REMARK    2  A    between atoms: C_6  and  C_7
REMARK    3  A    between atoms: C_19  and  S_20
REMARK    4  A    between atoms: S_20  and  N_23
REMARK                            x       y       z     vdW  Elec       q    Type
REMARK                         _______ _______ _______ _____ _____    ______ ____
ROOT
ATOM      1  O   UNL     1       2.543   8.267  18.375  0.00  0.00    +0.000 OA
ATOM      2  C   UNL     1       2.166   7.848  19.465  0.00  0.00    +0.000 C 
ATOM      3  N   UNL     1       2.450   6.629  20.041  0.00  0.00    +0.000 N 
ATOM      4  C   UNL     1       3.222   5.723  19.365  0.00  0.00    +0.000 A 
ATOM      5  N   UNL     1       3.957   5.928  18.307  0.00  0.00    +0.000 NA
ATOM      6  C   UNL     1       4.487   4.733  17.856  0.00  0.00    +0.000 A 
ATOM      7  C   UNL     1       4.153   3.631  18.626  0.00  0.00    +0.000 A 
ATOM      8  S   UNL     1       3.192   4.128  19.966  0.00  0.00    +0.000 S 
ATOM      9  H   UNL     1       1.966   6.300  20.861  0.00  0.00    +0.000 HD
ENDROOT
BRANCH   6  10
ATOM     10  C   UNL     1       5.317   4.684  16.650  0.00  0.00    +0.000 A 
ATOM     11  C   UNL     1       4.755   4.264  15.448  0.00  0.00    +0.000 A 
ATOM     12  C   UNL     1       5.557   4.220  14.312  0.00  0.00    +0.000 A 
ATOM     13  C   UNL     1       6.893   4.587  14.414  0.00  0.00    +0.000 A 
ATOM     14  C   UNL     1       7.370   4.989  15.651  0.00  0.00    +0.000 A 
ATOM     15  N   UNL     1       6.615   5.051  16.772  0.00  0.00    +0.000 NA
ENDBRANCH   6  10
BRANCH   2  16
ATOM     16  C   UNL     1       1.244   8.723  20.230  0.00  0.00    +0.000 A 
ATOM     17  C   UNL     1       1.033   8.417  21.583  0.00  0.00    +0.000 A 
ATOM     18  C   UNL     1       0.144   9.172  22.347  0.00  0.00    +0.000 A 
ATOM     19  C   UNL     1      -0.549  10.229  21.760  0.00  0.00    +0.000 A 
ATOM     20  C   UNL     1      -0.357  10.521  20.403  0.00  0.00    +0.000 A 
ATOM     21  C   UNL     1       0.556   9.784  19.635  0.00  0.00    +0.000 A 
BRANCH  20  22
ATOM     22  S   UNL     1      -1.184  11.935  19.675  0.00  0.00    +0.000 S 
ATOM     23  O   UNL     1      -1.847  12.637  20.749  0.00  0.00    +0.000 OA
ATOM     24  O   UNL     1      -0.198  12.597  18.843  0.00  0.00    +0.000 OA
BRANCH  22  25
ATOM     25  N   UNL     1      -2.378  11.250  18.649  0.00  0.00    +0.000 NA
ATOM     26  C   UNL     1      -3.711  11.905  18.714  0.00  0.00    +0.000 C 
ATOM     27  C   UNL     1      -4.750  11.200  17.851  0.00  0.00    +0.000 C 
ATOM     28  C   UNL     1      -4.245  11.008  16.431  0.00  0.00    +0.000 C 
ATOM     29  C   UNL     1      -2.974  10.176  16.472  0.00  0.00    +0.000 C 
ATOM     30  C   UNL     1      -1.895  10.867  17.299  0.00  0.00    +0.000 C 
ENDBRANCH  22  25
ENDBRANCH  20  22
ENDBRANCH   2  16
TORSDOF 4
ENDMDL
MODEL 4
REMARK VINA RESULT:      -8.4      0.703      1.244
REMARK  Name = 
REMARK  4 active torsions:
REMARK  status: ('A' for Active; 'I' for Inactive)
REMARK    1  A    between atoms: C_2  and  C_15
REMARK    2  A    between atoms: C_6  and  C_7
REMARK    3  A    between atoms: C_19  and  S_20
REMARK    4  A    between atoms: S_20  and  N_23
REMARK                            x       y       z     vdW  Elec       q    Type
REMARK                         _______ _______ _______ _____ _____    ______ ____
ROOT
ATOM      1  O   UNL     1       1.833   8.865  19.102  0.00  0.00    +0.000 OA
ATOM      2  C   UNL     1       1.437   8.495  20.202  0.00  0.00    +0.000 C 
ATOM      3  N   UNL     1       1.633   7.268  20.797  0.00  0.00    +0.000 N 
ATOM      4  C   UNL     1       2.325   6.293  20.130  0.00  0.00    +0.000 A 
ATOM      5  N   UNL     1       3.062   6.423  19.061  0.00  0.00    +0.000 NA
ATOM      6  C   UNL     1       3.494   5.183  18.626  0.00  0.00    +0.000 A 
ATOM      7  C   UNL     1       3.084   4.123  19.418  0.00  0.00    +0.000 A 
ATOM      8  S   UNL     1       2.179   4.716  20.759  0.00  0.00    +0.000 S 
ATOM      9  H   UNL     1       1.134   6.990  21.627  0.00  0.00    +0.000 HD
ENDROOT
BRANCH   6  10
ATOM     10  C   UNL     1       4.304   5.050  17.413  0.00  0.00    +0.000 A 
ATOM     11  C   UNL     1       4.617   6.185  16.670  0.00  0.00    +0.000 A 
ATOM     12  C   UNL     1       5.385   6.042  15.519  0.00  0.00    +0.000 A 
ATOM     13  C   UNL     1       5.806   4.773  15.141  0.00  0.00    +0.000 A 
ATOM     14  C   UNL     1       5.444   3.699  15.937  0.00  0.00    +0.000 A 
ATOM     15  N   UNL     1       4.707   3.804  17.066  0.00  0.00    +0.000 NA
ENDBRANCH   6  10
BRANCH   2  16
ATOM     16  C   UNL     1       0.594   9.451  20.962  0.00  0.00    +0.000 A 
ATOM     17  C   UNL     1       0.191   9.077  22.252  0.00  0.00    +0.000 A 
ATOM     18  C   UNL     1      -0.639   9.910  23.001  0.00  0.00    +0.000 A 
ATOM     19  C   UNL     1      -1.082  11.116  22.459  0.00  0.00    +0.000 A 
ATOM     20  C   UNL     1      -0.699  11.479  21.160  0.00  0.00    +0.000 A 
ATOM     21  C   UNL     1       0.158  10.660  20.412  0.00  0.00    +0.000 A 
BRANCH  20  22
ATOM     22  S   UNL     1      -1.200  13.069  20.501  0.00  0.00    +0.000 S 
ATOM     23  O   UNL     1      -1.554  13.902  21.628  0.00  0.00    +0.000 OA
ATOM     24  O   UNL     1      -0.161  13.468  19.572  0.00  0.00    +0.000 OA
BRANCH  22  25
ATOM     25  N   UNL     1      -2.622  12.731  19.603  0.00  0.00    +0.000 NA
ATOM     26  C   UNL     1      -2.467  11.695  18.548  0.00  0.00    +0.000 C 
ATOM     27  C   UNL     1      -3.736  11.502  17.728  0.00  0.00    +0.000 C 
ATOM     28  C   UNL     1      -4.940  11.268  18.626  0.00  0.00    +0.000 C 
ATOM     29  C   UNL     1      -5.107  12.469  19.542  0.00  0.00    +0.000 C 
ATOM     30  C   UNL     1      -3.869  12.674  20.407  0.00  0.00    +0.000 C 
ENDBRANCH  22  25
ENDBRANCH  20  22
ENDBRANCH   2  16
TORSDOF 4
ENDMDL
MODEL 5
REMARK VINA RESULT:      -8.4      1.120      1.702
REMARK  Name = 
REMARK  4 active torsions:
REMARK  status: ('A' for Active; 'I' for Inactive)
REMARK    1  A    between atoms: C_2  and  C_15
REMARK    2  A    between atoms: C_6  and  C_7
REMARK    3  A    between atoms: C_19  and  S_20
REMARK    4  A    between atoms: S_20  and  N_23
REMARK                            x       y       z     vdW  Elec       q    Type
REMARK                         _______ _______ _______ _____ _____    ______ ____
ROOT
ATOM      1  O   UNL     1       1.823   8.868  19.100  0.00  0.00    +0.000 OA
ATOM      2  C   UNL     1       1.438   8.475  20.197  0.00  0.00    +0.000 C 
ATOM      3  N   UNL     1       1.648   7.240  20.768  0.00  0.00    +0.000 N 
ATOM      4  C   UNL     1       2.344   6.283  20.079  0.00  0.00    +0.000 A 
ATOM      5  N   UNL     1       3.072   6.437  19.008  0.00  0.00    +0.000 NA
ATOM      6  C   UNL     1       3.510   5.208  18.549  0.00  0.00    +0.000 A 
ATOM      7  C   UNL     1       3.114   4.132  19.325  0.00  0.00    +0.000 A 
ATOM      8  S   UNL     1       2.214   4.693  20.682  0.00  0.00    +0.000 S 
ATOM      9  H   UNL     1       1.157   6.944  21.597  0.00  0.00    +0.000 HD
ENDROOT
BRANCH   6  10
ATOM     10  C   UNL     1       4.313   5.103  17.327  0.00  0.00    +0.000 A 
ATOM     11  C   UNL     1       4.747   3.853  16.898  0.00  0.00    +0.000 A 
ATOM     12  C   UNL     1       5.511   3.770  15.738  0.00  0.00    +0.000 A 
ATOM     13  C   UNL     1       5.824   4.937  15.051  0.00  0.00    +0.000 A 
ATOM     14  C   UNL     1       5.353   6.139  15.553  0.00  0.00    +0.000 A 
ATOM     15  N   UNL     1       4.602   6.253  16.672  0.00  0.00    +0.000 NA
ENDBRANCH   6  10
BRANCH   2  16
ATOM     16  C   UNL     1       0.593   9.411  20.979  0.00  0.00    +0.000 A 
ATOM     17  C   UNL     1       0.413   9.137  22.343  0.00  0.00    +0.000 A 
ATOM     18  C   UNL     1      -0.406   9.951  23.123  0.00  0.00    +0.000 A 
ATOM     19  C   UNL     1      -1.061  11.037  22.543  0.00  0.00    +0.000 A 
ATOM     20  C   UNL     1      -0.900  11.297  21.175  0.00  0.00    +0.000 A 
ATOM     21  C   UNL     1      -0.056  10.500  20.389  0.00  0.00    +0.000 A 
BRANCH  20  22
ATOM     22  S   UNL     1      -1.672  12.744  20.451  0.00  0.00    +0.000 S 
ATOM     23  O   UNL     1      -1.522  13.824  21.400  0.00  0.00    +0.000 OA
ATOM     24  O   UNL     1      -1.148  12.853  19.104  0.00  0.00    +0.000 OA
BRANCH  22  25
ATOM     25  N   UNL     1      -3.336  12.334  20.348  0.00  0.00    +0.000 NA
ATOM     26  C   UNL     1      -4.228  13.097  21.260  0.00  0.00    +0.000 C 
ATOM     27  C   UNL     1      -5.676  12.628  21.187  0.00  0.00    +0.000 C 
ATOM     28  C   UNL     1      -6.171  12.598  19.751  0.00  0.00    +0.000 C 
ATOM     29  C   UNL     1      -5.292  11.651  18.951  0.00  0.00    +0.000 C 
ATOM     30  C   UNL     1      -3.838  12.107  18.970  0.00  0.00    +0.000 C 
ENDBRANCH  22  25
ENDBRANCH  20  22
ENDBRANCH   2  16
TORSDOF 4
ENDMDL
MODEL 6
REMARK VINA RESULT:      -8.4      1.766      2.538
REMARK  Name = 
REMARK  4 active torsions:
REMARK  status: ('A' for Active; 'I' for Inactive)
REMARK    1  A    between atoms: C_2  and  C_15
REMARK    2  A    between atoms: C_6  and  C_7
REMARK    3  A    between atoms: C_19  and  S_20
REMARK    4  A    between atoms: S_20  and  N_23
REMARK                            x       y       z     vdW  Elec       q    Type
REMARK                         _______ _______ _______ _____ _____    ______ ____
ROOT
ATOM      1  O   UNL     1       1.786   8.865  19.257  0.00  0.00    +0.000 OA
ATOM      2  C   UNL     1       1.388   8.458  20.344  0.00  0.00    +0.000 C 
ATOM      3  N   UNL     1       1.586   7.213  20.900  0.00  0.00    +0.000 N 
ATOM      4  C   UNL     1       2.285   6.263  20.205  0.00  0.00    +0.000 A 
ATOM      5  N   UNL     1       3.025   6.429  19.144  0.00  0.00    +0.000 NA
ATOM      6  C   UNL     1       3.463   5.205  18.672  0.00  0.00    +0.000 A 
ATOM      7  C   UNL     1       3.054   4.119  19.429  0.00  0.00    +0.000 A 
ATOM      8  S   UNL     1       2.142   4.666  20.784  0.00  0.00    +0.000 S 
ATOM      9  H   UNL     1       1.085   6.908  21.719  0.00  0.00    +0.000 HD
ENDROOT
BRANCH   6  10
ATOM     10  C   UNL     1       4.278   5.114  17.458  0.00  0.00    +0.000 A 
ATOM     11  C   UNL     1       4.552   6.266  16.728  0.00  0.00    +0.000 A 
ATOM     12  C   UNL     1       5.324   6.163  15.576  0.00  0.00    +0.000 A 
ATOM     13  C   UNL     1       5.790   4.913  15.185  0.00  0.00    +0.000 A 
ATOM     14  C   UNL     1       5.466   3.819  15.969  0.00  0.00    +0.000 A 
ATOM     15  N   UNL     1       4.725   3.887  17.099  0.00  0.00    +0.000 NA
ENDBRANCH   6  10
BRANCH   2  16
ATOM     16  C   UNL     1       0.538   9.387  21.130  0.00  0.00    +0.000 A 
ATOM     17  C   UNL     1       0.396   9.132  22.502  0.00  0.00    +0.000 A 
ATOM     18  C   UNL     1      -0.424   9.939  23.288  0.00  0.00    +0.000 A 
ATOM     19  C   UNL     1      -1.118  10.999  22.705  0.00  0.00    +0.000 A 
ATOM     20  C   UNL     1      -0.996  11.239  21.329  0.00  0.00    +0.000 A 
ATOM     21  C   UNL     1      -0.151  10.448  20.537  0.00  0.00    +0.000 A 
BRANCH  20  22
ATOM     22  S   UNL     1      -1.821  12.654  20.600  0.00  0.00    +0.000 S 
ATOM     23  O   UNL     1      -0.910  13.772  20.698  0.00  0.00    +0.000 OA
ATOM     24  O   UNL     1      -2.327  12.211  19.316  0.00  0.00    +0.000 OA
BRANCH  22  25
ATOM     25  N   UNL     1      -3.160  12.947  21.633  0.00  0.00    +0.000 NA
ATOM     26  C   UNL     1      -3.033  14.148  22.499  0.00  0.00    +0.000 C 
ATOM     27  C   UNL     1      -4.210  14.306  23.454  0.00  0.00    +0.000 C 
ATOM     28  C   UNL     1      -5.533  14.239  22.710  0.00  0.00    +0.000 C 
ATOM     29  C   UNL     1      -5.631  12.897  22.005  0.00  0.00    +0.000 C 
ATOM     30  C   UNL     1      -4.488  12.716  21.012  0.00  0.00    +0.000 C 
ENDBRANCH  22  25
ENDBRANCH  20  22
ENDBRANCH   2  16
TORSDOF 4
ENDMDL
MODEL 7
REMARK VINA RESULT:      -8.3      2.265      3.200
REMARK  Name = 
REMARK  4 active torsions:
REMARK  status: ('A' for Active; 'I' for Inactive)
REMARK    1  A    between atoms: C_2  and  C_15
REMARK    2  A    between atoms: C_6  and  C_7
REMARK    3  A    between atoms: C_19  and  S_20
REMARK    4  A    between atoms: S_20  and  N_23
REMARK                            x       y       z     vdW  Elec       q    Type
REMARK                         _______ _______ _______ _____ _____    ______ ____
ROOT
ATOM      1  O   UNL     1       2.166   9.006  17.511  0.00  0.00    +0.000 OA
ATOM      2  C   UNL     1       1.603   8.838  18.588  0.00  0.00    +0.000 C 
ATOM      3  N   UNL     1       1.787   7.806  19.481  0.00  0.00    +0.000 N 
ATOM      4  C   UNL     1       2.672   6.803  19.187  0.00  0.00    +0.000 A 
ATOM      5  N   UNL     1       3.583   6.788  18.253  0.00  0.00    +0.000 NA
ATOM      6  C   UNL     1       4.192   5.547  18.202  0.00  0.00    +0.000 A 
ATOM      7  C   UNL     1       3.731   4.643  19.145  0.00  0.00    +0.000 A 
ATOM      8  S   UNL     1       2.544   5.397  20.141  0.00  0.00    +0.000 S 
ATOM      9  H   UNL     1       1.166   7.656  20.261  0.00  0.00    +0.000 HD
ENDROOT
BRANCH   6  10
ATOM     10  C   UNL     1       5.223   5.254  17.203  0.00  0.00    +0.000 A 
ATOM     11  C   UNL     1       4.949   5.459  15.854  0.00  0.00    +0.000 A 
ATOM     12  C   UNL     1       5.938   5.173  14.918  0.00  0.00    +0.000 A 
ATOM     13  C   UNL     1       7.162   4.685  15.357  0.00  0.00    +0.000 A 
ATOM     14  C   UNL     1       7.347   4.508  16.719  0.00  0.00    +0.000 A 
ATOM     15  N   UNL     1       6.410   4.784  17.655  0.00  0.00    +0.000 NA
ENDBRANCH   6  10
BRANCH   2  16
ATOM     16  C   UNL     1       0.554   9.824  18.950  0.00  0.00    +0.000 A 
ATOM     17  C   UNL     1      -0.421  10.117  17.985  0.00  0.00    +0.000 A 
ATOM     18  C   UNL     1      -1.407  11.067  18.245  0.00  0.00    +0.000 A 
ATOM     19  C   UNL     1      -1.417  11.740  19.466  0.00  0.00    +0.000 A 
ATOM     20  C   UNL     1      -0.428  11.464  20.421  0.00  0.00    +0.000 A 
ATOM     21  C   UNL     1       0.550  10.490  20.178  0.00  0.00    +0.000 A 
BRANCH  20  22
ATOM     22  S   UNL     1      -0.496  12.267  22.023  0.00  0.00    +0.000 S 
ATOM     23  O   UNL     1      -0.383  11.230  23.022  0.00  0.00    +0.000 OA
ATOM     24  O   UNL     1       0.455  13.361  21.968  0.00  0.00    +0.000 OA
BRANCH  22  25
ATOM     25  N   UNL     1      -2.076  12.933  22.101  0.00  0.00    +0.000 NA
ATOM     26  C   UNL     1      -2.978  12.294  23.094  0.00  0.00    +0.000 C 
ATOM     27  C   UNL     1      -4.389  12.867  23.055  0.00  0.00    +0.000 C 
ATOM     28  C   UNL     1      -4.368  14.383  23.153  0.00  0.00    +0.000 C 
ATOM     29  C   UNL     1      -3.565  14.937  21.988  0.00  0.00    +0.000 C 
ATOM     30  C   UNL     1      -2.133  14.414  22.013  0.00  0.00    +0.000 C 
ENDBRANCH  22  25
ENDBRANCH  20  22
ENDBRANCH   2  16
TORSDOF 4
ENDMDL
MODEL 8
REMARK VINA RESULT:      -8.3      2.226      3.248
REMARK  Name = 
REMARK  4 active torsions:
REMARK  status: ('A' for Active; 'I' for Inactive)
REMARK    1  A    between atoms: C_2  and  C_15
REMARK    2  A    between atoms: C_6  and  C_7
REMARK    3  A    between atoms: C_19  and  S_20
REMARK    4  A    between atoms: S_20  and  N_23
REMARK                            x       y       z     vdW  Elec       q    Type
REMARK                         _______ _______ _______ _____ _____    ______ ____
ROOT
ATOM      1  O   UNL     1       3.034   7.072  16.907  0.00  0.00    +0.000 OA
ATOM      2  C   UNL     1       3.391   7.139  18.079  0.00  0.00    +0.000 C 
ATOM      3  N   UNL     1       4.557   6.656  18.631  0.00  0.00    +0.000 N 
ATOM      4  C   UNL     1       5.459   5.995  17.842  0.00  0.00    +0.000 A 
ATOM      5  N   UNL     1       5.498   5.947  16.539  0.00  0.00    +0.000 NA
ATOM      6  C   UNL     1       6.490   5.076  16.124  0.00  0.00    +0.000 A 
ATOM      7  C   UNL     1       7.213   4.498  17.154  0.00  0.00    +0.000 A 
ATOM      8  S   UNL     1       6.656   5.105  18.667  0.00  0.00    +0.000 S 
ATOM      9  H   UNL     1       4.695   6.606  19.628  0.00  0.00    +0.000 HD
ENDROOT
BRANCH   6  10
ATOM     10  C   UNL     1       6.711   4.808  14.700  0.00  0.00    +0.000 A 
ATOM     11  C   UNL     1       5.913   3.874  14.047  0.00  0.00    +0.000 A 
ATOM     12  C   UNL     1       6.136   3.628  12.696  0.00  0.00    +0.000 A 
ATOM     13  C   UNL     1       7.154   4.315  12.045  0.00  0.00    +0.000 A 
ATOM     14  C   UNL     1       7.902   5.224  12.774  0.00  0.00    +0.000 A 
ATOM     15  N   UNL     1       7.705   5.492  14.085  0.00  0.00    +0.000 NA
ENDBRANCH   6  10
BRANCH   2  16
ATOM     16  C   UNL     1       2.434   7.755  19.031  0.00  0.00    +0.000 A 
ATOM     17  C   UNL     1       2.080   7.011  20.167  0.00  0.00    +0.000 A 
ATOM     18  C   UNL     1       1.152   7.512  21.077  0.00  0.00    +0.000 A 
ATOM     19  C   UNL     1       0.561   8.755  20.852  0.00  0.00    +0.000 A 
ATOM     20  C   UNL     1       0.896   9.488  19.705  0.00  0.00    +0.000 A 
ATOM     21  C   UNL     1       1.850   9.003  18.798  0.00  0.00    +0.000 A 
BRANCH  20  22
ATOM     22  S   UNL     1       0.200  11.122  19.463  0.00  0.00    +0.000 S 
ATOM     23  O   UNL     1       0.073  11.726  20.770  0.00  0.00    +0.000 OA
ATOM     24  O   UNL     1       0.990  11.749  18.422  0.00  0.00    +0.000 OA
BRANCH  22  25
ATOM     25  N   UNL     1      -1.372  10.830  18.841  0.00  0.00    +0.000 NA
ATOM     26  C   UNL     1      -2.328  11.958  18.994  0.00  0.00    +0.000 C 
ATOM     27  C   UNL     1      -3.727  11.608  18.505  0.00  0.00    +0.000 C 
ATOM     28  C   UNL     1      -3.690  11.042  17.095  0.00  0.00    +0.000 C 
ATOM     29  C   UNL     1      -2.827   9.791  17.094  0.00  0.00    +0.000 C 
ATOM     30  C   UNL     1      -1.406  10.107  17.544  0.00  0.00    +0.000 C 
ENDBRANCH  22  25
ENDBRANCH  20  22
ENDBRANCH   2  16
TORSDOF 4
ENDMDL
MODEL 9
REMARK VINA RESULT:      -8.3      0.897      1.349
REMARK  Name = 
REMARK  4 active torsions:
REMARK  status: ('A' for Active; 'I' for Inactive)
REMARK    1  A    between atoms: C_2  and  C_15
REMARK    2  A    between atoms: C_6  and  C_7
REMARK    3  A    between atoms: C_19  and  S_20
REMARK    4  A    between atoms: S_20  and  N_23
REMARK                            x       y       z     vdW  Elec       q    Type
REMARK                         _______ _______ _______ _____ _____    ______ ____
ROOT
ATOM      1  O   UNL     1       2.326   8.471  19.307  0.00  0.00    +0.000 OA
ATOM      2  C   UNL     1       1.717   8.102  20.306  0.00  0.00    +0.000 C 
ATOM      3  N   UNL     1       1.731   6.852  20.886  0.00  0.00    +0.000 N 
ATOM      4  C   UNL     1       2.476   5.851  20.322  0.00  0.00    +0.000 A 
ATOM      5  N   UNL     1       3.400   5.958  19.408  0.00  0.00    +0.000 NA
ATOM      6  C   UNL     1       3.832   4.703  19.017  0.00  0.00    +0.000 A 
ATOM      7  C   UNL     1       3.225   3.654  19.688  0.00  0.00    +0.000 A 
ATOM      8  S   UNL     1       2.128   4.272  20.863  0.00  0.00    +0.000 S 
ATOM      9  H   UNL     1       1.075   6.588  21.604  0.00  0.00    +0.000 HD
ENDROOT
BRANCH   6  10
ATOM     10  C   UNL     1       4.839   4.546  17.965  0.00  0.00    +0.000 A 
ATOM     11  C   UNL     1       6.184   4.726  18.271  0.00  0.00    +0.000 A 
ATOM     12  C   UNL     1       7.129   4.577  17.261  0.00  0.00    +0.000 A 
ATOM     13  C   UNL     1       6.699   4.264  15.976  0.00  0.00    +0.000 A 
ATOM     14  C   UNL     1       5.340   4.108  15.760  0.00  0.00    +0.000 A 
ATOM     15  N   UNL     1       4.398   4.237  16.722  0.00  0.00    +0.000 NA
ENDBRANCH   6  10
BRANCH   2  16
ATOM     16  C   UNL     1       0.807   9.092  20.932  0.00  0.00    +0.000 A 
ATOM     17  C   UNL     1       0.396   8.851  22.252  0.00  0.00    +0.000 A 
ATOM     18  C   UNL     1      -0.495   9.718  22.883  0.00  0.00    +0.000 A 
ATOM     19  C   UNL     1      -0.990  10.825  22.194  0.00  0.00    +0.000 A 
ATOM     20  C   UNL     1      -0.598  11.053  20.868  0.00  0.00    +0.000 A 
ATOM     21  C   UNL     1       0.319  10.201  20.235  0.00  0.00    +0.000 A 
BRANCH  20  22
ATOM     22  S   UNL     1      -1.169  12.523  20.016  0.00  0.00    +0.000 S 
ATOM     23  O   UNL     1      -2.065  13.213  20.916  0.00  0.00    +0.000 OA
ATOM     24  O   UNL     1       0.016  13.175  19.495  0.00  0.00    +0.000 OA
BRANCH  22  25
ATOM     25  N   UNL     1      -2.079  11.924  18.690  0.00  0.00    +0.000 NA
ATOM     26  C   UNL     1      -1.449  10.795  17.957  0.00  0.00    +0.000 C 
ATOM     27  C   UNL     1      -2.259  10.365  16.740  0.00  0.00    +0.000 C 
ATOM     28  C   UNL     1      -3.710  10.105  17.110  0.00  0.00    +0.000 C 
ATOM     29  C   UNL     1      -4.303  11.379  17.688  0.00  0.00    +0.000 C 
ATOM     30  C   UNL     1      -3.540  11.823  18.931  0.00  0.00    +0.000 C 
ENDBRANCH  22  25
ENDBRANCH  20  22
ENDBRANCH   2  16
TORSDOF 4
ENDMDL
