MODEL 1
REMARK VINA RESULT:      -9.5      0.000      0.000
REMARK  Name = 
REMARK  5 active torsions:
REMARK  status: ('A' for Active; 'I' for Inactive)
REMARK    1  A    between atoms: C_1  and  C_2
REMARK    2  A    between atoms: C_5  and  C_6
REMARK    3  A    between atoms: C_12  and  N_13
REMARK    4  A    between atoms: C_14  and  C_16
REMARK    5  A    between atoms: C_19  and  C_20
REMARK                            x       y       z     vdW  Elec       q    Type
REMARK                         _______ _______ _______ _____ _____    ______ ____
ROOT
ATOM      1  N   UNL     1       3.146   5.846  20.214  0.00  0.00    +0.000 N 
ATOM      2  C   UNL     1       2.444   6.582  19.272  0.00  0.00    +0.000 C 
ATOM      3  O   UNL     1       2.296   6.266  18.096  0.00  0.00    +0.000 OA
ATOM      4  H   UNL     1       2.847   5.936  21.176  0.00  0.00    +0.000 HD
ENDROOT
BRANCH   1  10
ATOM      5  C   UNL     1       2.011   2.841  20.767  0.00  0.00    +0.000 C 
ATOM      6  C   UNL     1       3.268   3.298  20.124  0.00  0.00    +0.000 A 
ATOM      7  N   UNL     1       4.099   2.390  19.598  0.00  0.00    +0.000 NA
ATOM      8  N   UNL     1       5.083   3.124  19.071  0.00  0.00    +0.000 N 
ATOM      9  C   UNL     1       4.906   4.484  19.156  0.00  0.00    +0.000 A 
ATOM     10  C   UNL     1       3.726   4.627  19.870  0.00  0.00    +0.000 A 
ATOM     11  H   UNL     1       5.871   2.632  18.668  0.00  0.00    +0.000 HD
BRANCH   9  12
ATOM     12  C   UNL     1       5.915   5.433  18.676  0.00  0.00    +0.000 A 
ATOM     13  C   UNL     1       7.143   5.578  19.341  0.00  0.00    +0.000 A 
ATOM     14  C   UNL     1       8.096   6.500  18.896  0.00  0.00    +0.000 A 
ATOM     15  C   UNL     1       7.841   7.281  17.773  0.00  0.00    +0.000 A 
ATOM     16  C   UNL     1       6.626   7.159  17.108  0.00  0.00    +0.000 A 
ATOM     17  C   UNL     1       5.665   6.256  17.567  0.00  0.00    +0.000 A 
ENDBRANCH   9  12
ENDBRANCH   1  10
BRANCH   2  18
ATOM     18  C   UNL     1       1.730   7.792  19.776  0.00  0.00    +0.000 A 
ATOM     19  C   UNL     1       1.513   8.926  18.991  0.00  0.00    +0.000 A 
ATOM     20  C   UNL     1       0.748   9.995  19.496  0.00  0.00    +0.000 A 
ATOM     21  C   UNL     1       0.175   9.963  20.785  0.00  0.00    +0.000 A 
ATOM     22  C   UNL     1       0.428   8.815  21.552  0.00  0.00    +0.000 A 
ATOM     23  C   UNL     1       1.194   7.749  21.065  0.00  0.00    +0.000 A 
BRANCH  21  24
ATOM     24  C   UNL     1      -0.683  11.061  21.305  0.00  0.00    +0.000 A 
ATOM     25  C   UNL     1      -1.280  12.009  20.450  0.00  0.00    +0.000 A 
ATOM     26  C   UNL     1      -2.121  13.014  20.943  0.00  0.00    +0.000 A 
ATOM     27  C   UNL     1      -2.395  13.092  22.306  0.00  0.00    +0.000 A 
ATOM     28  C   UNL     1      -1.816  12.176  23.175  0.00  0.00    +0.000 A 
ATOM     29  C   UNL     1      -0.964  11.181  22.679  0.00  0.00    +0.000 A 
ENDBRANCH  21  24
ENDBRANCH   2  18
TORSDOF 4
ENDMDL
MODEL 2
REMARK VINA RESULT:      -9.4      0.092      1.310
REMARK  Name = 
REMARK  5 active torsions:
REMARK  status: ('A' for Active; 'I' for Inactive)
REMARK    1  A    between atoms: C_1  and  C_2
REMARK    2  A    between atoms: C_5  and  C_6
REMARK    3  A    between atoms: C_12  and  N_13
REMARK    4  A    between atoms: C_14  and  C_16
REMARK    5  A    between atoms: C_19  and  C_20
REMARK                            x       y       z     vdW  Elec       q    Type
REMARK                         _______ _______ _______ _____ _____    ______ ____
ROOT
ATOM      1  N   UNL     1       3.098   5.864  20.235  0.00  0.00    +0.000 N 
ATOM      2  C   UNL     1       2.435   6.619  19.280  0.00  0.00    +0.000 C 
ATOM      3  O   UNL     1       2.325   6.320  18.096  0.00  0.00    +0.000 OA
ATOM      4  H   UNL     1       2.767   5.946  21.188  0.00  0.00    +0.000 HD
ENDROOT
BRANCH   1  10
ATOM      5  C   UNL     1       1.952   2.862  20.779  0.00  0.00    +0.000 C 
ATOM      6  C   UNL     1       3.215   3.317  20.146  0.00  0.00    +0.000 A 
ATOM      7  N   UNL     1       4.049   2.407  19.626  0.00  0.00    +0.000 NA
ATOM      8  N   UNL     1       5.038   3.139  19.106  0.00  0.00    +0.000 N 
ATOM      9  C   UNL     1       4.863   4.500  19.191  0.00  0.00    +0.000 A 
ATOM     10  C   UNL     1       3.677   4.645  19.896  0.00  0.00    +0.000 A 
ATOM     11  H   UNL     1       5.828   2.645  18.710  0.00  0.00    +0.000 HD
BRANCH   9  12
ATOM     12  C   UNL     1       5.878   5.446  18.718  0.00  0.00    +0.000 A 
ATOM     13  C   UNL     1       5.652   6.236  17.579  0.00  0.00    +0.000 A 
ATOM     14  C   UNL     1       6.630   7.120  17.114  0.00  0.00    +0.000 A 
ATOM     15  C   UNL     1       7.842   7.239  17.787  0.00  0.00    +0.000 A 
ATOM     16  C   UNL     1       8.088   6.457  18.911  0.00  0.00    +0.000 A 
ATOM     17  C   UNL     1       7.120   5.555  19.361  0.00  0.00    +0.000 A 
ENDBRANCH   9  12
ENDBRANCH   1  10
BRANCH   2  18
ATOM     18  C   UNL     1       1.716   7.829  19.775  0.00  0.00    +0.000 A 
ATOM     19  C   UNL     1       1.474   8.948  18.975  0.00  0.00    +0.000 A 
ATOM     20  C   UNL     1       0.705  10.017  19.474  0.00  0.00    +0.000 A 
ATOM     21  C   UNL     1       0.153  10.000  20.772  0.00  0.00    +0.000 A 
ATOM     22  C   UNL     1       0.431   8.868  21.555  0.00  0.00    +0.000 A 
ATOM     23  C   UNL     1       1.201   7.803  21.073  0.00  0.00    +0.000 A 
BRANCH  21  24
ATOM     24  C   UNL     1      -0.709  11.098  21.288  0.00  0.00    +0.000 A 
ATOM     25  C   UNL     1      -0.868  11.335  22.667  0.00  0.00    +0.000 A 
ATOM     26  C   UNL     1      -1.647  12.397  23.143  0.00  0.00    +0.000 A 
ATOM     27  C   UNL     1      -2.282  13.256  22.250  0.00  0.00    +0.000 A 
ATOM     28  C   UNL     1      -2.149  13.043  20.884  0.00  0.00    +0.000 A 
ATOM     29  C   UNL     1      -1.381  11.973  20.412  0.00  0.00    +0.000 A 
ENDBRANCH  21  24
ENDBRANCH   2  18
TORSDOF 4
ENDMDL
MODEL 3
REMARK VINA RESULT:      -9.3      0.730      1.678
REMARK  Name = 
REMARK  5 active torsions:
REMARK  status: ('A' for Active; 'I' for Inactive)
REMARK    1  A    between atoms: C_1  and  C_2
REMARK    2  A    between atoms: C_5  and  C_6
REMARK    3  A    between atoms: C_12  and  N_13
REMARK    4  A    between atoms: C_14  and  C_16
REMARK    5  A    between atoms: C_19  and  C_20
REMARK                            x       y       z     vdW  Elec       q    Type
REMARK                         _______ _______ _______ _____ _____    ______ ____
ROOT
ATOM      1  N   UNL     1       3.116   5.772  20.274  0.00  0.00    +0.000 N 
ATOM      2  C   UNL     1       2.415   6.574  19.388  0.00  0.00    +0.000 C 
ATOM      3  O   UNL     1       2.258   6.339  18.195  0.00  0.00    +0.000 OA
ATOM      4  H   UNL     1       2.823   5.800  21.242  0.00  0.00    +0.000 HD
ENDROOT
BRANCH   1  10
ATOM      5  C   UNL     1       1.976   2.743  20.661  0.00  0.00    +0.000 C 
ATOM      6  C   UNL     1       3.225   3.234  20.026  0.00  0.00    +0.000 A 
ATOM      7  N   UNL     1       4.043   2.358  19.431  0.00  0.00    +0.000 NA
ATOM      8  N   UNL     1       5.022   3.119  18.934  0.00  0.00    +0.000 N 
ATOM      9  C   UNL     1       4.852   4.472  19.106  0.00  0.00    +0.000 A 
ATOM     10  C   UNL     1       3.684   4.575  19.847  0.00  0.00    +0.000 A 
ATOM     11  H   UNL     1       5.801   2.650  18.489  0.00  0.00    +0.000 HD
BRANCH   9  12
ATOM     12  C   UNL     1       5.858   5.445  18.668  0.00  0.00    +0.000 A 
ATOM     13  C   UNL     1       5.625   6.272  17.557  0.00  0.00    +0.000 A 
ATOM     14  C   UNL     1       6.594   7.182  17.125  0.00  0.00    +0.000 A 
ATOM     15  C   UNL     1       7.804   7.289  17.803  0.00  0.00    +0.000 A 
ATOM     16  C   UNL     1       8.058   6.470  18.898  0.00  0.00    +0.000 A 
ATOM     17  C   UNL     1       7.099   5.543  19.315  0.00  0.00    +0.000 A 
ENDBRANCH   9  12
ENDBRANCH   1  10
BRANCH   2  18
ATOM     18  C   UNL     1       1.713   7.753  19.976  0.00  0.00    +0.000 A 
ATOM     19  C   UNL     1       1.330   7.816  21.318  0.00  0.00    +0.000 A 
ATOM     20  C   UNL     1       0.759   8.996  21.831  0.00  0.00    +0.000 A 
ATOM     21  C   UNL     1       0.559  10.141  21.032  0.00  0.00    +0.000 A 
ATOM     22  C   UNL     1       0.940  10.037  19.685  0.00  0.00    +0.000 A 
ATOM     23  C   UNL     1       1.501   8.867  19.160  0.00  0.00    +0.000 A 
BRANCH  21  24
ATOM     24  C   UNL     1       0.011  11.411  21.579  0.00  0.00    +0.000 A 
ATOM     25  C   UNL     1      -0.958  11.426  22.601  0.00  0.00    +0.000 A 
ATOM     26  C   UNL     1      -1.437  12.625  23.140  0.00  0.00    +0.000 A 
ATOM     27  C   UNL     1      -0.953  13.846  22.676  0.00  0.00    +0.000 A 
ATOM     28  C   UNL     1      -0.002  13.864  21.664  0.00  0.00    +0.000 A 
ATOM     29  C   UNL     1       0.465  12.662  21.118  0.00  0.00    +0.000 A 
ENDBRANCH  21  24
ENDBRANCH   2  18
TORSDOF 4
ENDMDL
MODEL 4
REMARK VINA RESULT:      -9.3      0.692      1.153
REMARK  Name = 
REMARK  5 active torsions:
REMARK  status: ('A' for Active; 'I' for Inactive)
REMARK    1  A    between atoms: C_1  and  C_2
REMARK    2  A    between atoms: C_5  and  C_6
REMARK    3  A    between atoms: C_12  and  N_13
REMARK    4  A    between atoms: C_14  and  C_16
REMARK    5  A    between atoms: C_19  and  C_20
REMARK                            x       y       z     vdW  Elec       q    Type
REMARK                         _______ _______ _______ _____ _____    ______ ____
ROOT
ATOM      1  N   UNL     1       3.153   5.754  20.251  0.00  0.00    +0.000 N 
ATOM      2  C   UNL     1       2.419   6.532  19.370  0.00  0.00    +0.000 C 
ATOM      3  O   UNL     1       2.231   6.273  18.186  0.00  0.00    +0.000 OA
ATOM      4  H   UNL     1       2.888   5.797  21.226  0.00  0.00    +0.000 HD
ENDROOT
BRANCH   1  10
ATOM      5  C   UNL     1       2.028   2.724  20.673  0.00  0.00    +0.000 C 
ATOM      6  C   UNL     1       3.270   3.215  20.024  0.00  0.00    +0.000 A 
ATOM      7  N   UNL     1       4.087   2.336  19.431  0.00  0.00    +0.000 NA
ATOM      8  N   UNL     1       5.059   3.097  18.919  0.00  0.00    +0.000 N 
ATOM      9  C   UNL     1       4.885   4.450  19.080  0.00  0.00    +0.000 A 
ATOM     10  C   UNL     1       3.723   4.556  19.829  0.00  0.00    +0.000 A 
ATOM     11  H   UNL     1       5.836   2.627  18.472  0.00  0.00    +0.000 HD
BRANCH   9  12
ATOM     12  C   UNL     1       5.884   5.423  18.626  0.00  0.00    +0.000 A 
ATOM     13  C   UNL     1       7.113   5.558  19.290  0.00  0.00    +0.000 A 
ATOM     14  C   UNL     1       8.055   6.503  18.871  0.00  0.00    +0.000 A 
ATOM     15  C   UNL     1       7.789   7.316  17.774  0.00  0.00    +0.000 A 
ATOM     16  C   UNL     1       6.572   7.205  17.110  0.00  0.00    +0.000 A 
ATOM     17  C   UNL     1       5.621   6.278  17.545  0.00  0.00    +0.000 A 
ENDBRANCH   9  12
ENDBRANCH   1  10
BRANCH   2  18
ATOM     18  C   UNL     1       1.720   7.714  19.956  0.00  0.00    +0.000 A 
ATOM     19  C   UNL     1       1.286   7.757  21.283  0.00  0.00    +0.000 A 
ATOM     20  C   UNL     1       0.721   8.939  21.799  0.00  0.00    +0.000 A 
ATOM     21  C   UNL     1       0.579  10.105  21.019  0.00  0.00    +0.000 A 
ATOM     22  C   UNL     1       1.011  10.021  19.685  0.00  0.00    +0.000 A 
ATOM     23  C   UNL     1       1.566   8.849  19.157  0.00  0.00    +0.000 A 
BRANCH  21  24
ATOM     24  C   UNL     1       0.038  11.376  21.571  0.00  0.00    +0.000 A 
ATOM     25  C   UNL     1       0.436  12.633  21.077  0.00  0.00    +0.000 A 
ATOM     26  C   UNL     1      -0.110  13.823  21.574  0.00  0.00    +0.000 A 
ATOM     27  C   UNL     1      -1.078  13.786  22.575  0.00  0.00    +0.000 A 
ATOM     28  C   UNL     1      -1.486  12.562  23.086  0.00  0.00    +0.000 A 
ATOM     29  C   UNL     1      -0.928  11.375  22.597  0.00  0.00    +0.000 A 
ENDBRANCH  21  24
ENDBRANCH   2  18
TORSDOF 4
ENDMDL
MODEL 5
REMARK VINA RESULT:      -9.1      2.232      2.779
REMARK  Name = 
REMARK  5 active torsions:
REMARK  status: ('A' for Active; 'I' for Inactive)
REMARK    1  A    between atoms: C_1  and  C_2
REMARK    2  A    between atoms: C_5  and  C_6
REMARK    3  A    between atoms: C_12  and  N_13
REMARK    4  A    between atoms: C_14  and  C_16
REMARK    5  A    between atoms: C_19  and  C_20
REMARK                            x       y       z     vdW  Elec       q    Type
REMARK                         _______ _______ _______ _____ _____    ______ ____
ROOT
ATOM      1  N   UNL     1       2.371   5.006  18.192  0.00  0.00    +0.000 N 
ATOM      2  C   UNL     1       2.777   5.845  19.217  0.00  0.00    +0.000 C 
ATOM      3  O   UNL     1       3.506   5.522  20.148  0.00  0.00    +0.000 OA
ATOM      4  H   UNL     1       2.172   5.440  17.300  0.00  0.00    +0.000 HD
ENDROOT
BRANCH   1  10
ATOM      5  C   UNL     1       0.840   2.314  19.209  0.00  0.00    +0.000 C 
ATOM      6  C   UNL     1       2.183   2.494  18.601  0.00  0.00    +0.000 A 
ATOM      7  N   UNL     1       2.927   1.414  18.333  0.00  0.00    +0.000 NA
ATOM      8  N   UNL     1       4.025   1.916  17.762  0.00  0.00    +0.000 N 
ATOM      9  C   UNL     1       4.012   3.277  17.570  0.00  0.00    +0.000 A 
ATOM     10  C   UNL     1       2.816   3.687  18.139  0.00  0.00    +0.000 A 
ATOM     11  H   UNL     1       4.770   1.271  17.531  0.00  0.00    +0.000 HD
BRANCH   9  12
ATOM     12  C   UNL     1       5.160   3.995  17.006  0.00  0.00    +0.000 A 
ATOM     13  C   UNL     1       5.358   4.059  15.617  0.00  0.00    +0.000 A 
ATOM     14  C   UNL     1       6.465   4.722  15.080  0.00  0.00    +0.000 A 
ATOM     15  C   UNL     1       7.383   5.343  15.921  0.00  0.00    +0.000 A 
ATOM     16  C   UNL     1       7.210   5.281  17.300  0.00  0.00    +0.000 A 
ATOM     17  C   UNL     1       6.117   4.596  17.837  0.00  0.00    +0.000 A 
ENDBRANCH   9  12
ENDBRANCH   1  10
BRANCH   2  18
ATOM     18  C   UNL     1       2.373   7.277  19.098  0.00  0.00    +0.000 A 
ATOM     19  C   UNL     1       2.584   8.031  17.942  0.00  0.00    +0.000 A 
ATOM     20  C   UNL     1       2.091   9.348  17.862  0.00  0.00    +0.000 A 
ATOM     21  C   UNL     1       1.374   9.946  18.920  0.00  0.00    +0.000 A 
ATOM     22  C   UNL     1       1.196   9.165  20.072  0.00  0.00    +0.000 A 
ATOM     23  C   UNL     1       1.687   7.858  20.168  0.00  0.00    +0.000 A 
BRANCH  21  24
ATOM     24  C   UNL     1       0.799  11.314  18.822  0.00  0.00    +0.000 A 
ATOM     25  C   UNL     1       1.613  12.464  18.791  0.00  0.00    +0.000 A 
ATOM     26  C   UNL     1       1.066  13.746  18.656  0.00  0.00    +0.000 A 
ATOM     27  C   UNL     1      -0.312  13.911  18.540  0.00  0.00    +0.000 A 
ATOM     28  C   UNL     1      -1.140  12.798  18.574  0.00  0.00    +0.000 A 
ATOM     29  C   UNL     1      -0.591  11.518  18.722  0.00  0.00    +0.000 A 
ENDBRANCH  21  24
ENDBRANCH   2  18
TORSDOF 4
ENDMDL
MODEL 6
REMARK VINA RESULT:      -9.1      2.213      2.637
REMARK  Name = 
REMARK  5 active torsions:
REMARK  status: ('A' for Active; 'I' for Inactive)
REMARK    1  A    between atoms: C_1  and  C_2
REMARK    2  A    between atoms: C_5  and  C_6
REMARK    3  A    between atoms: C_12  and  N_13
REMARK    4  A    between atoms: C_14  and  C_16
REMARK    5  A    between atoms: C_19  and  C_20
REMARK                            x       y       z     vdW  Elec       q    Type
REMARK                         _______ _______ _______ _____ _____    ______ ____
ROOT
ATOM      1  N   UNL     1       2.391   5.044  18.133  0.00  0.00    +0.000 N 
ATOM      2  C   UNL     1       2.629   5.844  19.239  0.00  0.00    +0.000 C 
ATOM      3  O   UNL     1       3.189   5.480  20.267  0.00  0.00    +0.000 OA
ATOM      4  H   UNL     1       2.349   5.509  17.236  0.00  0.00    +0.000 HD
ENDROOT
BRANCH   1  10
ATOM      5  C   UNL     1       0.821   2.384  19.176  0.00  0.00    +0.000 C 
ATOM      6  C   UNL     1       2.174   2.541  18.585  0.00  0.00    +0.000 A 
ATOM      7  N   UNL     1       2.913   1.451  18.348  0.00  0.00    +0.000 NA
ATOM      8  N   UNL     1       4.024   1.933  17.784  0.00  0.00    +0.000 N 
ATOM      9  C   UNL     1       4.026   3.290  17.568  0.00  0.00    +0.000 A 
ATOM     10  C   UNL     1       2.825   3.721  18.111  0.00  0.00    +0.000 A 
ATOM     11  H   UNL     1       4.767   1.277  17.576  0.00  0.00    +0.000 HD
BRANCH   9  12
ATOM     12  C   UNL     1       5.188   3.987  17.008  0.00  0.00    +0.000 A 
ATOM     13  C   UNL     1       6.084   4.678  17.839  0.00  0.00    +0.000 A 
ATOM     14  C   UNL     1       7.178   5.364  17.303  0.00  0.00    +0.000 A 
ATOM     15  C   UNL     1       7.401   5.357  15.930  0.00  0.00    +0.000 A 
ATOM     16  C   UNL     1       6.519   4.687  15.089  0.00  0.00    +0.000 A 
ATOM     17  C   UNL     1       5.411   4.024  15.623  0.00  0.00    +0.000 A 
ENDBRANCH   9  12
ENDBRANCH   1  10
BRANCH   2  18
ATOM     18  C   UNL     1       2.265   7.286  19.103  0.00  0.00    +0.000 A 
ATOM     19  C   UNL     1       2.444   8.004  17.919  0.00  0.00    +0.000 A 
ATOM     20  C   UNL     1       1.990   9.334  17.829  0.00  0.00    +0.000 A 
ATOM     21  C   UNL     1       1.344   9.980  18.904  0.00  0.00    +0.000 A 
ATOM     22  C   UNL     1       1.196   9.233  20.083  0.00  0.00    +0.000 A 
ATOM     23  C   UNL     1       1.651   7.913  20.189  0.00  0.00    +0.000 A 
BRANCH  21  24
ATOM     24  C   UNL     1       0.809  11.364  18.798  0.00  0.00    +0.000 A 
ATOM     25  C   UNL     1      -0.573  11.624  18.711  0.00  0.00    +0.000 A 
ATOM     26  C   UNL     1      -1.071  12.931  18.656  0.00  0.00    +0.000 A 
ATOM     27  C   UNL     1      -0.199  14.016  18.695  0.00  0.00    +0.000 A 
ATOM     28  C   UNL     1       1.169  13.791  18.774  0.00  0.00    +0.000 A 
ATOM     29  C   UNL     1       1.664  12.482  18.816  0.00  0.00    +0.000 A 
ENDBRANCH  21  24
ENDBRANCH   2  18
TORSDOF 4
ENDMDL
MODEL 7
REMARK VINA RESULT:      -8.9      2.204      2.971
REMARK  Name = 
REMARK  5 active torsions:
REMARK  status: ('A' for Active; 'I' for Inactive)
REMARK    1  A    between atoms: C_1  and  C_2
REMARK    2  A    between atoms: C_5  and  C_6
REMARK    3  A    between atoms: C_12  and  N_13
REMARK    4  A    between atoms: C_14  and  C_16
REMARK    5  A    between atoms: C_19  and  C_20
REMARK                            x       y       z     vdW  Elec       q    Type
REMARK                         _______ _______ _______ _____ _____    ______ ____
ROOT
ATOM      1  N   UNL     1       2.292   4.954  18.286  0.00  0.00    +0.000 N 
ATOM      2  C   UNL     1       2.712   5.842  19.264  0.00  0.00    +0.000 C 
ATOM      3  O   UNL     1       3.534   5.591  20.139  0.00  0.00    +0.000 OA
ATOM      4  H   UNL     1       1.993   5.356  17.407  0.00  0.00    +0.000 HD
ENDROOT
BRANCH   1  10
ATOM      5  C   UNL     1       0.986   2.158  19.334  0.00  0.00    +0.000 C 
ATOM      6  C   UNL     1       2.295   2.435  18.691  0.00  0.00    +0.000 A 
ATOM      7  N   UNL     1       3.107   1.412  18.399  0.00  0.00    +0.000 NA
ATOM      8  N   UNL     1       4.152   1.993  17.801  0.00  0.00    +0.000 N 
ATOM      9  C   UNL     1       4.036   3.349  17.615  0.00  0.00    +0.000 A 
ATOM     10  C   UNL     1       2.829   3.672  18.217  0.00  0.00    +0.000 A 
ATOM     11  H   UNL     1       4.935   1.403  17.548  0.00  0.00    +0.000 HD
BRANCH   9  12
ATOM     12  C   UNL     1       5.113   4.149  17.023  0.00  0.00    +0.000 A 
ATOM     13  C   UNL     1       5.179   4.356  15.636  0.00  0.00    +0.000 A 
ATOM     14  C   UNL     1       6.220   5.097  15.069  0.00  0.00    +0.000 A 
ATOM     15  C   UNL     1       7.203   5.654  15.881  0.00  0.00    +0.000 A 
ATOM     16  C   UNL     1       7.161   5.450  17.256  0.00  0.00    +0.000 A 
ATOM     17  C   UNL     1       6.135   4.688  17.819  0.00  0.00    +0.000 A 
ENDBRANCH   9  12
ENDBRANCH   1  10
BRANCH   2  18
ATOM     18  C   UNL     1       2.194   7.238  19.158  0.00  0.00    +0.000 A 
ATOM     19  C   UNL     1       1.588   7.904  20.225  0.00  0.00    +0.000 A 
ATOM     20  C   UNL     1       1.209   9.253  20.088  0.00  0.00    +0.000 A 
ATOM     21  C   UNL     1       1.427   9.974  18.894  0.00  0.00    +0.000 A 
ATOM     22  C   UNL     1       2.022   9.268  17.838  0.00  0.00    +0.000 A 
ATOM     23  C   UNL     1       2.396   7.924  17.959  0.00  0.00    +0.000 A 
BRANCH  21  24
ATOM     24  C   UNL     1       1.084  11.415  18.758  0.00  0.00    +0.000 A 
ATOM     25  C   UNL     1      -0.245  11.876  18.842  0.00  0.00    +0.000 A 
ATOM     26  C   UNL     1      -0.555  13.239  18.755  0.00  0.00    +0.000 A 
ATOM     27  C   UNL     1       0.458  14.180  18.592  0.00  0.00    +0.000 A 
ATOM     28  C   UNL     1       1.777  13.755  18.500  0.00  0.00    +0.000 A 
ATOM     29  C   UNL     1       2.082  12.391  18.573  0.00  0.00    +0.000 A 
ENDBRANCH  21  24
ENDBRANCH   2  18
TORSDOF 4
ENDMDL
MODEL 8
REMARK VINA RESULT:      -8.8      1.644      2.143
REMARK  Name = 
REMARK  5 active torsions:
REMARK  status: ('A' for Active; 'I' for Inactive)
REMARK    1  A    between atoms: C_1  and  C_2
REMARK    2  A    between atoms: C_5  and  C_6
REMARK    3  A    between atoms: C_12  and  N_13
REMARK    4  A    between atoms: C_14  and  C_16
REMARK    5  A    between atoms: C_19  and  C_20
REMARK                            x       y       z     vdW  Elec       q    Type
REMARK                         _______ _______ _______ _____ _____    ______ ____
ROOT
ATOM      1  N   UNL     1       3.326   5.690  19.687  0.00  0.00    +0.000 N 
ATOM      2  C   UNL     1       2.498   6.191  18.695  0.00  0.00    +0.000 C 
ATOM      3  O   UNL     1       1.998   5.529  17.792  0.00  0.00    +0.000 OA
ATOM      4  H   UNL     1       3.313   6.172  20.576  0.00  0.00    +0.000 HD
ENDROOT
BRANCH   1  10
ATOM      5  C   UNL     1       2.163   3.438  21.736  0.00  0.00    +0.000 C 
ATOM      6  C   UNL     1       3.158   3.328  20.639  0.00  0.00    +0.000 A 
ATOM      7  N   UNL     1       3.661   2.126  20.332  0.00  0.00    +0.000 NA
ATOM      8  N   UNL     1       4.468   2.372  19.296  0.00  0.00    +0.000 N 
ATOM      9  C   UNL     1       4.466   3.672  18.852  0.00  0.00    +0.000 A 
ATOM     10  C   UNL     1       3.627   4.332  19.737  0.00  0.00    +0.000 A 
ATOM     11  H   UNL     1       5.015   1.600  18.935  0.00  0.00    +0.000 HD
BRANCH   9  12
ATOM     12  C   UNL     1       5.334   4.123  17.759  0.00  0.00    +0.000 A 
ATOM     13  C   UNL     1       6.581   4.711  18.025  0.00  0.00    +0.000 A 
ATOM     14  C   UNL     1       7.398   5.162  16.984  0.00  0.00    +0.000 A 
ATOM     15  C   UNL     1       6.988   5.021  15.662  0.00  0.00    +0.000 A 
ATOM     16  C   UNL     1       5.751   4.450  15.379  0.00  0.00    +0.000 A 
ATOM     17  C   UNL     1       4.924   4.022  16.421  0.00  0.00    +0.000 A 
ENDBRANCH   9  12
ENDBRANCH   1  10
BRANCH   2  18
ATOM     18  C   UNL     1       2.111   7.627  18.819  0.00  0.00    +0.000 A 
ATOM     19  C   UNL     1       2.208   8.532  17.760  0.00  0.00    +0.000 A 
ATOM     20  C   UNL     1       1.735   9.850  17.916  0.00  0.00    +0.000 A 
ATOM     21  C   UNL     1       1.150  10.299  19.119  0.00  0.00    +0.000 A 
ATOM     22  C   UNL     1       1.085   9.367  20.167  0.00  0.00    +0.000 A 
ATOM     23  C   UNL     1       1.559   8.057  20.028  0.00  0.00    +0.000 A 
BRANCH  21  24
ATOM     24  C   UNL     1       0.595  11.670  19.274  0.00  0.00    +0.000 A 
ATOM     25  C   UNL     1       1.334  12.817  18.925  0.00  0.00    +0.000 A 
ATOM     26  C   UNL     1       0.789  14.102  19.033  0.00  0.00    +0.000 A 
ATOM     27  C   UNL     1      -0.517  14.273  19.487  0.00  0.00    +0.000 A 
ATOM     28  C   UNL     1      -1.268  13.162  19.845  0.00  0.00    +0.000 A 
ATOM     29  C   UNL     1      -0.715  11.879  19.748  0.00  0.00    +0.000 A 
ENDBRANCH  21  24
ENDBRANCH   2  18
TORSDOF 4
ENDMDL
MODEL 9
REMARK VINA RESULT:      -8.7      1.135      1.654
REMARK  Name = 
REMARK  5 active torsions:
REMARK  status: ('A' for Active; 'I' for Inactive)
REMARK    1  A    between atoms: C_1  and  C_2
REMARK    2  A    between atoms: C_5  and  C_6
REMARK    3  A    between atoms: C_12  and  N_13
REMARK    4  A    between atoms: C_14  and  C_16
REMARK    5  A    between atoms: C_19  and  C_20
REMARK                            x       y       z     vdW  Elec       q    Type
REMARK                         _______ _______ _______ _____ _____    ______ ____
ROOT
ATOM      1  N   UNL     1       3.094   5.811  20.086  0.00  0.00    +0.000 N 
ATOM      2  C   UNL     1       2.528   6.426  18.980  0.00  0.00    +0.000 C 
ATOM      3  O   UNL     1       2.457   5.936  17.858  0.00  0.00    +0.000 OA
ATOM      4  H   UNL     1       2.723   6.072  20.990  0.00  0.00    +0.000 HD
ENDROOT
BRANCH   1  10
ATOM      5  C   UNL     1       1.873   3.048  21.308  0.00  0.00    +0.000 C 
ATOM      6  C   UNL     1       3.117   3.300  20.538  0.00  0.00    +0.000 A 
ATOM      7  N   UNL     1       3.889   2.264  20.190  0.00  0.00    +0.000 NA
ATOM      8  N   UNL     1       4.876   2.823  19.483  0.00  0.00    +0.000 N 
ATOM      9  C   UNL     1       4.753   4.177  19.282  0.00  0.00    +0.000 A 
ATOM     10  C   UNL     1       3.612   4.523  19.990  0.00  0.00    +0.000 A 
ATOM     11  H   UNL     1       5.626   2.221  19.168  0.00  0.00    +0.000 HD
BRANCH   9  12
ATOM     12  C   UNL     1       5.775   4.955  18.574  0.00  0.00    +0.000 A 
ATOM     13  C   UNL     1       6.812   5.590  19.276  0.00  0.00    +0.000 A 
ATOM     14  C   UNL     1       7.773   6.351  18.603  0.00  0.00    +0.000 A 
ATOM     15  C   UNL     1       7.719   6.479  17.218  0.00  0.00    +0.000 A 
ATOM     16  C   UNL     1       6.692   5.866  16.507  0.00  0.00    +0.000 A 
ATOM     17  C   UNL     1       5.718   5.126  17.183  0.00  0.00    +0.000 A 
ENDBRANCH   9  12
ENDBRANCH   1  10
BRANCH   2  18
ATOM     18  C   UNL     1       1.863   7.740  19.222  0.00  0.00    +0.000 A 
ATOM     19  C   UNL     1       1.436   8.152  20.486  0.00  0.00    +0.000 A 
ATOM     20  C   UNL     1       0.903   9.444  20.662  0.00  0.00    +0.000 A 
ATOM     21  C   UNL     1       0.787  10.358  19.594  0.00  0.00    +0.000 A 
ATOM     22  C   UNL     1       1.210   9.905  18.335  0.00  0.00    +0.000 A 
ATOM     23  C   UNL     1       1.733   8.620  18.145  0.00  0.00    +0.000 A 
BRANCH  21  24
ATOM     24  C   UNL     1       0.281  11.744  19.781  0.00  0.00    +0.000 A 
ATOM     25  C   UNL     1       0.399  12.723  18.775  0.00  0.00    +0.000 A 
ATOM     26  C   UNL     1      -0.118  14.013  18.942  0.00  0.00    +0.000 A 
ATOM     27  C   UNL     1      -0.777  14.357  20.120  0.00  0.00    +0.000 A 
ATOM     28  C   UNL     1      -0.905  13.416  21.132  0.00  0.00    +0.000 A 
ATOM     29  C   UNL     1      -0.374  12.130  20.967  0.00  0.00    +0.000 A 
ENDBRANCH  21  24
ENDBRANCH   2  18
TORSDOF 4
ENDMDL
