MODEL 1
REMARK VINA RESULT:      -8.3      0.000      0.000
REMARK  Name = 
REMARK  10 active torsions:
REMARK  status: ('A' for Active; 'I' for Inactive)
REMARK    1  A    between atoms: C_1  and  C_2
REMARK    2  A    between atoms: C_3  and  C_4
REMARK    3  A    between atoms: C_4  and  C_5
REMARK    4  A    between atoms: N_7  and  C_8
REMARK    5  A    between atoms: C_12  and  C_13
REMARK    6  A    between atoms: C_13  and  C_14
REMARK    7  A    between atoms: C_13  and  C_15
REMARK    8  A    between atoms: C_15  and  C_16
REMARK    9  A    between atoms: N_20  and  C_21
REMARK   10  A    between atoms: C_26  and  C_27
REMARK                            x       y       z     vdW  Elec       q    Type
REMARK                         _______ _______ _______ _____ _____    ______ ____
ROOT
ATOM      1  C   UNL     1       1.844   8.443  18.996  0.00  0.00    +0.000 C 
ATOM      2  O   UNL     1       2.242   8.662  17.852  0.00  0.00    +0.000 OA
ATOM      3  N   UNL     1       0.915   9.219  19.673  0.00  0.00    +0.000 N 
ATOM      4  H   UNL     1       0.978   9.224  20.685  0.00  0.00    +0.000 HD
ENDROOT
BRANCH   3   5
ATOM      5  C   UNL     1       0.262  10.317  19.069  0.00  0.00    +0.000 A 
ATOM      6  C   UNL     1       0.688  11.633  19.268  0.00  0.00    +0.000 A 
ATOM      7  C   UNL     1      -0.030  12.698  18.722  0.00  0.00    +0.000 A 
ATOM      8  C   UNL     1      -1.190  12.454  17.987  0.00  0.00    +0.000 A 
ATOM      9  C   UNL     1      -1.614  11.139  17.747  0.00  0.00    +0.000 A 
ATOM     10  C   UNL     1      -0.851  10.074  18.262  0.00  0.00    +0.000 A 
BRANCH   9  11
ATOM     11  C   UNL     1      -2.875  10.829  16.951  0.00  0.00    +0.000 C 
ATOM     12  C   UNL     1      -2.610   9.795  15.848  0.00  0.00    +0.000 C 
BRANCH  11  13
ATOM     13  C   UNL     1      -4.031  10.368  17.856  0.00  0.00    +0.000 C 
BRANCH  13  14
ATOM     14  C   UNL     1      -5.236  11.238  17.718  0.00  0.00    +0.000 A 
ATOM     15  N   UNL     1      -5.327  12.333  16.977  0.00  0.00    +0.000 NA
ATOM     16  N   UNL     1      -6.585  12.855  17.139  0.00  0.00    +0.000 NA
ATOM     17  C   UNL     1      -7.243  12.070  17.956  0.00  0.00    +0.000 A 
ATOM     18  N   UNL     1      -6.437  11.043  18.348  0.00  0.00    +0.000 N 
ATOM     19  C   UNL     1      -6.802   9.979  19.239  0.00  0.00    +0.000 C 
ENDBRANCH  13  14
ENDBRANCH  11  13
ENDBRANCH   9  11
ENDBRANCH   3   5
BRANCH   1  20
ATOM     20  C   UNL     1       2.337   7.227  19.763  0.00  0.00    +0.000 C 
BRANCH  20  23
ATOM     21  C   UNL     1       1.012   4.531  20.407  0.00  0.00    +0.000 C 
ATOM     22  C   UNL     1       1.972   4.708  19.260  0.00  0.00    +0.000 A 
ATOM     23  C   UNL     1       2.574   5.957  18.969  0.00  0.00    +0.000 A 
ATOM     24  C   UNL     1       3.526   6.010  17.943  0.00  0.00    +0.000 A 
ATOM     25  C   UNL     1       3.817   4.869  17.221  0.00  0.00    +0.000 A 
ATOM     26  N   UNL     1       3.208   3.689  17.424  0.00  0.00    +0.000 NA
ATOM     27  C   UNL     1       2.286   3.610  18.427  0.00  0.00    +0.000 A 
BRANCH  27  28
ATOM     28  C   UNL     1       1.602   2.262  18.578  0.00  0.00    +0.000 C 
ATOM     29  F   UNL     1       1.875   1.636  19.759  0.00  0.00    +0.000 F 
ATOM     30  F   UNL     1       0.241   2.343  18.505  0.00  0.00    +0.000 F 
ENDBRANCH  27  28
ENDBRANCH  20  23
ENDBRANCH   1  20
TORSDOF 7
ENDMDL
MODEL 2
REMARK VINA RESULT:      -8.2      8.230     11.253
REMARK  Name = 
REMARK  10 active torsions:
REMARK  status: ('A' for Active; 'I' for Inactive)
REMARK    1  A    between atoms: C_1  and  C_2
REMARK    2  A    between atoms: C_3  and  C_4
REMARK    3  A    between atoms: C_4  and  C_5
REMARK    4  A    between atoms: N_7  and  C_8
REMARK    5  A    between atoms: C_12  and  C_13
REMARK    6  A    between atoms: C_13  and  C_14
REMARK    7  A    between atoms: C_13  and  C_15
REMARK    8  A    between atoms: C_15  and  C_16
REMARK    9  A    between atoms: N_20  and  C_21
REMARK   10  A    between atoms: C_26  and  C_27
REMARK                            x       y       z     vdW  Elec       q    Type
REMARK                         _______ _______ _______ _____ _____    ______ ____
ROOT
ATOM      1  C   UNL     1       8.451   9.849  18.186  0.00  0.00    +0.000 C 
ATOM      2  O   UNL     1       8.980   9.515  19.245  0.00  0.00    +0.000 OA
ATOM      3  N   UNL     1       7.731   9.001  17.357  0.00  0.00    +0.000 N 
ATOM      4  H   UNL     1       7.717   9.234  16.371  0.00  0.00    +0.000 HD
ENDROOT
BRANCH   3   5
ATOM      5  C   UNL     1       7.464   7.656  17.699  0.00  0.00    +0.000 A 
ATOM      6  C   UNL     1       8.211   6.975  18.665  0.00  0.00    +0.000 A 
ATOM      7  C   UNL     1       7.972   5.624  18.919  0.00  0.00    +0.000 A 
ATOM      8  C   UNL     1       6.997   4.939  18.195  0.00  0.00    +0.000 A 
ATOM      9  C   UNL     1       6.214   5.613  17.245  0.00  0.00    +0.000 A 
ATOM     10  C   UNL     1       6.432   6.989  17.038  0.00  0.00    +0.000 A 
BRANCH   9  11
ATOM     11  C   UNL     1       5.139   4.903  16.433  0.00  0.00    +0.000 C 
ATOM     12  C   UNL     1       5.609   4.611  15.001  0.00  0.00    +0.000 C 
BRANCH  11  13
ATOM     13  C   UNL     1       4.658   3.611  17.117  0.00  0.00    +0.000 C 
BRANCH  13  14
ATOM     14  C   UNL     1       3.252   3.721  17.605  0.00  0.00    +0.000 A 
ATOM     15  N   UNL     1       2.172   3.270  16.984  0.00  0.00    +0.000 NA
ATOM     16  N   UNL     1       1.077   3.588  17.745  0.00  0.00    +0.000 NA
ATOM     17  C   UNL     1       1.501   4.210  18.819  0.00  0.00    +0.000 A 
ATOM     18  N   UNL     1       2.859   4.318  18.774  0.00  0.00    +0.000 N 
ATOM     19  C   UNL     1       3.687   4.935  19.771  0.00  0.00    +0.000 C 
ENDBRANCH  13  14
ENDBRANCH  11  13
ENDBRANCH   9  11
ENDBRANCH   3   5
BRANCH   1  20
ATOM     20  C   UNL     1       8.520  11.292  17.713  0.00  0.00    +0.000 C 
BRANCH  20  23
ATOM     21  C   UNL     1       8.269  14.031  19.084  0.00  0.00    +0.000 C 
ATOM     22  C   UNL     1       9.601  13.383  18.807  0.00  0.00    +0.000 A 
ATOM     23  C   UNL     1       9.704  12.117  18.179  0.00  0.00    +0.000 A 
ATOM     24  C   UNL     1      10.983  11.632  17.875  0.00  0.00    +0.000 A 
ATOM     25  C   UNL     1      12.096  12.369  18.232  0.00  0.00    +0.000 A 
ATOM     26  N   UNL     1      12.030  13.535  18.895  0.00  0.00    +0.000 NA
ATOM     27  C   UNL     1      10.795  14.034  19.190  0.00  0.00    +0.000 A 
BRANCH  27  28
ATOM     28  C   UNL     1      10.788  15.332  19.978  0.00  0.00    +0.000 C 
ATOM     29  F   UNL     1      11.949  15.573  20.653  0.00  0.00    +0.000 F 
ATOM     30  F   UNL     1      10.578  16.431  19.195  0.00  0.00    +0.000 F 
ENDBRANCH  27  28
ENDBRANCH  20  23
ENDBRANCH   1  20
TORSDOF 7
ENDMDL
MODEL 3
REMARK VINA RESULT:      -8.1      1.868      3.091
REMARK  Name = 
REMARK  10 active torsions:
REMARK  status: ('A' for Active; 'I' for Inactive)
REMARK    1  A    between atoms: C_1  and  C_2
REMARK    2  A    between atoms: C_3  and  C_4
REMARK    3  A    between atoms: C_4  and  C_5
REMARK    4  A    between atoms: N_7  and  C_8
REMARK    5  A    between atoms: C_12  and  C_13
REMARK    6  A    between atoms: C_13  and  C_14
REMARK    7  A    between atoms: C_13  and  C_15
REMARK    8  A    between atoms: C_15  and  C_16
REMARK    9  A    between atoms: N_20  and  C_21
REMARK   10  A    between atoms: C_26  and  C_27
REMARK                            x       y       z     vdW  Elec       q    Type
REMARK                         _______ _______ _______ _____ _____    ______ ____
ROOT
ATOM      1  C   UNL     1       2.598   8.193  18.053  0.00  0.00    +0.000 C 
ATOM      2  O   UNL     1       2.606   9.360  17.661  0.00  0.00    +0.000 OA
ATOM      3  N   UNL     1       2.058   7.767  19.258  0.00  0.00    +0.000 N 
ATOM      4  H   UNL     1       2.463   6.932  19.667  0.00  0.00    +0.000 HD
ENDROOT
BRANCH   3   5
ATOM      5  C   UNL     1       1.380   8.643  20.136  0.00  0.00    +0.000 A 
ATOM      6  C   UNL     1       1.425   8.483  21.523  0.00  0.00    +0.000 A 
ATOM      7  C   UNL     1       0.677   9.317  22.355  0.00  0.00    +0.000 A 
ATOM      8  C   UNL     1      -0.137  10.306  21.803  0.00  0.00    +0.000 A 
ATOM      9  C   UNL     1      -0.169  10.504  20.414  0.00  0.00    +0.000 A 
ATOM     10  C   UNL     1       0.631   9.688  19.592  0.00  0.00    +0.000 A 
BRANCH   9  11
ATOM     11  C   UNL     1      -1.044  11.572  19.770  0.00  0.00    +0.000 C 
ATOM     12  C   UNL     1      -0.397  12.961  19.853  0.00  0.00    +0.000 C 
BRANCH  11  13
ATOM     13  C   UNL     1      -1.396  11.227  18.312  0.00  0.00    +0.000 C 
BRANCH  13  14
ATOM     14  C   UNL     1      -2.846  11.427  18.021  0.00  0.00    +0.000 A 
ATOM     15  N   UNL     1      -3.775  11.791  18.893  0.00  0.00    +0.000 NA
ATOM     16  N   UNL     1      -4.979  11.841  18.240  0.00  0.00    +0.000 NA
ATOM     17  C   UNL     1      -4.769  11.525  16.985  0.00  0.00    +0.000 A 
ATOM     18  N   UNL     1      -3.446  11.255  16.801  0.00  0.00    +0.000 N 
ATOM     19  C   UNL     1      -2.829  10.875  15.561  0.00  0.00    +0.000 C 
ENDBRANCH  13  14
ENDBRANCH  11  13
ENDBRANCH   9  11
ENDBRANCH   3   5
BRANCH   1  20
ATOM     20  C   UNL     1       3.169   7.085  17.185  0.00  0.00    +0.000 C 
BRANCH  20  23
ATOM     21  C   UNL     1       1.910   4.385  17.939  0.00  0.00    +0.000 C 
ATOM     22  C   UNL     1       3.346   4.723  18.246  0.00  0.00    +0.000 A 
ATOM     23  C   UNL     1       3.917   5.970  17.889  0.00  0.00    +0.000 A 
ATOM     24  C   UNL     1       5.231   6.237  18.296  0.00  0.00    +0.000 A 
ATOM     25  C   UNL     1       5.942   5.273  18.985  0.00  0.00    +0.000 A 
ATOM     26  N   UNL     1       5.453   4.055  19.271  0.00  0.00    +0.000 NA
ATOM     27  C   UNL     1       4.171   3.777  18.897  0.00  0.00    +0.000 A 
BRANCH  27  28
ATOM     28  C   UNL     1       3.691   2.371  19.209  0.00  0.00    +0.000 C 
ATOM     29  F   UNL     1       3.767   1.515  18.150  0.00  0.00    +0.000 F 
ATOM     30  F   UNL     1       4.395   1.779  20.219  0.00  0.00    +0.000 F 
ENDBRANCH  27  28
ENDBRANCH  20  23
ENDBRANCH   1  20
TORSDOF 7
ENDMDL
MODEL 4
REMARK VINA RESULT:      -8.0      4.614     10.113
REMARK  Name = 
REMARK  10 active torsions:
REMARK  status: ('A' for Active; 'I' for Inactive)
REMARK    1  A    between atoms: C_1  and  C_2
REMARK    2  A    between atoms: C_3  and  C_4
REMARK    3  A    between atoms: C_4  and  C_5
REMARK    4  A    between atoms: N_7  and  C_8
REMARK    5  A    between atoms: C_12  and  C_13
REMARK    6  A    between atoms: C_13  and  C_14
REMARK    7  A    between atoms: C_13  and  C_15
REMARK    8  A    between atoms: C_15  and  C_16
REMARK    9  A    between atoms: N_20  and  C_21
REMARK   10  A    between atoms: C_26  and  C_27
REMARK                            x       y       z     vdW  Elec       q    Type
REMARK                         _______ _______ _______ _____ _____    ______ ____
ROOT
ATOM      1  C   UNL     1       1.770   6.367  20.650  0.00  0.00    +0.000 C 
ATOM      2  O   UNL     1       0.851   5.574  20.451  0.00  0.00    +0.000 OA
ATOM      3  N   UNL     1       3.070   6.204  20.191  0.00  0.00    +0.000 N 
ATOM      4  H   UNL     1       3.802   6.643  20.737  0.00  0.00    +0.000 HD
ENDROOT
BRANCH   3   5
ATOM      5  C   UNL     1       3.450   5.122  19.365  0.00  0.00    +0.000 A 
ATOM      6  C   UNL     1       3.454   3.803  19.827  0.00  0.00    +0.000 A 
ATOM      7  C   UNL     1       3.914   2.770  19.009  0.00  0.00    +0.000 A 
ATOM      8  C   UNL     1       4.390   3.053  17.729  0.00  0.00    +0.000 A 
ATOM      9  C   UNL     1       4.363   4.366  17.235  0.00  0.00    +0.000 A 
ATOM     10  C   UNL     1       3.848   5.389  18.054  0.00  0.00    +0.000 A 
BRANCH   9  11
ATOM     11  C   UNL     1       4.873   4.717  15.844  0.00  0.00    +0.000 C 
ATOM     12  C   UNL     1       5.209   6.209  15.722  0.00  0.00    +0.000 C 
BRANCH  11  13
ATOM     13  C   UNL     1       6.084   3.857  15.439  0.00  0.00    +0.000 C 
BRANCH  13  14
ATOM     14  C   UNL     1       6.874   4.480  14.337  0.00  0.00    +0.000 A 
ATOM     15  N   UNL     1       7.834   5.382  14.478  0.00  0.00    +0.000 NA
ATOM     16  N   UNL     1       8.293   5.718  13.230  0.00  0.00    +0.000 NA
ATOM     17  C   UNL     1       7.623   5.009  12.353  0.00  0.00    +0.000 A 
ATOM     18  N   UNL     1       6.721   4.220  13.000  0.00  0.00    +0.000 N 
ATOM     19  C   UNL     1       5.807   3.302  12.380  0.00  0.00    +0.000 C 
ENDBRANCH  13  14
ENDBRANCH  11  13
ENDBRANCH   9  11
ENDBRANCH   3   5
BRANCH   1  20
ATOM     20  C   UNL     1       1.522   7.658  21.412  0.00  0.00    +0.000 C 
BRANCH  20  23
ATOM     21  C   UNL     1      -0.477   9.689  22.562  0.00  0.00    +0.000 C 
ATOM     22  C   UNL     1       0.031   9.765  21.146  0.00  0.00    +0.000 A 
ATOM     23  C   UNL     1       0.957   8.826  20.627  0.00  0.00    +0.000 A 
ATOM     24  C   UNL     1       1.302   8.917  19.273  0.00  0.00    +0.000 A 
ATOM     25  C   UNL     1       0.775   9.933  18.499  0.00  0.00    +0.000 A 
ATOM     26  N   UNL     1      -0.045  10.881  18.982  0.00  0.00    +0.000 NA
ATOM     27  C   UNL     1      -0.406  10.806  20.295  0.00  0.00    +0.000 A 
BRANCH  27  28
ATOM     28  C   UNL     1      -1.299  11.930  20.791  0.00  0.00    +0.000 C 
ATOM     29  F   UNL     1      -0.676  12.792  21.645  0.00  0.00    +0.000 F 
ATOM     30  F   UNL     1      -1.797  12.702  19.780  0.00  0.00    +0.000 F 
ENDBRANCH  27  28
ENDBRANCH  20  23
ENDBRANCH   1  20
TORSDOF 7
ENDMDL
MODEL 5
REMARK VINA RESULT:      -8.0      4.258     10.267
REMARK  Name = 
REMARK  10 active torsions:
REMARK  status: ('A' for Active; 'I' for Inactive)
REMARK    1  A    between atoms: C_1  and  C_2
REMARK    2  A    between atoms: C_3  and  C_4
REMARK    3  A    between atoms: C_4  and  C_5
REMARK    4  A    between atoms: N_7  and  C_8
REMARK    5  A    between atoms: C_12  and  C_13
REMARK    6  A    between atoms: C_13  and  C_14
REMARK    7  A    between atoms: C_13  and  C_15
REMARK    8  A    between atoms: C_15  and  C_16
REMARK    9  A    between atoms: N_20  and  C_21
REMARK   10  A    between atoms: C_26  and  C_27
REMARK                            x       y       z     vdW  Elec       q    Type
REMARK                         _______ _______ _______ _____ _____    ______ ____
ROOT
ATOM      1  C   UNL     1       1.856   8.810  18.455  0.00  0.00    +0.000 C 
ATOM      2  O   UNL     1       2.045   9.026  17.258  0.00  0.00    +0.000 OA
ATOM      3  N   UNL     1       2.030   7.581  19.075  0.00  0.00    +0.000 N 
ATOM      4  H   UNL     1       1.467   7.404  19.899  0.00  0.00    +0.000 HD
ENDROOT
BRANCH   3   5
ATOM      5  C   UNL     1       2.530   6.451  18.389  0.00  0.00    +0.000 A 
ATOM      6  C   UNL     1       1.863   5.223  18.398  0.00  0.00    +0.000 A 
ATOM      7  C   UNL     1       2.426   4.108  17.778  0.00  0.00    +0.000 A 
ATOM      8  C   UNL     1       3.672   4.209  17.158  0.00  0.00    +0.000 A 
ATOM      9  C   UNL     1       4.342   5.441  17.108  0.00  0.00    +0.000 A 
ATOM     10  C   UNL     1       3.735   6.568  17.694  0.00  0.00    +0.000 A 
BRANCH   9  11
ATOM     11  C   UNL     1       5.703   5.594  16.442  0.00  0.00    +0.000 C 
ATOM     12  C   UNL     1       6.807   5.886  17.467  0.00  0.00    +0.000 C 
BRANCH  11  13
ATOM     13  C   UNL     1       6.069   4.366  15.589  0.00  0.00    +0.000 C 
BRANCH  13  14
ATOM     14  C   UNL     1       6.890   4.733  14.397  0.00  0.00    +0.000 A 
ATOM     15  N   UNL     1       7.923   5.562  14.386  0.00  0.00    +0.000 NA
ATOM     16  N   UNL     1       8.387   5.650  13.099  0.00  0.00    +0.000 NA
ATOM     17  C   UNL     1       7.647   4.868  12.352  0.00  0.00    +0.000 A 
ATOM     18  N   UNL     1       6.693   4.273  13.122  0.00  0.00    +0.000 N 
ATOM     19  C   UNL     1       5.696   3.347  12.662  0.00  0.00    +0.000 C 
ENDBRANCH  13  14
ENDBRANCH  11  13
ENDBRANCH   9  11
ENDBRANCH   3   5
BRANCH   1  20
ATOM     20  C   UNL     1       1.439   9.937  19.384  0.00  0.00    +0.000 C 
BRANCH  20  23
ATOM     21  C   UNL     1       0.047  11.762  21.428  0.00  0.00    +0.000 C 
ATOM     22  C   UNL     1      -0.607  11.345  20.136  0.00  0.00    +0.000 A 
ATOM     23  C   UNL     1       0.046  10.508  19.199  0.00  0.00    +0.000 A 
ATOM     24  C   UNL     1      -0.671  10.094  18.069  0.00  0.00    +0.000 A 
ATOM     25  C   UNL     1      -1.963  10.544  17.877  0.00  0.00    +0.000 A 
ATOM     26  N   UNL     1      -2.581  11.398  18.709  0.00  0.00    +0.000 NA
ATOM     27  C   UNL     1      -1.907  11.805  19.823  0.00  0.00    +0.000 A 
BRANCH  27  28
ATOM     28  C   UNL     1      -2.641  12.803  20.701  0.00  0.00    +0.000 C 
ATOM     29  F   UNL     1      -3.696  13.409  20.083  0.00  0.00    +0.000 F 
ATOM     30  F   UNL     1      -3.148  12.243  21.839  0.00  0.00    +0.000 F 
ENDBRANCH  27  28
ENDBRANCH  20  23
ENDBRANCH   1  20
TORSDOF 7
ENDMDL
MODEL 6
REMARK VINA RESULT:      -8.0      3.732      4.889
REMARK  Name = 
REMARK  10 active torsions:
REMARK  status: ('A' for Active; 'I' for Inactive)
REMARK    1  A    between atoms: C_1  and  C_2
REMARK    2  A    between atoms: C_3  and  C_4
REMARK    3  A    between atoms: C_4  and  C_5
REMARK    4  A    between atoms: N_7  and  C_8
REMARK    5  A    between atoms: C_12  and  C_13
REMARK    6  A    between atoms: C_13  and  C_14
REMARK    7  A    between atoms: C_13  and  C_15
REMARK    8  A    between atoms: C_15  and  C_16
REMARK    9  A    between atoms: N_20  and  C_21
REMARK   10  A    between atoms: C_26  and  C_27
REMARK                            x       y       z     vdW  Elec       q    Type
REMARK                         _______ _______ _______ _____ _____    ______ ____
ROOT
ATOM      1  C   UNL     1       3.004   6.569  19.079  0.00  0.00    +0.000 C 
ATOM      2  O   UNL     1       2.715   6.843  17.915  0.00  0.00    +0.000 OA
ATOM      3  N   UNL     1       2.530   7.248  20.193  0.00  0.00    +0.000 N 
ATOM      4  H   UNL     1       3.122   7.240  21.015  0.00  0.00    +0.000 HD
ENDROOT
BRANCH   3   5
ATOM      5  C   UNL     1       1.586   8.295  20.095  0.00  0.00    +0.000 A 
ATOM      6  C   UNL     1       1.395   9.012  18.912  0.00  0.00    +0.000 A 
ATOM      7  C   UNL     1       0.513  10.093  18.875  0.00  0.00    +0.000 A 
ATOM      8  C   UNL     1      -0.172  10.475  20.029  0.00  0.00    +0.000 A 
ATOM      9  C   UNL     1      -0.019   9.747  21.218  0.00  0.00    +0.000 A 
ATOM     10  C   UNL     1       0.835   8.627  21.225  0.00  0.00    +0.000 A 
BRANCH   9  11
ATOM     11  C   UNL     1      -0.747  10.130  22.500  0.00  0.00    +0.000 C 
ATOM     12  C   UNL     1      -0.071   9.529  23.739  0.00  0.00    +0.000 C 
BRANCH  11  13
ATOM     13  C   UNL     1      -0.888  11.656  22.649  0.00  0.00    +0.000 C 
BRANCH  13  14
ATOM     14  C   UNL     1      -2.315  12.089  22.683  0.00  0.00    +0.000 A 
ATOM     15  N   UNL     1      -3.191  11.820  23.640  0.00  0.00    +0.000 NA
ATOM     16  N   UNL     1      -4.394  12.373  23.288  0.00  0.00    +0.000 NA
ATOM     17  C   UNL     1      -4.235  12.982  22.138  0.00  0.00    +0.000 A 
ATOM     18  N   UNL     1      -2.947  12.828  21.718  0.00  0.00    +0.000 N 
ATOM     19  C   UNL     1      -2.389  13.354  20.504  0.00  0.00    +0.000 C 
ENDBRANCH  13  14
ENDBRANCH  11  13
ENDBRANCH   9  11
ENDBRANCH   3   5
BRANCH   1  20
ATOM     20  C   UNL     1       3.907   5.388  19.392  0.00  0.00    +0.000 C 
BRANCH  20  23
ATOM     21  C   UNL     1       3.752   3.942  16.684  0.00  0.00    +0.000 C 
ATOM     22  C   UNL     1       5.040   4.499  17.233  0.00  0.00    +0.000 A 
ATOM     23  C   UNL     1       5.099   5.168  18.480  0.00  0.00    +0.000 A 
ATOM     24  C   UNL     1       6.353   5.571  18.957  0.00  0.00    +0.000 A 
ATOM     25  C   UNL     1       7.480   5.349  18.188  0.00  0.00    +0.000 A 
ATOM     26  N   UNL     1       7.445   4.785  16.969  0.00  0.00    +0.000 NA
ATOM     27  C   UNL     1       6.236   4.373  16.490  0.00  0.00    +0.000 A 
BRANCH  27  28
ATOM     28  C   UNL     1       6.257   3.784  15.091  0.00  0.00    +0.000 C 
ATOM     29  F   UNL     1       5.182   4.137  14.328  0.00  0.00    +0.000 F 
ATOM     30  F   UNL     1       7.359   4.150  14.373  0.00  0.00    +0.000 F 
ENDBRANCH  27  28
ENDBRANCH  20  23
ENDBRANCH   1  20
TORSDOF 7
ENDMDL
MODEL 7
REMARK VINA RESULT:      -8.0      1.534      1.746
REMARK  Name = 
REMARK  10 active torsions:
REMARK  status: ('A' for Active; 'I' for Inactive)
REMARK    1  A    between atoms: C_1  and  C_2
REMARK    2  A    between atoms: C_3  and  C_4
REMARK    3  A    between atoms: C_4  and  C_5
REMARK    4  A    between atoms: N_7  and  C_8
REMARK    5  A    between atoms: C_12  and  C_13
REMARK    6  A    between atoms: C_13  and  C_14
REMARK    7  A    between atoms: C_13  and  C_15
REMARK    8  A    between atoms: C_15  and  C_16
REMARK    9  A    between atoms: N_20  and  C_21
REMARK   10  A    between atoms: C_26  and  C_27
REMARK                            x       y       z     vdW  Elec       q    Type
REMARK                         _______ _______ _______ _____ _____    ______ ____
ROOT
ATOM      1  C   UNL     1       2.378   7.812  18.415  0.00  0.00    +0.000 C 
ATOM      2  O   UNL     1       2.127   7.491  19.576  0.00  0.00    +0.000 OA
ATOM      3  N   UNL     1       1.737   8.826  17.718  0.00  0.00    +0.000 N 
ATOM      4  H   UNL     1       1.698   8.729  16.710  0.00  0.00    +0.000 HD
ENDROOT
BRANCH   3   5
ATOM      5  C   UNL     1       0.765   9.659  18.317  0.00  0.00    +0.000 A 
ATOM      6  C   UNL     1       0.939  10.201  19.593  0.00  0.00    +0.000 A 
ATOM      7  C   UNL     1      -0.077  10.952  20.185  0.00  0.00    +0.000 A 
ATOM      8  C   UNL     1      -1.282  11.151  19.512  0.00  0.00    +0.000 A 
ATOM      9  C   UNL     1      -1.463  10.643  18.217  0.00  0.00    +0.000 A 
ATOM     10  C   UNL     1      -0.409   9.932  17.613  0.00  0.00    +0.000 A 
BRANCH   9  11
ATOM     11  C   UNL     1      -2.763  10.837  17.448  0.00  0.00    +0.000 C 
ATOM     12  C   UNL     1      -2.873   9.866  16.264  0.00  0.00    +0.000 C 
BRANCH  11  13
ATOM     13  C   UNL     1      -3.997  10.717  18.360  0.00  0.00    +0.000 C 
BRANCH  13  14
ATOM     14  C   UNL     1      -5.012  11.773  18.076  0.00  0.00    +0.000 A 
ATOM     15  N   UNL     1      -5.373  12.208  16.878  0.00  0.00    +0.000 NA
ATOM     16  N   UNL     1      -6.310  13.195  17.044  0.00  0.00    +0.000 NA
ATOM     17  C   UNL     1      -6.518  13.337  18.331  0.00  0.00    +0.000 A 
ATOM     18  N   UNL     1      -5.725  12.468  19.018  0.00  0.00    +0.000 N 
ATOM     19  C   UNL     1      -5.672  12.325  20.446  0.00  0.00    +0.000 C 
ENDBRANCH  13  14
ENDBRANCH  11  13
ENDBRANCH   9  11
ENDBRANCH   3   5
BRANCH   1  20
ATOM     20  C   UNL     1       3.486   7.113  17.645  0.00  0.00    +0.000 C 
BRANCH  20  23
ATOM     21  C   UNL     1       1.766   4.567  17.683  0.00  0.00    +0.000 C 
ATOM     22  C   UNL     1       3.178   4.598  18.208  0.00  0.00    +0.000 A 
ATOM     23  C   UNL     1       3.964   5.777  18.180  0.00  0.00    +0.000 A 
ATOM     24  C   UNL     1       5.232   5.740  18.774  0.00  0.00    +0.000 A 
ATOM     25  C   UNL     1       5.696   4.560  19.322  0.00  0.00    +0.000 A 
ATOM     26  N   UNL     1       5.005   3.409  19.296  0.00  0.00    +0.000 NA
ATOM     27  C   UNL     1       3.762   3.423  18.734  0.00  0.00    +0.000 A 
BRANCH  27  28
ATOM     28  C   UNL     1       3.049   2.083  18.695  0.00  0.00    +0.000 C 
ATOM     29  F   UNL     1       1.928   2.032  19.471  0.00  0.00    +0.000 F 
ATOM     30  F   UNL     1       2.649   1.727  17.439  0.00  0.00    +0.000 F 
ENDBRANCH  27  28
ENDBRANCH  20  23
ENDBRANCH   1  20
TORSDOF 7
ENDMDL
MODEL 8
REMARK VINA RESULT:      -7.9      3.704      4.810
REMARK  Name = 
REMARK  10 active torsions:
REMARK  status: ('A' for Active; 'I' for Inactive)
REMARK    1  A    between atoms: C_1  and  C_2
REMARK    2  A    between atoms: C_3  and  C_4
REMARK    3  A    between atoms: C_4  and  C_5
REMARK    4  A    between atoms: N_7  and  C_8
REMARK    5  A    between atoms: C_12  and  C_13
REMARK    6  A    between atoms: C_13  and  C_14
REMARK    7  A    between atoms: C_13  and  C_15
REMARK    8  A    between atoms: C_15  and  C_16
REMARK    9  A    between atoms: N_20  and  C_21
REMARK   10  A    between atoms: C_26  and  C_27
REMARK                            x       y       z     vdW  Elec       q    Type
REMARK                         _______ _______ _______ _____ _____    ______ ____
ROOT
ATOM      1  C   UNL     1       2.815   5.782  19.426  0.00  0.00    +0.000 C 
ATOM      2  O   UNL     1       1.726   5.251  19.212  0.00  0.00    +0.000 OA
ATOM      3  N   UNL     1       3.044   7.151  19.419  0.00  0.00    +0.000 N 
ATOM      4  H   UNL     1       3.981   7.453  19.181  0.00  0.00    +0.000 HD
ENDROOT
BRANCH   3   5
ATOM      5  C   UNL     1       2.004   8.091  19.237  0.00  0.00    +0.000 A 
ATOM      6  C   UNL     1       1.688   8.610  17.979  0.00  0.00    +0.000 A 
ATOM      7  C   UNL     1       0.710   9.597  17.848  0.00  0.00    +0.000 A 
ATOM      8  C   UNL     1       0.054  10.084  18.979  0.00  0.00    +0.000 A 
ATOM      9  C   UNL     1       0.333   9.551  20.246  0.00  0.00    +0.000 A 
ATOM     10  C   UNL     1       1.286   8.520  20.354  0.00  0.00    +0.000 A 
BRANCH   9  11
ATOM     11  C   UNL     1      -0.360  10.054  21.505  0.00  0.00    +0.000 C 
ATOM     12  C   UNL     1       0.009   9.210  22.732  0.00  0.00    +0.000 C 
BRANCH  11  13
ATOM     13  C   UNL     1      -0.069  11.543  21.768  0.00  0.00    +0.000 C 
BRANCH  13  14
ATOM     14  C   UNL     1      -1.233  12.413  21.427  0.00  0.00    +0.000 A 
ATOM     15  N   UNL     1      -1.363  13.151  20.334  0.00  0.00    +0.000 NA
ATOM     16  N   UNL     1      -2.558  13.818  20.408  0.00  0.00    +0.000 NA
ATOM     17  C   UNL     1      -3.144  13.468  21.527  0.00  0.00    +0.000 A 
ATOM     18  N   UNL     1      -2.350  12.590  22.201  0.00  0.00    +0.000 N 
ATOM     19  C   UNL     1      -2.651  11.982  23.466  0.00  0.00    +0.000 C 
ENDBRANCH  13  14
ENDBRANCH  11  13
ENDBRANCH   9  11
ENDBRANCH   3   5
BRANCH   1  20
ATOM     20  C   UNL     1       4.029   4.937  19.771  0.00  0.00    +0.000 C 
BRANCH  20  23
ATOM     21  C   UNL     1       3.830   3.811  16.918  0.00  0.00    +0.000 C 
ATOM     22  C   UNL     1       5.098   4.416  17.464  0.00  0.00    +0.000 A 
ATOM     23  C   UNL     1       5.177   4.937  18.779  0.00  0.00    +0.000 A 
ATOM     24  C   UNL     1       6.420   5.394  19.236  0.00  0.00    +0.000 A 
ATOM     25  C   UNL     1       7.511   5.369  18.389  0.00  0.00    +0.000 A 
ATOM     26  N   UNL     1       7.448   4.951  17.113  0.00  0.00    +0.000 NA
ATOM     27  C   UNL     1       6.252   4.489  16.650  0.00  0.00    +0.000 A 
BRANCH  27  28
ATOM     28  C   UNL     1       6.235   4.073  15.190  0.00  0.00    +0.000 C 
ATOM     29  F   UNL     1       5.301   4.727  14.441  0.00  0.00    +0.000 F 
ATOM     30  F   UNL     1       7.429   4.282  14.561  0.00  0.00    +0.000 F 
ENDBRANCH  27  28
ENDBRANCH  20  23
ENDBRANCH   1  20
TORSDOF 7
ENDMDL
MODEL 9
REMARK VINA RESULT:      -7.9      4.068      5.323
REMARK  Name = 
REMARK  10 active torsions:
REMARK  status: ('A' for Active; 'I' for Inactive)
REMARK    1  A    between atoms: C_1  and  C_2
REMARK    2  A    between atoms: C_3  and  C_4
REMARK    3  A    between atoms: C_4  and  C_5
REMARK    4  A    between atoms: N_7  and  C_8
REMARK    5  A    between atoms: C_12  and  C_13
REMARK    6  A    between atoms: C_13  and  C_14
REMARK    7  A    between atoms: C_13  and  C_15
REMARK    8  A    between atoms: C_15  and  C_16
REMARK    9  A    between atoms: N_20  and  C_21
REMARK   10  A    between atoms: C_26  and  C_27
REMARK                            x       y       z     vdW  Elec       q    Type
REMARK                         _______ _______ _______ _____ _____    ______ ____
ROOT
ATOM      1  C   UNL     1       2.275   5.474  20.145  0.00  0.00    +0.000 C 
ATOM      2  O   UNL     1       1.111   5.076  20.169  0.00  0.00    +0.000 OA
ATOM      3  N   UNL     1       2.659   6.803  20.240  0.00  0.00    +0.000 N 
ATOM      4  H   UNL     1       3.536   7.055  19.797  0.00  0.00    +0.000 HD
ENDROOT
BRANCH   3   5
ATOM      5  C   UNL     1       1.730   7.846  20.456  0.00  0.00    +0.000 A 
ATOM      6  C   UNL     1       1.102   8.034  21.690  0.00  0.00    +0.000 A 
ATOM      7  C   UNL     1       0.130   9.023  21.844  0.00  0.00    +0.000 A 
ATOM      8  C   UNL     1      -0.234   9.820  20.758  0.00  0.00    +0.000 A 
ATOM      9  C   UNL     1       0.410   9.669  19.521  0.00  0.00    +0.000 A 
ATOM     10  C   UNL     1       1.425   8.702  19.396  0.00  0.00    +0.000 A 
BRANCH   9  11
ATOM     11  C   UNL     1       0.043  10.518  18.311  0.00  0.00    +0.000 C 
ATOM     12  C   UNL     1      -1.179   9.957  17.572  0.00  0.00    +0.000 C 
BRANCH  11  13
ATOM     13  C   UNL     1      -0.185  11.993  18.688  0.00  0.00    +0.000 C 
BRANCH  13  14
ATOM     14  C   UNL     1       1.097  12.714  18.941  0.00  0.00    +0.000 A 
ATOM     15  N   UNL     1       2.093  12.862  18.080  0.00  0.00    +0.000 NA
ATOM     16  N   UNL     1       3.095  13.562  18.700  0.00  0.00    +0.000 NA
ATOM     17  C   UNL     1       2.694  13.843  19.917  0.00  0.00    +0.000 A 
ATOM     18  N   UNL     1       1.448  13.329  20.114  0.00  0.00    +0.000 N 
ATOM     19  C   UNL     1       0.676  13.433  21.320  0.00  0.00    +0.000 C 
ENDBRANCH  13  14
ENDBRANCH  11  13
ENDBRANCH   9  11
ENDBRANCH   3   5
BRANCH   1  20
ATOM     20  C   UNL     1       3.424   4.485  20.048  0.00  0.00    +0.000 C 
BRANCH  20  23
ATOM     21  C   UNL     1       3.133   3.541  17.138  0.00  0.00    +0.000 C 
ATOM     22  C   UNL     1       4.341   4.298  17.628  0.00  0.00    +0.000 A 
ATOM     23  C   UNL     1       4.462   4.733  18.970  0.00  0.00    +0.000 A 
ATOM     24  C   UNL     1       5.659   5.347  19.362  0.00  0.00    +0.000 A 
ATOM     25  C   UNL     1       6.658   5.552  18.430  0.00  0.00    +0.000 A 
ATOM     26  N   UNL     1       6.541   5.218  17.134  0.00  0.00    +0.000 NA
ATOM     27  C   UNL     1       5.390   4.607  16.732  0.00  0.00    +0.000 A 
BRANCH  27  28
ATOM     28  C   UNL     1       5.301   4.295  15.249  0.00  0.00    +0.000 C 
ATOM     29  F   UNL     1       5.247   5.403  14.455  0.00  0.00    +0.000 F 
ATOM     30  F   UNL     1       6.358   3.561  14.793  0.00  0.00    +0.000 F 
ENDBRANCH  27  28
ENDBRANCH  20  23
ENDBRANCH   1  20
TORSDOF 7
ENDMDL
