MODEL 1
REMARK VINA RESULT:      -8.1      0.000      0.000
REMARK  Name = 
REMARK  4 active torsions:
REMARK  status: ('A' for Active; 'I' for Inactive)
REMARK    1  A    between atoms: C_2  and  C_3
REMARK    2  A    between atoms: C_3  and  N_4
REMARK    3  A    between atoms: N_16  and  C_17
REMARK    4  A    between atoms: C_17  and  C_18
REMARK                            x       y       z     vdW  Elec       q    Type
REMARK                         _______ _______ _______ _____ _____    ______ ____
ROOT
ATOM      1  O   UNL     1       2.060   7.800  19.841  0.00  0.00    +0.000 OA
ATOM      2  C   UNL     1       2.191   7.892  18.623  0.00  0.00    +0.000 C 
ATOM      3  N   UNL     1       2.736   6.893  17.836  0.00  0.00    +0.000 N 
ATOM      4  H   UNL     1       2.811   7.074  16.839  0.00  0.00    +0.000 HD
ENDROOT
BRANCH   3   5
ATOM      5  C   UNL     1       3.401   5.663  18.364  0.00  0.00    +0.000 C 
ATOM      6  C   UNL     1       4.888   5.877  18.861  0.00  0.00    +0.000 C 
ATOM      7  C   UNL     1       5.247   4.565  18.137  0.00  0.00    +0.000 C 
ATOM      8  C   UNL     1       4.099   4.887  17.164  0.00  0.00    +0.000 C 
BRANCH   5   9
ATOM      9  C   UNL     1       2.455   4.734  19.300  0.00  0.00    +0.000 A 
ATOM     10  C   UNL     1       1.468   3.884  18.752  0.00  0.00    +0.000 A 
ATOM     11  C   UNL     1       0.815   2.913  19.517  0.00  0.00    +0.000 A 
ATOM     12  C   UNL     1       1.102   2.784  20.870  0.00  0.00    +0.000 A 
ATOM     13  C   UNL     1       2.003   3.660  21.465  0.00  0.00    +0.000 A 
ATOM     14  C   UNL     1       2.652   4.629  20.692  0.00  0.00    +0.000 A 
ENDBRANCH   5   9
ENDBRANCH   3   5
BRANCH   2  15
ATOM     15  C   UNL     1       1.695   9.113  17.828  0.00  0.00    +0.000 C 
BRANCH  15  16
ATOM     16  N   UNL     1       0.781   9.950  18.598  0.00  0.00    +0.000 N 
ATOM     17  N   UNL     1       1.308  10.494  19.771  0.00  0.00    +0.000 N 
ATOM     18  C   UNL     1       0.613  11.373  20.564  0.00  0.00    +0.000 A 
ATOM     19  O   UNL     1       1.134  11.914  21.533  0.00  0.00    +0.000 OA
ATOM     20  C   UNL     1      -0.789  11.644  20.198  0.00  0.00    +0.000 A 
ATOM     21  C   UNL     1      -1.558  12.510  20.989  0.00  0.00    +0.000 A 
ATOM     22  C   UNL     1      -2.880  12.793  20.637  0.00  0.00    +0.000 A 
ATOM     23  C   UNL     1      -3.435  12.208  19.500  0.00  0.00    +0.000 A 
ATOM     24  C   UNL     1      -2.671  11.345  18.712  0.00  0.00    +0.000 A 
ATOM     25  C   UNL     1      -1.339  11.066  19.055  0.00  0.00    +0.000 A 
ATOM     26  C   UNL     1      -0.523  10.181  18.196  0.00  0.00    +0.000 A 
ATOM     27  O   UNL     1      -1.011   9.686  17.182  0.00  0.00    +0.000 OA
ATOM     28  H   UNL     1       2.315  10.471  19.910  0.00  0.00    +0.000 HD
ENDBRANCH  15  16
ENDBRANCH   2  15
TORSDOF 4
ENDMDL
MODEL 2
REMARK VINA RESULT:      -8.0      1.723      3.713
REMARK  Name = 
REMARK  4 active torsions:
REMARK  status: ('A' for Active; 'I' for Inactive)
REMARK    1  A    between atoms: C_2  and  C_3
REMARK    2  A    between atoms: C_3  and  N_4
REMARK    3  A    between atoms: N_16  and  C_17
REMARK    4  A    between atoms: C_17  and  C_18
REMARK                            x       y       z     vdW  Elec       q    Type
REMARK                         _______ _______ _______ _____ _____    ______ ____
ROOT
ATOM      1  O   UNL     1       2.143   8.151  19.006  0.00  0.00    +0.000 OA
ATOM      2  C   UNL     1       2.083   7.490  20.040  0.00  0.00    +0.000 C 
ATOM      3  N   UNL     1       2.536   6.186  20.141  0.00  0.00    +0.000 N 
ATOM      4  H   UNL     1       2.428   5.724  21.039  0.00  0.00    +0.000 HD
ENDROOT
BRANCH   3   5
ATOM      5  C   UNL     1       2.980   5.349  18.985  0.00  0.00    +0.000 C 
ATOM      6  C   UNL     1       1.898   5.166  17.846  0.00  0.00    +0.000 C 
ATOM      7  C   UNL     1       2.292   3.676  17.804  0.00  0.00    +0.000 C 
ATOM      8  C   UNL     1       2.663   3.821  19.291  0.00  0.00    +0.000 C 
BRANCH   5   9
ATOM      9  C   UNL     1       4.501   5.631  18.494  0.00  0.00    +0.000 A 
ATOM     10  C   UNL     1       4.786   6.473  17.397  0.00  0.00    +0.000 A 
ATOM     11  C   UNL     1       6.083   6.912  17.111  0.00  0.00    +0.000 A 
ATOM     12  C   UNL     1       7.148   6.490  17.898  0.00  0.00    +0.000 A 
ATOM     13  C   UNL     1       6.920   5.591  18.934  0.00  0.00    +0.000 A 
ATOM     14  C   UNL     1       5.619   5.158  19.211  0.00  0.00    +0.000 A 
ENDBRANCH   5   9
ENDBRANCH   3   5
BRANCH   2  15
ATOM     15  C   UNL     1       1.555   8.072  21.363  0.00  0.00    +0.000 C 
BRANCH  15  16
ATOM     16  N   UNL     1       0.661   9.208  21.160  0.00  0.00    +0.000 N 
ATOM     17  N   UNL     1       0.316   9.470  19.832  0.00  0.00    +0.000 N 
ATOM     18  C   UNL     1      -0.583  10.444  19.474  0.00  0.00    +0.000 A 
ATOM     19  O   UNL     1      -0.945  10.587  18.311  0.00  0.00    +0.000 OA
ATOM     20  C   UNL     1      -1.098  11.311  20.549  0.00  0.00    +0.000 A 
ATOM     21  C   UNL     1      -1.995  12.343  20.238  0.00  0.00    +0.000 A 
ATOM     22  C   UNL     1      -2.510  13.154  21.252  0.00  0.00    +0.000 A 
ATOM     23  C   UNL     1      -2.125  12.939  22.574  0.00  0.00    +0.000 A 
ATOM     24  C   UNL     1      -1.231  11.912  22.885  0.00  0.00    +0.000 A 
ATOM     25  C   UNL     1      -0.720  11.087  21.871  0.00  0.00    +0.000 A 
ATOM     26  C   UNL     1       0.197   9.978  22.212  0.00  0.00    +0.000 A 
ATOM     27  O   UNL     1       0.516   9.778  23.382  0.00  0.00    +0.000 OA
ATOM     28  H   UNL     1       0.506   8.761  19.129  0.00  0.00    +0.000 HD
ENDBRANCH  15  16
ENDBRANCH   2  15
TORSDOF 4
ENDMDL
MODEL 3
REMARK VINA RESULT:      -7.8      1.279      1.448
REMARK  Name = 
REMARK  4 active torsions:
REMARK  status: ('A' for Active; 'I' for Inactive)
REMARK    1  A    between atoms: C_2  and  C_3
REMARK    2  A    between atoms: C_3  and  N_4
REMARK    3  A    between atoms: N_16  and  C_17
REMARK    4  A    between atoms: C_17  and  C_18
REMARK                            x       y       z     vdW  Elec       q    Type
REMARK                         _______ _______ _______ _____ _____    ______ ____
ROOT
ATOM      1  O   UNL     1       1.883   7.262  20.447  0.00  0.00    +0.000 OA
ATOM      2  C   UNL     1       2.105   7.710  19.325  0.00  0.00    +0.000 C 
ATOM      3  N   UNL     1       2.728   6.986  18.323  0.00  0.00    +0.000 N 
ATOM      4  H   UNL     1       2.876   7.454  17.434  0.00  0.00    +0.000 HD
ENDROOT
BRANCH   3   5
ATOM      5  C   UNL     1       3.375   5.652  18.514  0.00  0.00    +0.000 C 
ATOM      6  C   UNL     1       4.818   5.703  19.160  0.00  0.00    +0.000 C 
ATOM      7  C   UNL     1       5.250   4.659  18.111  0.00  0.00    +0.000 C 
ATOM      8  C   UNL     1       4.169   5.258  17.194  0.00  0.00    +0.000 C 
BRANCH   5   9
ATOM      9  C   UNL     1       2.380   4.495  19.067  0.00  0.00    +0.000 A 
ATOM     10  C   UNL     1       1.544   3.755  18.201  0.00  0.00    +0.000 A 
ATOM     11  C   UNL     1       0.864   2.608  18.622  0.00  0.00    +0.000 A 
ATOM     12  C   UNL     1       0.972   2.181  19.940  0.00  0.00    +0.000 A 
ATOM     13  C   UNL     1       1.714   2.932  20.844  0.00  0.00    +0.000 A 
ATOM     14  C   UNL     1       2.390   4.079  20.414  0.00  0.00    +0.000 A 
ENDBRANCH   5   9
ENDBRANCH   3   5
BRANCH   2  15
ATOM     15  C   UNL     1       1.649   9.114  18.890  0.00  0.00    +0.000 C 
BRANCH  15  16
ATOM     16  N   UNL     1       0.786   9.754  19.877  0.00  0.00    +0.000 N 
ATOM     17  N   UNL     1       1.025   9.396  21.206  0.00  0.00    +0.000 N 
ATOM     18  C   UNL     1       0.365   9.972  22.263  0.00  0.00    +0.000 A 
ATOM     19  O   UNL     1       0.664   9.712  23.424  0.00  0.00    +0.000 OA
ATOM     20  C   UNL     1      -0.719  10.918  21.944  0.00  0.00    +0.000 A 
ATOM     21  C   UNL     1      -1.449  11.513  22.984  0.00  0.00    +0.000 A 
ATOM     22  C   UNL     1      -2.461  12.431  22.694  0.00  0.00    +0.000 A 
ATOM     23  C   UNL     1      -2.748  12.750  21.367  0.00  0.00    +0.000 A 
ATOM     24  C   UNL     1      -2.022  12.159  20.331  0.00  0.00    +0.000 A 
ATOM     25  C   UNL     1      -0.997  11.244  20.619  0.00  0.00    +0.000 A 
ATOM     26  C   UNL     1      -0.207  10.649  19.518  0.00  0.00    +0.000 A 
ATOM     27  O   UNL     1      -0.449  10.951  18.352  0.00  0.00    +0.000 OA
ATOM     28  H   UNL     1       1.889   8.910  21.432  0.00  0.00    +0.000 HD
ENDBRANCH  15  16
ENDBRANCH   2  15
TORSDOF 4
ENDMDL
MODEL 4
REMARK VINA RESULT:      -7.8      1.263      1.690
REMARK  Name = 
REMARK  4 active torsions:
REMARK  status: ('A' for Active; 'I' for Inactive)
REMARK    1  A    between atoms: C_2  and  C_3
REMARK    2  A    between atoms: C_3  and  N_4
REMARK    3  A    between atoms: N_16  and  C_17
REMARK    4  A    between atoms: C_17  and  C_18
REMARK                            x       y       z     vdW  Elec       q    Type
REMARK                         _______ _______ _______ _____ _____    ______ ____
ROOT
ATOM      1  O   UNL     1       2.163   6.929  20.067  0.00  0.00    +0.000 OA
ATOM      2  C   UNL     1       2.367   7.382  18.943  0.00  0.00    +0.000 C 
ATOM      3  N   UNL     1       3.044   6.691  17.953  0.00  0.00    +0.000 N 
ATOM      4  H   UNL     1       3.171   7.160  17.062  0.00  0.00    +0.000 HD
ENDROOT
BRANCH   3   5
ATOM      5  C   UNL     1       3.772   5.402  18.162  0.00  0.00    +0.000 C 
ATOM      6  C   UNL     1       5.222   5.553  18.777  0.00  0.00    +0.000 C 
ATOM      7  C   UNL     1       5.695   4.511  17.744  0.00  0.00    +0.000 C 
ATOM      8  C   UNL     1       4.563   5.023  16.836  0.00  0.00    +0.000 C 
BRANCH   5   9
ATOM      9  C   UNL     1       2.858   4.202  18.761  0.00  0.00    +0.000 A 
ATOM     10  C   UNL     1       3.045   3.703  20.069  0.00  0.00    +0.000 A 
ATOM     11  C   UNL     1       2.124   2.845  20.678  0.00  0.00    +0.000 A 
ATOM     12  C   UNL     1       0.998   2.426  19.981  0.00  0.00    +0.000 A 
ATOM     13  C   UNL     1       0.824   2.824  18.660  0.00  0.00    +0.000 A 
ATOM     14  C   UNL     1       1.751   3.683  18.059  0.00  0.00    +0.000 A 
ENDBRANCH   5   9
ENDBRANCH   3   5
BRANCH   2  15
ATOM     15  C   UNL     1       1.827   8.750  18.491  0.00  0.00    +0.000 C 
BRANCH  15  16
ATOM     16  N   UNL     1       1.046   9.416  19.529  0.00  0.00    +0.000 N 
ATOM     17  N   UNL     1       1.404   9.103  20.842  0.00  0.00    +0.000 N 
ATOM     18  C   UNL     1       0.832   9.707  21.934  0.00  0.00    +0.000 A 
ATOM     19  O   UNL     1       1.233   9.489  23.072  0.00  0.00    +0.000 OA
ATOM     20  C   UNL     1      -0.286  10.634  21.681  0.00  0.00    +0.000 A 
ATOM     21  C   UNL     1      -0.930  11.256  22.761  0.00  0.00    +0.000 A 
ATOM     22  C   UNL     1      -1.973  12.156  22.531  0.00  0.00    +0.000 A 
ATOM     23  C   UNL     1      -2.379  12.429  21.225  0.00  0.00    +0.000 A 
ATOM     24  C   UNL     1      -1.739  11.810  20.149  0.00  0.00    +0.000 A 
ATOM     25  C   UNL     1      -0.682  10.913  20.375  0.00  0.00    +0.000 A 
ATOM     26  C   UNL     1       0.016  10.289  19.230  0.00  0.00    +0.000 A 
ATOM     27  O   UNL     1      -0.330  10.551  18.080  0.00  0.00    +0.000 OA
ATOM     28  H   UNL     1       2.289   8.632  21.008  0.00  0.00    +0.000 HD
ENDBRANCH  15  16
ENDBRANCH   2  15
TORSDOF 4
ENDMDL
MODEL 5
REMARK VINA RESULT:      -7.7      1.514      3.537
REMARK  Name = 
REMARK  4 active torsions:
REMARK  status: ('A' for Active; 'I' for Inactive)
REMARK    1  A    between atoms: C_2  and  C_3
REMARK    2  A    between atoms: C_3  and  N_4
REMARK    3  A    between atoms: N_16  and  C_17
REMARK    4  A    between atoms: C_17  and  C_18
REMARK                            x       y       z     vdW  Elec       q    Type
REMARK                         _______ _______ _______ _____ _____    ______ ____
ROOT
ATOM      1  O   UNL     1       1.941   7.554  19.384  0.00  0.00    +0.000 OA
ATOM      2  C   UNL     1       1.872   7.353  20.594  0.00  0.00    +0.000 C 
ATOM      3  N   UNL     1       2.034   6.105  21.171  0.00  0.00    +0.000 N 
ATOM      4  H   UNL     1       1.945   6.044  22.181  0.00  0.00    +0.000 HD
ENDROOT
BRANCH   3   5
ATOM      5  C   UNL     1       2.126   4.822  20.410  0.00  0.00    +0.000 C 
ATOM      6  C   UNL     1       0.733   4.159  20.060  0.00  0.00    +0.000 C 
ATOM      7  C   UNL     1       1.347   2.808  20.478  0.00  0.00    +0.000 C 
ATOM      8  C   UNL     1       2.248   3.611  21.433  0.00  0.00    +0.000 C 
BRANCH   5   9
ATOM      9  C   UNL     1       3.242   4.817  19.232  0.00  0.00    +0.000 A 
ATOM     10  C   UNL     1       4.609   5.056  19.498  0.00  0.00    +0.000 A 
ATOM     11  C   UNL     1       5.605   4.824  18.545  0.00  0.00    +0.000 A 
ATOM     12  C   UNL     1       5.262   4.375  17.276  0.00  0.00    +0.000 A 
ATOM     13  C   UNL     1       3.921   4.212  16.947  0.00  0.00    +0.000 A 
ATOM     14  C   UNL     1       2.930   4.448  17.907  0.00  0.00    +0.000 A 
ENDBRANCH   5   9
ENDBRANCH   3   5
BRANCH   2  15
ATOM     15  C   UNL     1       1.664   8.489  21.611  0.00  0.00    +0.000 C 
BRANCH  15  16
ATOM     16  N   UNL     1       0.677   9.467  21.166  0.00  0.00    +0.000 N 
ATOM     17  N   UNL     1       0.508   9.563  19.783  0.00  0.00    +0.000 N 
ATOM     18  C   UNL     1      -0.440  10.367  19.202  0.00  0.00    +0.000 A 
ATOM     19  O   UNL     1      -0.635  10.358  17.991  0.00  0.00    +0.000 OA
ATOM     20  C   UNL     1      -1.220  11.242  20.097  0.00  0.00    +0.000 A 
ATOM     21  C   UNL     1      -2.181  12.108  19.555  0.00  0.00    +0.000 A 
ATOM     22  C   UNL     1      -2.944  12.922  20.396  0.00  0.00    +0.000 A 
ATOM     23  C   UNL     1      -2.742  12.877  21.775  0.00  0.00    +0.000 A 
ATOM     24  C   UNL     1      -1.784  12.015  22.315  0.00  0.00    +0.000 A 
ATOM     25  C   UNL     1      -1.023  11.187  21.475  0.00  0.00    +0.000 A 
ATOM     26  C   UNL     1      -0.037  10.250  22.055  0.00  0.00    +0.000 A 
ATOM     27  O   UNL     1       0.121  10.198  23.273  0.00  0.00    +0.000 OA
ATOM     28  H   UNL     1       0.892   8.830  19.192  0.00  0.00    +0.000 HD
ENDBRANCH  15  16
ENDBRANCH   2  15
TORSDOF 4
ENDMDL
MODEL 6
REMARK VINA RESULT:      -7.7      0.905      2.086
REMARK  Name = 
REMARK  4 active torsions:
REMARK  status: ('A' for Active; 'I' for Inactive)
REMARK    1  A    between atoms: C_2  and  C_3
REMARK    2  A    between atoms: C_3  and  N_4
REMARK    3  A    between atoms: N_16  and  C_17
REMARK    4  A    between atoms: C_17  and  C_18
REMARK                            x       y       z     vdW  Elec       q    Type
REMARK                         _______ _______ _______ _____ _____    ______ ____
ROOT
ATOM      1  O   UNL     1       1.882   8.003  19.666  0.00  0.00    +0.000 OA
ATOM      2  C   UNL     1       2.300   8.220  18.531  0.00  0.00    +0.000 C 
ATOM      3  N   UNL     1       2.993   7.286  17.781  0.00  0.00    +0.000 N 
ATOM      4  H   UNL     1       3.307   7.570  16.858  0.00  0.00    +0.000 HD
ENDROOT
BRANCH   3   5
ATOM      5  C   UNL     1       3.486   5.974  18.302  0.00  0.00    +0.000 C 
ATOM      6  C   UNL     1       4.794   6.063  19.187  0.00  0.00    +0.000 C 
ATOM      7  C   UNL     1       5.316   4.833  18.418  0.00  0.00    +0.000 C 
ATOM      8  C   UNL     1       4.464   5.318  17.232  0.00  0.00    +0.000 C 
BRANCH   5   9
ATOM      9  C   UNL     1       2.320   4.981  18.839  0.00  0.00    +0.000 A 
ATOM     10  C   UNL     1       1.647   4.086  17.978  0.00  0.00    +0.000 A 
ATOM     11  C   UNL     1       0.817   3.070  18.461  0.00  0.00    +0.000 A 
ATOM     12  C   UNL     1       0.604   2.937  19.827  0.00  0.00    +0.000 A 
ATOM     13  C   UNL     1       1.178   3.854  20.702  0.00  0.00    +0.000 A 
ATOM     14  C   UNL     1       2.006   4.868  20.209  0.00  0.00    +0.000 A 
ENDBRANCH   5   9
ENDBRANCH   3   5
BRANCH   2  15
ATOM     15  C   UNL     1       2.035   9.543  17.791  0.00  0.00    +0.000 C 
BRANCH  15  16
ATOM     16  N   UNL     1       0.759  10.147  18.161  0.00  0.00    +0.000 N 
ATOM     17  N   UNL     1      -0.344   9.722  17.418  0.00  0.00    +0.000 N 
ATOM     18  C   UNL     1      -1.628  10.122  17.694  0.00  0.00    +0.000 A 
ATOM     19  O   UNL     1      -2.589   9.657  17.092  0.00  0.00    +0.000 OA
ATOM     20  C   UNL     1      -1.803  11.136  18.750  0.00  0.00    +0.000 A 
ATOM     21  C   UNL     1      -3.089  11.607  19.053  0.00  0.00    +0.000 A 
ATOM     22  C   UNL     1      -3.269  12.548  20.069  0.00  0.00    +0.000 A 
ATOM     23  C   UNL     1      -2.166  13.025  20.776  0.00  0.00    +0.000 A 
ATOM     24  C   UNL     1      -0.885  12.558  20.475  0.00  0.00    +0.000 A 
ATOM     25  C   UNL     1      -0.701  11.603  19.462  0.00  0.00    +0.000 A 
ATOM     26  C   UNL     1       0.654  11.085  19.173  0.00  0.00    +0.000 A 
ATOM     27  O   UNL     1       1.621  11.491  19.815  0.00  0.00    +0.000 OA
ATOM     28  H   UNL     1      -0.253   8.890  16.841  0.00  0.00    +0.000 HD
ENDBRANCH  15  16
ENDBRANCH   2  15
TORSDOF 4
ENDMDL
MODEL 7
REMARK VINA RESULT:      -7.6      1.836      7.975
REMARK  Name = 
REMARK  4 active torsions:
REMARK  status: ('A' for Active; 'I' for Inactive)
REMARK    1  A    between atoms: C_2  and  C_3
REMARK    2  A    between atoms: C_3  and  N_4
REMARK    3  A    between atoms: N_16  and  C_17
REMARK    4  A    between atoms: C_17  and  C_18
REMARK                            x       y       z     vdW  Elec       q    Type
REMARK                         _______ _______ _______ _____ _____    ______ ____
ROOT
ATOM      1  O   UNL     1       1.627   9.171  18.123  0.00  0.00    +0.000 OA
ATOM      2  C   UNL     1       1.309   9.080  19.307  0.00  0.00    +0.000 C 
ATOM      3  N   UNL     1       0.376   9.904  19.912  0.00  0.00    +0.000 N 
ATOM      4  H   UNL     1       0.194   9.754  20.900  0.00  0.00    +0.000 HD
ENDROOT
BRANCH   3   5
ATOM      5  C   UNL     1      -0.229  11.114  19.277  0.00  0.00    +0.000 C 
ATOM      6  C   UNL     1       0.817  12.125  18.653  0.00  0.00    +0.000 C 
ATOM      7  C   UNL     1      -0.006  13.263  19.290  0.00  0.00    +0.000 C 
ATOM      8  C   UNL     1      -0.408  12.250  20.376  0.00  0.00    +0.000 C 
BRANCH   5   9
ATOM      9  C   UNL     1      -1.560  10.820  18.397  0.00  0.00    +0.000 A 
ATOM     10  C   UNL     1      -2.778  11.492  18.639  0.00  0.00    +0.000 A 
ATOM     11  C   UNL     1      -3.855  11.426  17.750  0.00  0.00    +0.000 A 
ATOM     12  C   UNL     1      -3.760  10.652  16.600  0.00  0.00    +0.000 A 
ATOM     13  C   UNL     1      -2.610   9.905  16.371  0.00  0.00    +0.000 A 
ATOM     14  C   UNL     1      -1.538   9.977  17.267  0.00  0.00    +0.000 A 
ENDBRANCH   5   9
ENDBRANCH   3   5
BRANCH   2  15
ATOM     15  C   UNL     1       1.872   7.987  20.233  0.00  0.00    +0.000 C 
BRANCH  15  16
ATOM     16  N   UNL     1       2.318   6.807  19.500  0.00  0.00    +0.000 N 
ATOM     17  N   UNL     1       3.154   7.057  18.410  0.00  0.00    +0.000 N 
ATOM     18  C   UNL     1       3.733   6.057  17.669  0.00  0.00    +0.000 A 
ATOM     19  O   UNL     1       4.542   6.302  16.781  0.00  0.00    +0.000 OA
ATOM     20  C   UNL     1       3.344   4.672  17.990  0.00  0.00    +0.000 A 
ATOM     21  C   UNL     1       3.880   3.610  17.246  0.00  0.00    +0.000 A 
ATOM     22  C   UNL     1       3.539   2.293  17.558  0.00  0.00    +0.000 A 
ATOM     23  C   UNL     1       2.657   2.034  18.607  0.00  0.00    +0.000 A 
ATOM     24  C   UNL     1       2.123   3.091  19.348  0.00  0.00    +0.000 A 
ATOM     25  C   UNL     1       2.472   4.416  19.045  0.00  0.00    +0.000 A 
ATOM     26  C   UNL     1       1.931   5.527  19.858  0.00  0.00    +0.000 A 
ATOM     27  O   UNL     1       1.173   5.293  20.797  0.00  0.00    +0.000 OA
ATOM     28  H   UNL     1       3.574   7.978  18.318  0.00  0.00    +0.000 HD
ENDBRANCH  15  16
ENDBRANCH   2  15
TORSDOF 4
ENDMDL
MODEL 8
REMARK VINA RESULT:      -7.6      1.832      7.922
REMARK  Name = 
REMARK  4 active torsions:
REMARK  status: ('A' for Active; 'I' for Inactive)
REMARK    1  A    between atoms: C_2  and  C_3
REMARK    2  A    between atoms: C_3  and  N_4
REMARK    3  A    between atoms: N_16  and  C_17
REMARK    4  A    between atoms: C_17  and  C_18
REMARK                            x       y       z     vdW  Elec       q    Type
REMARK                         _______ _______ _______ _____ _____    ______ ____
ROOT
ATOM      1  O   UNL     1       1.626   8.842  18.130  0.00  0.00    +0.000 OA
ATOM      2  C   UNL     1       1.427   8.876  19.342  0.00  0.00    +0.000 C 
ATOM      3  N   UNL     1       0.721   9.886  19.972  0.00  0.00    +0.000 N 
ATOM      4  H   UNL     1       0.624   9.827  20.981  0.00  0.00    +0.000 HD
ENDROOT
BRANCH   3   5
ATOM      5  C   UNL     1       0.269  11.148  19.310  0.00  0.00    +0.000 C 
ATOM      6  C   UNL     1       1.406  11.934  18.539  0.00  0.00    +0.000 C 
ATOM      7  C   UNL     1       0.842  13.225  19.164  0.00  0.00    +0.000 C 
ATOM      8  C   UNL     1       0.379  12.352  20.343  0.00  0.00    +0.000 C 
BRANCH   5   9
ATOM      9  C   UNL     1      -1.166  11.039  18.560  0.00  0.00    +0.000 A 
ATOM     10  C   UNL     1      -1.398  10.104  17.526  0.00  0.00    +0.000 A 
ATOM     11  C   UNL     1      -2.681   9.837  17.038  0.00  0.00    +0.000 A 
ATOM     12  C   UNL     1      -3.775  10.526  17.546  0.00  0.00    +0.000 A 
ATOM     13  C   UNL     1      -3.577  11.517  18.501  0.00  0.00    +0.000 A 
ATOM     14  C   UNL     1      -2.290  11.778  18.984  0.00  0.00    +0.000 A 
ENDBRANCH   5   9
ENDBRANCH   3   5
BRANCH   2  15
ATOM     15  C   UNL     1       1.890   7.754  20.288  0.00  0.00    +0.000 C 
BRANCH  15  16
ATOM     16  N   UNL     1       2.343   6.566  19.570  0.00  0.00    +0.000 N 
ATOM     17  N   UNL     1       3.238   6.802  18.525  0.00  0.00    +0.000 N 
ATOM     18  C   UNL     1       3.829   5.791  17.808  0.00  0.00    +0.000 A 
ATOM     19  O   UNL     1       4.687   6.020  16.962  0.00  0.00    +0.000 OA
ATOM     20  C   UNL     1       3.389   4.414  18.099  0.00  0.00    +0.000 A 
ATOM     21  C   UNL     1       3.934   3.344  17.375  0.00  0.00    +0.000 A 
ATOM     22  C   UNL     1       3.544   2.034  17.660  0.00  0.00    +0.000 A 
ATOM     23  C   UNL     1       2.605   1.792  18.662  0.00  0.00    +0.000 A 
ATOM     24  C   UNL     1       2.060   2.858  19.383  0.00  0.00    +0.000 A 
ATOM     25  C   UNL     1       2.458   4.175  19.107  0.00  0.00    +0.000 A 
ATOM     26  C   UNL     1       1.905   5.296  19.899  0.00  0.00    +0.000 A 
ATOM     27  O   UNL     1       1.095   5.075  20.797  0.00  0.00    +0.000 OA
ATOM     28  H   UNL     1       3.686   7.712  18.461  0.00  0.00    +0.000 HD
ENDBRANCH  15  16
ENDBRANCH   2  15
TORSDOF 4
ENDMDL
MODEL 9
REMARK VINA RESULT:      -7.6      1.766      2.190
REMARK  Name = 
REMARK  4 active torsions:
REMARK  status: ('A' for Active; 'I' for Inactive)
REMARK    1  A    between atoms: C_2  and  C_3
REMARK    2  A    between atoms: C_3  and  N_4
REMARK    3  A    between atoms: N_16  and  C_17
REMARK    4  A    between atoms: C_17  and  C_18
REMARK                            x       y       z     vdW  Elec       q    Type
REMARK                         _______ _______ _______ _____ _____    ______ ____
ROOT
ATOM      1  O   UNL     1       2.345   7.491  20.225  0.00  0.00    +0.000 OA
ATOM      2  C   UNL     1       2.290   7.762  19.028  0.00  0.00    +0.000 C 
ATOM      3  N   UNL     1       2.727   6.906  18.031  0.00  0.00    +0.000 N 
ATOM      4  H   UNL     1       2.648   7.231  17.071  0.00  0.00    +0.000 HD
ENDROOT
BRANCH   3   5
ATOM      5  C   UNL     1       3.484   5.640  18.269  0.00  0.00    +0.000 C 
ATOM      6  C   UNL     1       4.937   5.840  18.862  0.00  0.00    +0.000 C 
ATOM      7  C   UNL     1       5.421   4.778  17.854  0.00  0.00    +0.000 C 
ATOM      8  C   UNL     1       4.268   5.240  16.944  0.00  0.00    +0.000 C 
BRANCH   5   9
ATOM      9  C   UNL     1       2.602   4.439  18.912  0.00  0.00    +0.000 A 
ATOM     10  C   UNL     1       2.527   4.234  20.307  0.00  0.00    +0.000 A 
ATOM     11  C   UNL     1       1.596   3.364  20.884  0.00  0.00    +0.000 A 
ATOM     12  C   UNL     1       0.729   2.640  20.075  0.00  0.00    +0.000 A 
ATOM     13  C   UNL     1       0.831   2.747  18.693  0.00  0.00    +0.000 A 
ATOM     14  C   UNL     1       1.767   3.620  18.125  0.00  0.00    +0.000 A 
ENDBRANCH   5   9
ENDBRANCH   3   5
BRANCH   2  15
ATOM     15  C   UNL     1       1.660   9.064  18.502  0.00  0.00    +0.000 C 
BRANCH  15  16
ATOM     16  N   UNL     1       0.987   9.824  19.550  0.00  0.00    +0.000 N 
ATOM     17  N   UNL     1       0.334   9.061  20.520  0.00  0.00    +0.000 N 
ATOM     18  C   UNL     1      -0.271   9.615  21.621  0.00  0.00    +0.000 A 
ATOM     19  O   UNL     1      -0.749   8.917  22.509  0.00  0.00    +0.000 OA
ATOM     20  C   UNL     1      -0.320  11.086  21.692  0.00  0.00    +0.000 A 
ATOM     21  C   UNL     1      -0.954  11.708  22.778  0.00  0.00    +0.000 A 
ATOM     22  C   UNL     1      -0.983  13.101  22.869  0.00  0.00    +0.000 A 
ATOM     23  C   UNL     1      -0.388  13.874  21.873  0.00  0.00    +0.000 A 
ATOM     24  C   UNL     1       0.244  13.256  20.791  0.00  0.00    +0.000 A 
ATOM     25  C   UNL     1       0.286  11.856  20.702  0.00  0.00    +0.000 A 
ATOM     26  C   UNL     1       0.987  11.208  19.572  0.00  0.00    +0.000 A 
ATOM     27  O   UNL     1       1.532  11.893  18.709  0.00  0.00    +0.000 OA
ATOM     28  H   UNL     1       0.539   8.067  20.579  0.00  0.00    +0.000 HD
ENDBRANCH  15  16
ENDBRANCH   2  15
TORSDOF 4
ENDMDL
